BACE_49.smi:1
 OpenBabel09301813003D
Structure written by MMmdl.
 75 77  0  0  1  0  0  0  0  0999 V2000
   22.4633   43.0438   -2.8283 C   0  0  0  0  0  0  0  0  0  0  0  0
   21.1785   42.4523   -3.4290 C   0  0  0  0  0  0  0  0  0  0  0  0
   20.5982   41.3389   -2.5434 C   0  0  0  0  0  0  0  0  0  0  0  0
   21.3944   41.9798   -4.8612 C   0  0  0  0  0  0  0  0  0  0  0  0
   22.2185   40.8668   -5.1380 C   0  0  0  0  0  0  0  0  0  0  0  0
   22.4167   40.4422   -6.4657 C   0  0  0  0  0  0  0  0  0  0  0  0
   21.7963   41.1291   -7.5264 C   0  0  0  0  0  0  0  0  0  0  0  0
   20.9743   42.2434   -7.2618 C   0  0  0  0  0  0  0  0  0  0  0  0
   20.3130   42.9888   -8.4081 C   0  0  0  0  0  0  0  0  0  0  0  0
   18.9948   43.5195   -8.0683 N   0  0  0  0  0  0  0  0  0  0  0  0
   17.8847   42.8426   -8.7371 C   0  0  0  0  0  0  0  0  0  0  0  0
   16.6332   42.8240   -7.8329 C   0  0  1  0  0  0  0  0  0  0  0  0
   15.9343   44.0231   -8.1149 O   0  0  0  0  0  0  0  0  0  0  0  0
   15.6637   41.6283   -8.0732 C   0  0  2  0  0  0  0  0  0  0  0  0
   16.3917   40.2791   -8.0342 C   0  0  0  0  0  0  0  0  0  0  0  0
   16.0507   39.0735   -8.5424 C   0  0  0  0  0  0  0  0  0  0  0  0
   14.7764   38.7660   -9.3155 C   0  0  0  0  0  0  0  0  0  0  0  0
   16.9655   37.8741   -8.3394 C   0  0  0  0  0  0  0  0  0  0  0  0
   17.7742   37.4849   -9.5917 C   0  0  0  0  0  0  0  0  0  0  0  0
   18.7958   38.4157   -9.9343 O   0  0  0  0  0  0  0  0  0  0  0  0
   19.8121   38.5836   -8.9542 C   0  0  0  0  0  0  0  0  0  0  0  0
   21.1383   39.0429   -9.5837 C   0  0  0  0  0  0  0  0  0  0  0  0
   21.1499   40.4736  -10.1593 C   0  0  0  0  0  0  0  0  0  0  0  0
   20.7912   40.5659  -11.6544 C   0  0  0  0  0  0  0  0  0  0  0  0
   19.3632   40.4257  -11.9011 N   0  0  0  0  0  0  0  0  0  0  0  0
   18.5179   41.5131  -11.6455 C   0  0  0  0  0  0  0  0  0  0  0  0
   17.2075   41.2542  -11.1979 C   0  0  0  0  0  0  0  0  0  0  0  0
   16.3457   42.3443  -10.9661 C   0  0  0  0  0  0  0  0  0  0  0  0
   16.8189   43.6469  -11.2203 C   0  0  0  0  0  0  0  0  0  0  0  0
   18.1503   43.8112  -11.6473 C   0  0  0  0  0  0  0  0  0  0  0  0
   18.7474   45.4067  -11.9150 Cl  0  0  0  0  0  0  0  0  0  0  0  0
   18.9820   42.7679  -11.8530 N   0  0  0  0  0  0  0  0  0  0  0  0
   14.9437   42.1356  -10.4900 C   0  0  0  0  0  0  0  0  0  0  0  0
   14.0090   42.2903  -11.2724 O   0  0  0  0  0  0  0  0  0  0  0  0
   14.7347   41.8088   -9.1994 N   0  0  0  0  0  0  0  0  0  0  0  0
   20.7710   42.6605   -5.9290 C   0  0  0  0  0  0  0  0  0  0  0  0
   16.9266   42.8468   -6.7829 H   0  0  0  0  0  0  0  0  0  0  0  0
   15.0011   41.6012   -7.2071 H   0  0  0  0  0  0  0  0  0  0  0  0
   22.8335   43.8706   -3.4353 H   0  0  0  0  0  0  0  0  0  0  0  0
   23.2565   42.2989   -2.7597 H   0  0  0  0  0  0  0  0  0  0  0  0
   22.2846   43.4281   -1.8237 H   0  0  0  0  0  0  0  0  0  0  0  0
   20.4406   43.2555   -3.4542 H   0  0  0  0  0  0  0  0  0  0  0  0
   19.6602   40.9624   -2.9526 H   0  0  0  0  0  0  0  0  0  0  0  0
   20.3934   41.7071   -1.5378 H   0  0  0  0  0  0  0  0  0  0  0  0
   21.2847   40.4969   -2.4521 H   0  0  0  0  0  0  0  0  0  0  0  0
   22.7034   40.3340   -4.3334 H   0  0  0  0  0  0  0  0  0  0  0  0
   23.0471   39.5896   -6.6710 H   0  0  0  0  0  0  0  0  0  0  0  0
   21.9564   40.7991   -8.5424 H   0  0  0  0  0  0  0  0  0  0  0  0
   20.9637   43.7928   -8.7549 H   0  0  0  0  0  0  0  0  0  0  0  0
   20.2179   42.2936   -9.2426 H   0  0  0  0  0  0  0  0  0  0  0  0
   18.8584   43.4715   -7.0635 H   0  0  0  0  0  0  0  0  0  0  0  0
   17.6509   43.3186   -9.6903 H   0  0  0  0  0  0  0  0  0  0  0  0
   18.2022   41.8302   -8.9808 H   0  0  0  0  0  0  0  0  0  0  0  0
   15.2750   44.1498   -7.4500 H   0  0  0  0  0  0  0  0  0  0  0  0
   17.3275   40.3149   -7.4962 H   0  0  0  0  0  0  0  0  0  0  0  0
   14.4418   37.7479   -9.1155 H   0  0  0  0  0  0  0  0  0  0  0  0
   14.9494   38.8566  -10.3880 H   0  0  0  0  0  0  0  0  0  0  0  0
   13.9517   39.4172   -9.0329 H   0  0  0  0  0  0  0  0  0  0  0  0
   17.6305   38.0481   -7.4935 H   0  0  0  0  0  0  0  0  0  0  0  0
   16.3488   37.0274   -8.0365 H   0  0  0  0  0  0  0  0  0  0  0  0
   18.2277   36.5038   -9.4459 H   0  0  0  0  0  0  0  0  0  0  0  0
   17.1074   37.3819  -10.4482 H   0  0  0  0  0  0  0  0  0  0  0  0
   19.4844   39.2983   -8.1987 H   0  0  0  0  0  0  0  0  0  0  0  0
   19.9940   37.6383   -8.4403 H   0  0  0  0  0  0  0  0  0  0  0  0
   21.8915   39.0018   -8.7959 H   0  0  0  0  0  0  0  0  0  0  0  0
   21.4671   38.3252  -10.3360 H   0  0  0  0  0  0  0  0  0  0  0  0
   20.5307   41.1427   -9.5603 H   0  0  0  0  0  0  0  0  0  0  0  0
   22.1670   40.8533  -10.0580 H   0  0  0  0  0  0  0  0  0  0  0  0
   21.1513   41.5094  -12.0648 H   0  0  0  0  0  0  0  0  0  0  0  0
   21.3146   39.7883  -12.2108 H   0  0  0  0  0  0  0  0  0  0  0  0
   18.9771   39.5124  -11.7071 H   0  0  0  0  0  0  0  0  0  0  0  0
   16.8709   40.2399  -11.0426 H   0  0  0  0  0  0  0  0  0  0  0  0
   16.1841   44.5075  -11.0657 H   0  0  0  0  0  0  0  0  0  0  0  0
   13.7639   41.6851   -8.9518 H   0  0  0  0  0  0  0  0  0  0  0  0
   20.1382   43.5127   -5.7281 H   0  0  0  0  0  0  0  0  0  0  0  0
  1  2  1  0  0  0  0
  1 39  1  0  0  0  0
  1 40  1  0  0  0  0
  1 41  1  0  0  0  0
  2  3  1  0  0  0  0
  2  4  1  0  0  0  0
  2 42  1  0  0  0  0
  3 43  1  0  0  0  0
  3 44  1  0  0  0  0
  3 45  1  0  0  0  0
  4 36  1  0  0  0  0
  4  5  2  0  0  0  0
  5  6  1  0  0  0  0
  5 46  1  0  0  0  0
  6  7  2  0  0  0  0
  6 47  1  0  0  0  0
  7  8  1  0  0  0  0
  7 48  1  0  0  0  0
  8  9  1  0  0  0  0
  8 36  2  0  0  0  0
  9 10  1  0  0  0  0
  9 49  1  0  0  0  0
  9 50  1  0  0  0  0
 10 11  1  0  0  0  0
 10 51  1  0  0  0  0
 11 12  1  0  0  0  0
 11 52  1  0  0  0  0
 11 53  1  0  0  0  0
 12 37  1  1  0  0  0
 12 13  1  0  0  0  0
 12 14  1  0  0  0  0
 13 54  1  0  0  0  0
 14 38  1  1  0  0  0
 14 35  1  0  0  0  0
 14 15  1  0  0  0  0
 15 16  2  0  0  0  0
 15 55  1  0  0  0  0
 16 17  1  0  0  0  0
 16 18  1  0  0  0  0
 17 56  1  0  0  0  0
 17 57  1  0  0  0  0
 17 58  1  0  0  0  0
 18 19  1  0  0  0  0
 18 59  1  0  0  0  0
 18 60  1  0  0  0  0
 19 20  1  0  0  0  0
 19 61  1  0  0  0  0
 19 62  1  0  0  0  0
 20 21  1  0  0  0  0
 21 22  1  0  0  0  0
 21 63  1  0  0  0  0
 21 64  1  0  0  0  0
 22 23  1  0  0  0  0
 22 65  1  0  0  0  0
 22 66  1  0  0  0  0
 23 24  1  0  0  0  0
 23 67  1  0  0  0  0
 23 68  1  0  0  0  0
 24 25  1  0  0  0  0
 24 69  1  0  0  0  0
 24 70  1  0  0  0  0
 25 26  1  0  0  0  0
 25 71  1  0  0  0  0
 26 32  1  0  0  0  0
 26 27  2  0  0  0  0
 27 28  1  0  0  0  0
 27 72  1  0  0  0  0
 28 29  2  0  0  0  0
 28 33  1  0  0  0  0
 29 30  1  0  0  0  0
 29 73  1  0  0  0  0
 30 31  1  0  0  0  0
 30 32  2  0  0  0  0
 33 34  2  0  0  0  0
 33 35  1  0  0  0  0
 35 74  1  0  0  0  0
 36 75  1  0  0  0  0
M  END
>  <s_m_source_file>
BACE_49.smi

>  <i_m_source_file_index>
1

>  <i_lp_mmshare_version>
42013

>  <i_f3d_flags>
0

>  <s_epik_input>
W0NIM11bQ0hdKFtDSDNdKWMxW2NIXVtjSF1bY0hdYyhbY0hdMSlbQ0gyXVtOSF1bQ0gyXVtDQEBIXShbT0hdKVtDQEBIXShbTkhdQyg9TyljKFtjSF1jMjMpW2NIXWMoQ2wpbjMpL1tDSF09QyhcW0NIM10pW0NIMl1bQ0gyXU9bQ0gyXVtDSDJdW0NIMl1bQ0gyXVtOSF0y

>  <s_epik_cmdline>
J2VwaWtfcHl0aG9uJywgJy1waCcsICc3LjAnLCAnLXRuJywgJzgnLCAnLW1hJywgJzIwMCcsICctaW1hZScsICc8aW5maWxlLm1hZT4nLCAnLW9tYWUnLCAnPG91dGZpbGUubWFlPic=

>  <r_lp_tautomer_probability>
1

>  <r_epik_Ionization_Penalty>
2.0126

>  <r_epik_Ionization_Penalty_Charging>
0.0000

>  <r_epik_Ionization_Penalty_Neutral>
2.0126

>  <r_epik_State_Penalty>
2.1422

>  <r_epik_Charging_Adjusted_Penalty>
2.14222

>  <i_epik_Tot_Q>
0

>  <i_epik_Tot_abs_Q>
0

>  <s_lp_Force_Field>
OPLS_2005

>  <r_lp_Energy>
39.4231

>  <b_lp_Chiralities_Consistent>
1

>  <s_lp_Variant>
BACE_49.smi:1-2

>  <chiral flag>
1

>  <version>
0

>  <s_i_glide_gridfile>
second_dock_grid_2

>  <i_i_glide_lignum>
9

>  <i_i_glide_rotatable_bonds>
7

>  <r_i_docking_score>
-3.08912

>  <r_i_glide_ligand_efficiency>
-0.0858089

>  <r_i_glide_ligand_efficiency_sa>
-0.283335

>  <r_i_glide_ligand_efficiency_ln>
-0.673963

>  <r_glide_XP_GScore>
-5.23132

>  <r_i_glide_gscore>
-5.23132

>  <r_i_glide_evdw>
-44.1606

>  <r_i_glide_ecoul>
-10.3686

>  <r_i_glide_energy>
-54.5292

>  <r_i_glide_einternal>
6.19992

>  <r_i_glide_emodel>
-78.9035

>  <r_glide_XP_HBond>
-1.01106

>  <i_i_glide_confnum>
1

>  <i_i_glide_posenum>
19

>  <r_i_glide_eff_state_penalty>
2.1422

>  <i_glide_XP_PoseRank>
1

$$$$
