BACE_62.smi:1
 OpenBabel09301813003D
Structure written by MMmdl.
 87 90  0  0  1  0  0  0  0  0999 V2000
   19.8577   45.7154   -6.6783 C   0  0  0  0  0  0  0  0  0  0  0  0
   19.6452   46.4705   -7.8617 O   0  0  0  0  0  0  0  0  0  0  0  0
   18.3058   46.4436   -8.3379 C   0  0  0  0  0  0  0  0  0  0  0  0
   17.8729   45.0853   -8.8590 C   0  0  0  0  0  0  0  0  0  0  0  0
   17.1125   44.2292   -8.0373 C   0  0  0  0  0  0  0  0  0  0  0  0
   16.7128   42.9612   -8.4969 C   0  0  0  0  0  0  0  0  0  0  0  0
   17.0649   42.5558   -9.8027 C   0  0  0  0  0  0  0  0  0  0  0  0
   17.8123   43.4115  -10.6366 C   0  0  0  0  0  0  0  0  0  0  0  0
   18.2177   44.6773  -10.1638 C   0  0  0  0  0  0  0  0  0  0  0  0
   18.1360   42.9849  -12.0324 C   0  0  0  0  0  0  0  0  0  0  0  0
   17.4371   43.3650  -12.9694 O   0  0  0  0  0  0  0  0  0  0  0  0
   19.1776   42.1612  -12.2209 N   0  0  0  0  0  0  0  0  0  0  0  0
   20.1777   41.6711  -11.2695 C   0  0  1  0  0  0  0  0  0  0  0  0
   20.1342   40.1226  -11.2966 C   0  0  0  0  0  0  0  0  0  0  0  0
   19.4071   39.4829  -10.0962 C   0  0  2  0  0  0  0  0  0  0  0  0
   20.2908   39.5325   -8.8409 C   0  0  0  0  0  0  0  0  0  0  0  0
   18.9703   38.0589  -10.4780 C   0  0  0  0  0  0  0  0  0  0  0  0
   18.5306   37.1238   -9.3427 C   0  0  0  0  0  0  0  0  0  0  0  0
   17.3866   37.6224   -8.4564 C   0  0  0  0  0  0  0  0  0  0  0  0
   16.0524   37.8227   -9.1952 C   0  0  0  0  0  0  0  0  0  0  0  0
   14.9694   38.4884   -8.3291 C   0  0  0  0  0  0  0  0  0  0  0  0
   14.9602   40.0224   -8.3792 C   0  0  0  0  0  0  0  0  0  0  0  0
   16.1372   40.7091   -7.6810 C   0  0  0  0  0  0  0  0  0  0  0  0
   15.9627   42.1500   -7.6399 N   0  0  0  0  0  0  0  0  0  0  0  0
   21.5503   42.2973  -11.6422 C   0  0  2  0  0  0  0  0  0  0  0  0
   22.0517   41.7502  -12.8400 O   0  0  0  0  0  0  0  0  0  0  0  0
   22.6383   42.3066  -10.5543 C   0  0  0  0  0  0  0  0  0  0  0  0
   22.9484   40.9787  -10.0261 N   0  0  0  0  0  0  0  0  0  0  0  0
   23.8563   40.9716   -8.8813 C   0  0  0  0  0  0  0  0  0  0  0  0
   23.2599   41.6381   -7.6556 C   0  0  0  0  0  0  0  0  0  0  0  0
   22.4623   40.9048   -6.7530 C   0  0  0  0  0  0  0  0  0  0  0  0
   21.9248   41.5202   -5.6084 C   0  0  0  0  0  0  0  0  0  0  0  0
   21.2595   40.7035   -4.7208 O   0  0  0  0  0  0  0  0  0  0  0  0
   21.4047   41.0418   -3.3488 C   0  0  0  0  0  0  0  0  0  0  0  0
   20.4060   42.1221   -2.9336 C   0  0  0  0  0  0  0  0  0  0  0  0
   20.2350   43.1815   -4.0194 C   0  0  0  0  0  0  0  0  0  0  0  0
   21.5013   43.6578   -4.4399 O   0  0  0  0  0  0  0  0  0  0  0  0
   22.1131   42.9211   -5.4225 C   0  0  0  0  0  0  0  0  0  0  0  0
   22.9421   43.6360   -6.3055 C   0  0  0  0  0  0  0  0  0  0  0  0
   23.5224   42.9992   -7.4127 C   0  0  0  0  0  0  0  0  0  0  0  0
   19.9401   42.0194  -10.2650 H   0  0  0  0  0  0  0  0  0  0  0  0
   18.5020   40.0521   -9.8921 H   0  0  0  0  0  0  0  0  0  0  0  0
   21.3736   43.3525  -11.8574 H   0  0  0  0  0  0  0  0  0  0  0  0
   20.8747   45.8752   -6.3233 H   0  0  0  0  0  0  0  0  0  0  0  0
   19.7347   44.6468   -6.8563 H   0  0  0  0  0  0  0  0  0  0  0  0
   19.1756   46.0187   -5.8831 H   0  0  0  0  0  0  0  0  0  0  0  0
   18.2245   47.1670   -9.1498 H   0  0  0  0  0  0  0  0  0  0  0  0
   17.6208   46.7876   -7.5595 H   0  0  0  0  0  0  0  0  0  0  0  0
   16.8503   44.5393   -7.0362 H   0  0  0  0  0  0  0  0  0  0  0  0
   16.7458   41.5953  -10.1803 H   0  0  0  0  0  0  0  0  0  0  0  0
   18.7934   45.3353  -10.7983 H   0  0  0  0  0  0  0  0  0  0  0  0
   19.3407   41.8728  -13.1714 H   0  0  0  0  0  0  0  0  0  0  0  0
   21.1359   39.7004  -11.3597 H   0  0  0  0  0  0  0  0  0  0  0  0
   19.6609   39.7944  -12.2240 H   0  0  0  0  0  0  0  0  0  0  0  0
   19.7952   39.1501   -7.9517 H   0  0  0  0  0  0  0  0  0  0  0  0
   20.5635   40.5604   -8.6139 H   0  0  0  0  0  0  0  0  0  0  0  0
   21.2086   38.9608   -8.9783 H   0  0  0  0  0  0  0  0  0  0  0  0
   19.7879   37.5699  -11.0034 H   0  0  0  0  0  0  0  0  0  0  0  0
   18.1699   38.1502  -11.2069 H   0  0  0  0  0  0  0  0  0  0  0  0
   19.3964   36.9500   -8.7112 H   0  0  0  0  0  0  0  0  0  0  0  0
   18.2605   36.1522   -9.7559 H   0  0  0  0  0  0  0  0  0  0  0  0
   17.6905   38.5284   -7.9472 H   0  0  0  0  0  0  0  0  0  0  0  0
   17.2580   36.8989   -7.6541 H   0  0  0  0  0  0  0  0  0  0  0  0
   16.1915   38.4108  -10.1018 H   0  0  0  0  0  0  0  0  0  0  0  0
   15.6955   36.8468   -9.5221 H   0  0  0  0  0  0  0  0  0  0  0  0
   13.9943   38.1603   -8.6909 H   0  0  0  0  0  0  0  0  0  0  0  0
   15.0304   38.1492   -7.2943 H   0  0  0  0  0  0  0  0  0  0  0  0
   14.0601   40.3448   -7.8688 H   0  0  0  0  0  0  0  0  0  0  0  0
   14.8690   40.3640   -9.4101 H   0  0  0  0  0  0  0  0  0  0  0  0
   17.0793   40.4786   -8.1696 H   0  0  0  0  0  0  0  0  0  0  0  0
   16.2177   40.3475   -6.6540 H   0  0  0  0  0  0  0  0  0  0  0  0
   15.6772   42.5330   -6.7360 H   0  0  0  0  0  0  0  0  0  0  0  0
   22.9245   41.3710  -12.7244 H   0  0  0  0  0  0  0  0  0  0  0  0
   22.2772   42.9503   -9.7532 H   0  0  0  0  0  0  0  0  0  0  0  0
   23.5436   42.7795  -10.9386 H   0  0  0  0  0  0  0  0  0  0  0  0
   23.3213   40.3812  -10.7583 H   0  0  0  0  0  0  0  0  0  0  0  0
   24.8021   41.4500   -9.1417 H   0  0  0  0  0  0  0  0  0  0  0  0
   24.0985   39.9435   -8.6131 H   0  0  0  0  0  0  0  0  0  0  0  0
   22.3017   39.8489   -6.9131 H   0  0  0  0  0  0  0  0  0  0  0  0
   21.2379   40.1500   -2.7514 H   0  0  0  0  0  0  0  0  0  0  0  0
   22.4300   41.3568   -3.1401 H   0  0  0  0  0  0  0  0  0  0  0  0
   19.4392   41.6711   -2.7151 H   0  0  0  0  0  0  0  0  0  0  0  0
   20.7430   42.5863   -2.0061 H   0  0  0  0  0  0  0  0  0  0  0  0
   19.6631   44.0176   -3.6382 H   0  0  0  0  0  0  0  0  0  0  0  0
   19.6603   42.8020   -4.8658 H   0  0  0  0  0  0  0  0  0  0  0  0
   23.1088   44.6908   -6.1472 H   0  0  0  0  0  0  0  0  0  0  0  0
   24.1458   43.5622   -8.0914 H   0  0  0  0  0  0  0  0  0  0  0  0
  1  2  1  0  0  0  0
  1 44  1  0  0  0  0
  1 45  1  0  0  0  0
  1 46  1  0  0  0  0
  2  3  1  0  0  0  0
  3  4  1  0  0  0  0
  3 47  1  0  0  0  0
  3 48  1  0  0  0  0
  4  9  1  0  0  0  0
  4  5  2  0  0  0  0
  5  6  1  0  0  0  0
  5 49  1  0  0  0  0
  6 24  1  0  0  0  0
  6  7  2  0  0  0  0
  7  8  1  0  0  0  0
  7 50  1  0  0  0  0
  8  9  2  0  0  0  0
  8 10  1  0  0  0  0
  9 51  1  0  0  0  0
 10 11  2  0  0  0  0
 10 12  1  0  0  0  0
 12 13  1  0  0  0  0
 12 52  1  0  0  0  0
 13 41  1  1  0  0  0
 13 14  1  0  0  0  0
 13 25  1  0  0  0  0
 14 15  1  0  0  0  0
 14 53  1  0  0  0  0
 14 54  1  0  0  0  0
 15 42  1  1  0  0  0
 15 16  1  0  0  0  0
 15 17  1  0  0  0  0
 16 55  1  0  0  0  0
 16 56  1  0  0  0  0
 16 57  1  0  0  0  0
 17 18  1  0  0  0  0
 17 58  1  0  0  0  0
 17 59  1  0  0  0  0
 18 19  1  0  0  0  0
 18 60  1  0  0  0  0
 18 61  1  0  0  0  0
 19 20  1  0  0  0  0
 19 62  1  0  0  0  0
 19 63  1  0  0  0  0
 20 21  1  0  0  0  0
 20 64  1  0  0  0  0
 20 65  1  0  0  0  0
 21 22  1  0  0  0  0
 21 66  1  0  0  0  0
 21 67  1  0  0  0  0
 22 23  1  0  0  0  0
 22 68  1  0  0  0  0
 22 69  1  0  0  0  0
 23 24  1  0  0  0  0
 23 70  1  0  0  0  0
 23 71  1  0  0  0  0
 24 72  1  0  0  0  0
 25 43  1  6  0  0  0
 25 26  1  0  0  0  0
 25 27  1  0  0  0  0
 26 73  1  0  0  0  0
 27 28  1  0  0  0  0
 27 74  1  0  0  0  0
 27 75  1  0  0  0  0
 28 29  1  0  0  0  0
 28 76  1  0  0  0  0
 29 30  1  0  0  0  0
 29 77  1  0  0  0  0
 29 78  1  0  0  0  0
 30 40  1  0  0  0  0
 30 31  2  0  0  0  0
 31 32  1  0  0  0  0
 31 79  1  0  0  0  0
 32 38  2  0  0  0  0
 32 33  1  0  0  0  0
 33 34  1  0  0  0  0
 34 35  1  0  0  0  0
 34 80  1  0  0  0  0
 34 81  1  0  0  0  0
 35 36  1  0  0  0  0
 35 82  1  0  0  0  0
 35 83  1  0  0  0  0
 36 37  1  0  0  0  0
 36 84  1  0  0  0  0
 36 85  1  0  0  0  0
 37 38  1  0  0  0  0
 38 39  1  0  0  0  0
 39 40  2  0  0  0  0
 39 86  1  0  0  0  0
 40 87  1  0  0  0  0
M  END
>  <s_m_source_file>
BACE_62.smi

>  <i_m_source_file_index>
1

>  <i_lp_mmshare_version>
42013

>  <i_f3d_flags>
0

>  <s_epik_input>
W05IXTFbQ0gyXVtDSDJdW0NIMl1bQ0gyXVtDSDJdW0NIMl1bQ0gyXVtDQEBIXShbQ0gzXSlbQ0gyXVtDQEhdKFtOSF1DKD1PKWMoW2NIXTIpW2NIXWMoW2NIXWMxMilbQ0gyXU9bQ0gzXSlbQ0BIXShbT0hdKVtDSDJdW05IXVtDSDJdYyhbY0hdMylbY0hdW2NIXWMoYzM0KU9bQ0gyXVtDSDJdW0NIMl1PNA==

>  <s_epik_cmdline>
J2VwaWtfcHl0aG9uJywgJy1waCcsICc3LjAnLCAnLXRuJywgJzgnLCAnLW1hJywgJzIwMCcsICctaW1hZScsICc8aW5maWxlLm1hZT4nLCAnLW9tYWUnLCAnPG91dGZpbGUubWFlPic=

>  <r_lp_tautomer_probability>
1

>  <r_epik_Ionization_Penalty>
2.1365

>  <r_epik_Ionization_Penalty_Charging>
0.0000

>  <r_epik_Ionization_Penalty_Neutral>
2.1365

>  <r_epik_State_Penalty>
2.2746

>  <r_epik_Charging_Adjusted_Penalty>
2.27465

>  <i_epik_Tot_Q>
0

>  <i_epik_Tot_abs_Q>
0

>  <s_lp_Force_Field>
OPLS_2005

>  <r_lp_Energy>
56.6392

>  <b_lp_Chiralities_Consistent>
1

>  <s_lp_Variant>
BACE_62.smi:1-2

>  <chiral flag>
1

>  <version>
0

>  <s_i_glide_gridfile>
second_dock_grid_2

>  <i_i_glide_lignum>
23

>  <i_i_glide_rotatable_bonds>
8

>  <r_i_docking_score>
-3.74566

>  <r_i_glide_ligand_efficiency>
-0.0936414

>  <r_i_glide_ligand_efficiency_sa>
-0.320249

>  <r_i_glide_ligand_efficiency_ln>
-0.798838

>  <r_glide_XP_GScore>
-6.02026

>  <r_i_glide_gscore>
-6.02026

>  <r_i_glide_evdw>
-34.232

>  <r_i_glide_ecoul>
-15.096

>  <r_i_glide_energy>
-49.3281

>  <r_i_glide_einternal>
10.6693

>  <r_i_glide_emodel>
-69.0688

>  <r_glide_XP_HBond>
-2.09427

>  <i_i_glide_confnum>
1

>  <i_i_glide_posenum>
9

>  <r_i_glide_eff_state_penalty>
2.2746

>  <i_glide_XP_PoseRank>
1

$$$$
