BACE_10.smi:1
 OpenBabel09301813003D
Structure written by MMmdl.
 86 88  0  0  1  0  0  0  0  0999 V2000
   19.6378   43.1447   -6.7731 C   0  0  0  0  0  0  0  0  0  0  0  0
   19.7324   44.2156   -7.6997 O   0  0  0  0  0  0  0  0  0  0  0  0
   18.5269   44.4373   -8.4211 C   0  0  0  0  0  0  0  0  0  0  0  0
   18.2325   43.3441   -9.4312 C   0  0  0  0  0  0  0  0  0  0  0  0
   16.9180   42.8615   -9.5950 C   0  0  0  0  0  0  0  0  0  0  0  0
   16.6444   41.8492  -10.5373 C   0  0  0  0  0  0  0  0  0  0  0  0
   17.7010   41.3198  -11.3100 C   0  0  0  0  0  0  0  0  0  0  0  0
   19.0210   41.7891  -11.1452 C   0  0  0  0  0  0  0  0  0  0  0  0
   19.2742   42.8254  -10.2236 C   0  0  0  0  0  0  0  0  0  0  0  0
   20.1062   41.2548  -12.0301 C   0  0  0  0  0  0  0  0  0  0  0  0
   19.9366   41.2422  -13.2401 O   0  0  0  0  0  0  0  0  0  0  0  0
   21.2513   40.7964  -11.5099 N   0  0  0  0  0  0  0  0  0  0  0  0
   21.6145   40.5040  -10.1240 C   0  0  1  0  0  0  0  0  0  0  0  0
   21.0935   39.0909   -9.7575 C   0  0  0  0  0  0  0  0  0  0  0  0
   19.8689   39.0981   -8.8182 C   0  0  2  0  0  0  0  0  0  0  0  0
   20.3120   39.3120   -7.3595 C   0  0  0  0  0  0  0  0  0  0  0  0
   19.0492   37.8058   -9.0083 C   0  0  0  0  0  0  0  0  0  0  0  0
   17.8051   37.6821   -8.1211 C   0  0  0  0  0  0  0  0  0  0  0  0
   16.9219   38.7422   -8.4345 O   0  0  0  0  0  0  0  0  0  0  0  0
   15.7485   38.7106   -7.6408 C   0  0  0  0  0  0  0  0  0  0  0  0
   14.7655   39.7820   -8.1102 C   0  0  0  0  0  0  0  0  0  0  0  0
   14.1986   39.5477   -9.5274 C   0  0  0  0  0  0  0  0  0  0  0  0
   15.1309   39.9648  -10.6773 C   0  0  0  0  0  0  0  0  0  0  0  0
   15.3251   41.4088  -10.6990 N   0  0  0  0  0  0  0  0  0  0  0  0
   23.1514   40.6193   -9.9918 C   0  0  2  0  0  0  0  0  0  0  0  0
   23.5179   40.5486   -8.6279 O   0  0  0  0  0  0  0  0  0  0  0  0
   23.7220   41.9561  -10.5100 C   0  0  0  0  0  0  0  0  0  0  0  0
   25.1963   41.9515  -10.4393 N   0  3  0  0  0  0  0  0  0  0  0  0
   25.8158   43.1835  -10.9614 C   0  0  0  0  0  0  0  0  0  0  0  0
   27.2953   43.2096  -10.6488 C   0  0  0  0  0  0  0  0  0  0  0  0
   28.2089   42.5352  -11.4841 C   0  0  0  0  0  0  0  0  0  0  0  0
   29.5999   42.5576  -11.2111 C   0  0  0  0  0  0  0  0  0  0  0  0
   30.0504   43.2536  -10.0652 C   0  0  0  0  0  0  0  0  0  0  0  0
   29.1428   43.9381   -9.2396 C   0  0  0  0  0  0  0  0  0  0  0  0
   27.7665   43.9126   -9.5232 C   0  0  0  0  0  0  0  0  0  0  0  0
   30.6107   41.8377  -12.1080 C   0  0  0  0  0  0  0  0  0  0  0  0
   31.8732   42.6781  -12.3819 C   0  0  0  0  0  0  0  0  0  0  0  0
   30.0312   41.3534  -13.4504 C   0  0  0  0  0  0  0  0  0  0  0  0
   21.1813   41.2419   -9.4551 H   0  0  0  0  0  0  0  0  0  0  0  0
   19.2195   39.9260   -9.0933 H   0  0  0  0  0  0  0  0  0  0  0  0
   23.5996   39.7832  -10.5294 H   0  0  0  0  0  0  0  0  0  0  0  0
   20.5826   43.0280   -6.2433 H   0  0  0  0  0  0  0  0  0  0  0  0
   19.4119   42.1987   -7.2637 H   0  0  0  0  0  0  0  0  0  0  0  0
   18.8608   43.3448   -6.0374 H   0  0  0  0  0  0  0  0  0  0  0  0
   17.6924   44.5700   -7.7302 H   0  0  0  0  0  0  0  0  0  0  0  0
   18.6294   45.3757   -8.9694 H   0  0  0  0  0  0  0  0  0  0  0  0
   16.1209   43.2696   -8.9910 H   0  0  0  0  0  0  0  0  0  0  0  0
   17.5012   40.5507  -12.0403 H   0  0  0  0  0  0  0  0  0  0  0  0
   20.2722   43.2254  -10.1157 H   0  0  0  0  0  0  0  0  0  0  0  0
   21.9275   40.5035  -12.2002 H   0  0  0  0  0  0  0  0  0  0  0  0
   20.8486   38.5521  -10.6746 H   0  0  0  0  0  0  0  0  0  0  0  0
   21.8830   38.4917   -9.3025 H   0  0  0  0  0  0  0  0  0  0  0  0
   20.8654   38.4537   -6.9777 H   0  0  0  0  0  0  0  0  0  0  0  0
   19.4575   39.4769   -6.7028 H   0  0  0  0  0  0  0  0  0  0  0  0
   20.9525   40.1877   -7.2617 H   0  0  0  0  0  0  0  0  0  0  0  0
   18.7307   37.7355  -10.0476 H   0  0  0  0  0  0  0  0  0  0  0  0
   19.6937   36.9504   -8.8402 H   0  0  0  0  0  0  0  0  0  0  0  0
   17.3158   36.7258   -8.3155 H   0  0  0  0  0  0  0  0  0  0  0  0
   18.0697   37.6913   -7.0614 H   0  0  0  0  0  0  0  0  0  0  0  0
   15.2631   37.7385   -7.7097 H   0  0  0  0  0  0  0  0  0  0  0  0
   16.0074   38.8683   -6.5914 H   0  0  0  0  0  0  0  0  0  0  0  0
   13.9400   39.7542   -7.3989 H   0  0  0  0  0  0  0  0  0  0  0  0
   15.2079   40.7735   -8.0139 H   0  0  0  0  0  0  0  0  0  0  0  0
   13.9359   38.4964   -9.6324 H   0  0  0  0  0  0  0  0  0  0  0  0
   13.2597   40.0908   -9.6392 H   0  0  0  0  0  0  0  0  0  0  0  0
   16.0711   39.4169  -10.6096 H   0  0  0  0  0  0  0  0  0  0  0  0
   14.6766   39.6788  -11.6250 H   0  0  0  0  0  0  0  0  0  0  0  0
   14.6655   41.8830  -10.0957 H   0  0  0  0  0  0  0  0  0  0  0  0
   23.6359   39.6317   -8.4089 H   0  0  0  0  0  0  0  0  0  0  0  0
   23.4353   42.1380  -11.5457 H   0  0  0  0  0  0  0  0  0  0  0  0
   23.3275   42.7872   -9.9252 H   0  0  0  0  0  0  0  0  0  0  0  0
   25.4497   41.8264   -9.4700 H   0  0  0  0  0  0  0  0  0  0  0  0
   25.6608   43.2541  -12.0389 H   0  0  0  0  0  0  0  0  0  0  0  0
   25.3392   44.0547  -10.5131 H   0  0  0  0  0  0  0  0  0  0  0  0
   27.8204   42.0048  -12.3396 H   0  0  0  0  0  0  0  0  0  0  0  0
   31.0979   43.2808   -9.8079 H   0  0  0  0  0  0  0  0  0  0  0  0
   29.5038   44.4771   -8.3750 H   0  0  0  0  0  0  0  0  0  0  0  0
   27.0796   44.4383   -8.8749 H   0  0  0  0  0  0  0  0  0  0  0  0
   30.9153   40.9503  -11.5499 H   0  0  0  0  0  0  0  0  0  0  0  0
   32.4419   42.8829  -11.4754 H   0  0  0  0  0  0  0  0  0  0  0  0
   31.6211   43.6326  -12.8465 H   0  0  0  0  0  0  0  0  0  0  0  0
   32.5534   42.1565  -13.0557 H   0  0  0  0  0  0  0  0  0  0  0  0
   29.2695   40.5874  -13.3065 H   0  0  0  0  0  0  0  0  0  0  0  0
   30.8057   40.8994  -14.0694 H   0  0  0  0  0  0  0  0  0  0  0  0
   29.5977   42.1725  -14.0261 H   0  0  0  0  0  0  0  0  0  0  0  0
   25.5433   41.1650  -10.9669 H   0  0  0  0  0  0  0  0  0  0  0  0
  1  2  1  0  0  0  0
  1 42  1  0  0  0  0
  1 43  1  0  0  0  0
  1 44  1  0  0  0  0
  2  3  1  0  0  0  0
  3  4  1  0  0  0  0
  3 45  1  0  0  0  0
  3 46  1  0  0  0  0
  4  9  1  0  0  0  0
  4  5  2  0  0  0  0
  5  6  1  0  0  0  0
  5 47  1  0  0  0  0
  6 24  1  0  0  0  0
  6  7  2  0  0  0  0
  7  8  1  0  0  0  0
  7 48  1  0  0  0  0
  8  9  2  0  0  0  0
  8 10  1  0  0  0  0
  9 49  1  0  0  0  0
 10 11  2  0  0  0  0
 10 12  1  0  0  0  0
 12 13  1  0  0  0  0
 12 50  1  0  0  0  0
 13 39  1  1  0  0  0
 13 14  1  0  0  0  0
 13 25  1  0  0  0  0
 14 15  1  0  0  0  0
 14 51  1  0  0  0  0
 14 52  1  0  0  0  0
 15 40  1  6  0  0  0
 15 16  1  0  0  0  0
 15 17  1  0  0  0  0
 16 53  1  0  0  0  0
 16 54  1  0  0  0  0
 16 55  1  0  0  0  0
 17 18  1  0  0  0  0
 17 56  1  0  0  0  0
 17 57  1  0  0  0  0
 18 19  1  0  0  0  0
 18 58  1  0  0  0  0
 18 59  1  0  0  0  0
 19 20  1  0  0  0  0
 20 21  1  0  0  0  0
 20 60  1  0  0  0  0
 20 61  1  0  0  0  0
 21 22  1  0  0  0  0
 21 62  1  0  0  0  0
 21 63  1  0  0  0  0
 22 23  1  0  0  0  0
 22 64  1  0  0  0  0
 22 65  1  0  0  0  0
 23 24  1  0  0  0  0
 23 66  1  0  0  0  0
 23 67  1  0  0  0  0
 24 68  1  0  0  0  0
 25 41  1  6  0  0  0
 25 26  1  0  0  0  0
 25 27  1  0  0  0  0
 26 69  1  0  0  0  0
 27 28  1  0  0  0  0
 27 70  1  0  0  0  0
 27 71  1  0  0  0  0
 28 29  1  0  0  0  0
 28 72  1  0  0  0  0
 28 86  1  0  0  0  0
 29 30  1  0  0  0  0
 29 73  1  0  0  0  0
 29 74  1  0  0  0  0
 30 35  1  0  0  0  0
 30 31  2  0  0  0  0
 31 32  1  0  0  0  0
 31 75  1  0  0  0  0
 32 33  2  0  0  0  0
 32 36  1  0  0  0  0
 33 34  1  0  0  0  0
 33 76  1  0  0  0  0
 34 35  2  0  0  0  0
 34 77  1  0  0  0  0
 35 78  1  0  0  0  0
 36 37  1  0  0  0  0
 36 38  1  0  0  0  0
 36 79  1  0  0  0  0
 37 80  1  0  0  0  0
 37 81  1  0  0  0  0
 37 82  1  0  0  0  0
 38 83  1  0  0  0  0
 38 84  1  0  0  0  0
 38 85  1  0  0  0  0
M  CHG  1  28   1
M  END
>  <s_m_source_file>
BACE_10.smi

>  <i_m_source_file_index>
1

>  <i_lp_mmshare_version>
42013

>  <i_f3d_flags>
0

>  <s_epik_input>
W2NIXTFbY0hdW2NIXWMoW0NIXShbQ0gzXSlbQ0gzXSlbY0hdYzFbQ0gyXVtOSF1bQ0gyXVtDQEBIXShbT0hdKVtDQEBIXShbTkhdQyg9TyljKFtjSF0yKVtjSF1jKFtjSF1jMjMpW0NIMl1PW0NIM10pW0NIMl1bQ0BIXShbQ0gzXSlbQ0gyXVtDSDJdT1tDSDJdW0NIMl1bQ0gyXVtDSDJdW05IXTM=

>  <s_epik_cmdline>
J2VwaWtfcHl0aG9uJywgJy1waCcsICc3LjAnLCAnLXRuJywgJzgnLCAnLW1hJywgJzIwMCcsICctaW1hZScsICc8aW5maWxlLm1hZT4nLCAnLW9tYWUnLCAnPG91dGZpbGUubWFlPic=

>  <r_epik_Ionization_Penalty>
0.0171

>  <r_epik_Ionization_Penalty_Charging>
0.0167

>  <r_epik_Ionization_Penalty_Neutral>
0.0004

>  <r_epik_State_Penalty>
0.0132

>  <r_epik_Charging_Adjusted_Penalty>
0.0299522

>  <i_epik_Tot_Q>
1

>  <i_epik_Tot_abs_Q>
1

>  <s_lp_Force_Field>
OPLS_2005

>  <r_lp_Energy>
40.1732

>  <b_lp_Chiralities_Consistent>
1

>  <s_lp_Variant>
BACE_10.smi:1-1

>  <chiral flag>
1

>  <version>
0

>  <s_i_glide_gridfile>
second_dock_grid_2

>  <i_i_glide_lignum>
1

>  <i_i_glide_rotatable_bonds>
9

>  <r_i_docking_score>
-4.08542

>  <r_i_glide_ligand_efficiency>
-0.107511

>  <r_i_glide_ligand_efficiency_sa>
-0.36145

>  <r_i_glide_ligand_efficiency_ln>
-0.880937

>  <r_glide_XP_GScore>
-4.09862

>  <r_i_glide_gscore>
-4.09862

>  <r_i_glide_evdw>
-41.6868

>  <r_i_glide_ecoul>
-13.6009

>  <r_i_glide_energy>
-55.2877

>  <r_i_glide_einternal>
4.10152

>  <r_i_glide_emodel>
-75.9195

>  <r_glide_XP_HBond>
-0.840644

>  <i_i_glide_confnum>
1

>  <i_i_glide_posenum>
11

>  <r_i_glide_eff_state_penalty>
0.0132

>  <i_glide_XP_PoseRank>
1

$$$$
