@<TRIPOS>MOLECULE
10gs_complex ligand
 59 60 0 0 0
SMALL
GASTEIGER
****
Structure written by MMmdl.
@<TRIPOS>ATOM
      1 N          14.8283   10.8236   23.2152 N.4     1  UNK1        0.2249
      2 C          14.8325   10.0251   24.4596 C.3     1  UNK1        0.0164
      3 C          16.0518    9.0780   24.4612 C.2     1  UNK1        0.0894
      4 O          16.4267    8.6129   25.5587 O.co2   1  UNK1       -0.5442
      5 C          13.4966    9.2556   24.6446 C.3     1  UNK1        0.0039
      6 C          13.2636    8.7115   26.0752 C.3     1  UNK1        0.0294
      7 C          11.9111    8.0238   26.2903 C.2     1  UNK1        0.2138
      8 O          11.1632    7.7765   25.3437 O.2     1  UNK1       -0.2758
      9 O          16.6290    8.8238   23.3797 O.co2   1  UNK1       -0.5442
     10 N          11.6281    7.6989   27.5611 N.am    1  UNK1       -0.3033
     11 C          10.4635    6.9632   28.0507 C.3     1  UNK1        0.1083
     12 C          10.9327    5.5761   28.5268 C.3     1  UNK1        0.0210
     13 S          11.6283    4.6150   27.1594 S.3     1  UNK1       -0.1538
     14 C          10.1314    4.1722   26.2584 C.3     1  UNK1        0.0189
     15 C          10.4800    3.0364   25.3300 C.ar    1  UNK1       -0.0376
     16 C          10.4279    1.7087   25.7985 C.ar    1  UNK1       -0.0578
     17 C          10.8979    3.3004   24.0122 C.ar    1  UNK1       -0.0578
     18 C          10.7008    0.6437   24.9238 C.ar    1  UNK1       -0.0615
     19 C          11.2261    2.2316   23.1598 C.ar    1  UNK1       -0.0615
     20 C          11.0803    0.9050   23.5951 C.ar    1  UNK1       -0.0617
     21 C           9.7847    7.7068   29.2131 C.2     1  UNK1        0.2349
     22 O          10.4336    8.0226   30.2109 O.2     1  UNK1       -0.2737
     23 N           8.4735    7.9613   29.0973 N.am    2  UNK2       -0.3018
     24 C           7.6130    8.5792   30.1137 C.3     2  UNK2        0.0879
     25 C           6.4518    7.6748   30.4687 C.ar    2  UNK2       -0.0217
     26 C           6.3628    6.3258   30.0265 C.ar    2  UNK2       -0.0564
     27 C           5.4099    8.1223   31.3255 C.ar    2  UNK2       -0.0564
     28 C           5.3028    5.4822   30.4097 C.ar    2  UNK2       -0.0614
     29 C           4.3453    7.2876   31.7151 C.ar    2  UNK2       -0.0614
     30 C           4.2909    5.9610   31.2583 C.ar    2  UNK2       -0.0617
     31 C           7.0225    9.8890   29.5568 C.2     2  UNK2        0.0664
     32 O           6.8274    9.9602   28.3237 O.co2   2  UNK2       -0.5475
     33 O           6.8285   10.8286   30.3596 O.co2   2  UNK2       -0.5475
     34 H          15.6978   11.3425   23.1717 H       1  UNK1        0.2001
     35 H          14.7830   10.2068   22.4179 H       1  UNK1        0.2001
     36 H          14.0634   11.4843   23.2014 H       1  UNK1        0.2001
     37 H          14.9522   10.7371   25.2777 H       1  UNK1        0.0915
     38 H          13.4437    8.4332   23.9294 H       1  UNK1        0.0328
     39 H          12.6707    9.9252   24.3974 H       1  UNK1        0.0328
     40 H          13.3457    9.5313   26.7893 H       1  UNK1        0.0360
     41 H          14.0320    7.9868   26.3406 H       1  UNK1        0.0360
     42 H          12.3469    7.8814   28.2532 H       1  UNK1        0.1495
     43 H           9.7299    6.8457   27.2517 H       1  UNK1        0.0603
     44 H          11.7199    5.6842   29.2729 H       1  UNK1        0.0399
     45 H          10.1203    5.0130   28.9887 H       1  UNK1        0.0399
     46 H           9.3508    3.8565   26.9521 H       1  UNK1        0.0425
     47 H           9.7552    5.0302   25.7004 H       1  UNK1        0.0425
     48 H          10.1383    1.5033   26.8193 H       1  UNK1        0.0621
     49 H          10.9791    4.3180   23.6587 H       1  UNK1        0.0621
     50 H          10.6306   -0.3760   25.2722 H       1  UNK1        0.0618
     51 H          11.5752    2.4223   22.1571 H       1  UNK1        0.0618
     52 H          11.2877    0.0862   22.9213 H       1  UNK1        0.0618
     53 H           8.0138    7.7557   28.2219 H       2  UNK2        0.1497
     54 H           8.1817    8.8144   31.0142 H       2  UNK2        0.0610
     55 H           7.1203    5.9004   29.3861 H       2  UNK2        0.0621
     56 H           5.4237    9.1336   31.7067 H       2  UNK2        0.0621
     57 H           5.2708    4.4623   30.0541 H       2  UNK2        0.0618
     58 H           3.5737    7.6646   32.3710 H       2  UNK2        0.0618
     59 H           3.4777    5.3150   31.5568 H       2  UNK2        0.0618
@<TRIPOS>BOND
     1     1     2    1
     2     1    34    1
     3     1    35    1
     4     1    36    1
     5     2     3    1
     6     2     5    1
     7     2    37    1
     8     3     4   ar
     9     3     9   ar
    10     5     6    1
    11     5    38    1
    12     5    39    1
    13     6     7    1
    14     6    40    1
    15     6    41    1
    16     7     8    2
    17     7    10   am
    18    10    11    1
    19    10    42    1
    20    11    12    1
    21    11    21    1
    22    11    43    1
    23    12    13    1
    24    12    44    1
    25    12    45    1
    26    13    14    1
    27    14    15    1
    28    14    46    1
    29    14    47    1
    30    15    16   ar
    31    15    17   ar
    32    16    18   ar
    33    16    48    1
    34    17    19   ar
    35    17    49    1
    36    18    20   ar
    37    18    50    1
    38    19    20   ar
    39    19    51    1
    40    20    52    1
    41    21    22    2
    42    21    23   am
    43    23    24    1
    44    23    53    1
    45    24    25    1
    46    24    31    1
    47    24    54    1
    48    25    26   ar
    49    25    27   ar
    50    26    28   ar
    51    26    55    1
    52    27    29   ar
    53    27    56    1
    54    28    30   ar
    55    28    57    1
    56    29    30   ar
    57    29    58    1
    58    30    59    1
    59    31    32   ar
    60    31    33   ar
