@<TRIPOS>MOLECULE
10gs_complex ligand
 59 60 0 0 0
SMALL
GASTEIGER
****
Structure written by MMmdl.
@<TRIPOS>ATOM
      1 N          15.6266   11.1534   22.3589 N.4     1  UNK1        0.2249
      2 C          15.2301   10.3211   23.5123 C.3     1  UNK1        0.0164
      3 C          16.2914    9.2240   23.7476 C.2     1  UNK1        0.0894
      4 O          16.4277    8.7917   24.9130 O.co2   1  UNK1       -0.5442
      5 C          13.8130    9.7297   23.3298 C.3     1  UNK1        0.0039
      6 C          13.2964    8.9869   24.5846 C.3     1  UNK1        0.0294
      7 C          11.7962    8.6955   24.5833 C.2     1  UNK1        0.2138
      8 O          11.0209    9.3329   23.8697 O.2     1  UNK1       -0.2758
      9 O          16.9716    8.8245   22.7773 O.co2   1  UNK1       -0.5442
     10 N          11.3885    7.7275   25.4164 N.am    1  UNK1       -0.3033
     11 C           9.9970    7.4526   25.7574 C.3     1  UNK1        0.1083
     12 C           9.2618    6.6994   24.6320 C.3     1  UNK1        0.0210
     13 S           7.4761    7.0046   24.7867 S.3     1  UNK1       -0.1538
     14 C           6.8861    6.1496   23.2999 C.3     1  UNK1        0.0189
     15 C           5.4542    6.5408   22.9783 C.ar    1  UNK1       -0.0376
     16 C           4.4416    6.4612   23.9616 C.ar    1  UNK1       -0.0578
     17 C           5.1244    6.9766   21.6760 C.ar    1  UNK1       -0.0578
     18 C           3.1171    6.8236   23.6451 C.ar    1  UNK1       -0.0615
     19 C           3.7977    7.3274   21.3591 C.ar    1  UNK1       -0.0615
     20 C           2.7940    7.2529   22.3438 C.ar    1  UNK1       -0.0617
     21 C           9.9422    6.7562   27.1201 C.2     1  UNK1        0.2349
     22 O          10.6595    5.7778   27.3390 O.2     1  UNK1       -0.2737
     23 N           9.0898    7.2732   28.0163 N.am    2  UNK2       -0.3018
     24 C           8.9069    6.8177   29.3888 C.3     2  UNK2        0.0879
     25 C           7.4808    6.4076   29.6275 C.ar    2  UNK2       -0.0217
     26 C           6.3809    6.9550   28.9169 C.ar    2  UNK2       -0.0564
     27 C           7.1929    5.4228   30.6019 C.ar    2  UNK2       -0.0564
     28 C           5.0579    6.5443   29.1763 C.ar    2  UNK2       -0.0614
     29 C           5.8753    5.0106   30.8729 C.ar    2  UNK2       -0.0614
     30 C           4.8028    5.5709   30.1592 C.ar    2  UNK2       -0.0617
     31 C           9.2367    7.9734   30.3576 C.2     2  UNK2        0.0664
     32 O           8.3530    8.8230   30.6250 O.co2   2  UNK2       -0.5475
     33 O          10.4205    8.0237   30.7591 O.co2   2  UNK2       -0.5475
     34 H          16.4900   11.6143   22.6114 H       1  UNK1        0.2001
     35 H          15.7766   10.5649   21.5533 H       1  UNK1        0.2001
     36 H          14.9368   11.8731   22.1489 H       1  UNK1        0.2001
     37 H          15.2266   10.9849   24.3782 H       1  UNK1        0.0915
     38 H          13.7953    9.0568   22.4713 H       1  UNK1        0.0328
     39 H          13.1369   10.5509   23.0870 H       1  UNK1        0.0328
     40 H          13.5000    9.5891   25.4734 H       1  UNK1        0.0360
     41 H          13.8344    8.0482   24.7138 H       1  UNK1        0.0360
     42 H          12.0804    7.2553   25.9842 H       1  UNK1        0.1495
     43 H           9.5162    8.4239   25.8753 H       1  UNK1        0.0603
     44 H           9.5753    7.0600   23.6514 H       1  UNK1        0.0399
     45 H           9.4671    5.6282   24.6647 H       1  UNK1        0.0399
     46 H           7.5321    6.4236   22.4650 H       1  UNK1        0.0425
     47 H           6.9615    5.0718   23.4395 H       1  UNK1        0.0425
     48 H           4.6793    6.1249   24.9603 H       1  UNK1        0.0621
     49 H           5.8854    7.0373   20.9119 H       1  UNK1        0.0621
     50 H           2.3480    6.7670   24.4011 H       1  UNK1        0.0618
     51 H           3.5483    7.6543   20.3604 H       1  UNK1        0.0618
     52 H           1.7769    7.5229   22.0994 H       1  UNK1        0.0618
     53 H           8.5532    8.0834   27.7514 H       2  UNK2        0.1497
     54 H           9.5748    5.9807   29.5913 H       2  UNK2        0.0610
     55 H           6.5399    7.7084   28.1630 H       2  UNK2        0.0621
     56 H           8.0051    4.9773   31.1589 H       2  UNK2        0.0621
     57 H           4.2392    6.9792   28.6238 H       2  UNK2        0.0618
     58 H           5.6879    4.2598   31.6276 H       2  UNK2        0.0618
     59 H           3.7875    5.2566   30.3626 H       2  UNK2        0.0618
@<TRIPOS>BOND
     1     1     2    1
     2     1    34    1
     3     1    35    1
     4     1    36    1
     5     2     3    1
     6     2     5    1
     7     2    37    1
     8     3     4   ar
     9     3     9   ar
    10     5     6    1
    11     5    38    1
    12     5    39    1
    13     6     7    1
    14     6    40    1
    15     6    41    1
    16     7     8    2
    17     7    10   am
    18    10    11    1
    19    10    42    1
    20    11    12    1
    21    11    21    1
    22    11    43    1
    23    12    13    1
    24    12    44    1
    25    12    45    1
    26    13    14    1
    27    14    15    1
    28    14    46    1
    29    14    47    1
    30    15    16   ar
    31    15    17   ar
    32    16    18   ar
    33    16    48    1
    34    17    19   ar
    35    17    49    1
    36    18    20   ar
    37    18    50    1
    38    19    20   ar
    39    19    51    1
    40    20    52    1
    41    21    22    2
    42    21    23   am
    43    23    24    1
    44    23    53    1
    45    24    25    1
    46    24    31    1
    47    24    54    1
    48    25    26   ar
    49    25    27   ar
    50    26    28   ar
    51    26    55    1
    52    27    29   ar
    53    27    56    1
    54    28    30   ar
    55    28    57    1
    56    29    30   ar
    57    29    58    1
    58    30    59    1
    59    31    32   ar
    60    31    33   ar
