@<TRIPOS>MOLECULE
10gs_complex ligand
 59 60 0 0 0
SMALL
GASTEIGER
****
Structure written by MMmdl.
@<TRIPOS>ATOM
      1 N          15.2148   10.8247   22.6251 N.4     1  UNK1        0.2249
      2 C          15.0288   10.1431   23.9205 C.3     1  UNK1        0.0164
      3 C          16.2123    9.1899   24.1542 C.2     1  UNK1        0.0894
      4 O          16.8982    8.8238   23.1735 O.co2   1  UNK1       -0.5442
      5 C          13.6722    9.3975   23.9809 C.3     1  UNK1        0.0039
      6 C          13.3234    8.7932   25.3652 C.3     1  UNK1        0.0294
      7 C          11.9588    8.1118   25.4255 C.2     1  UNK1        0.2138
      8 O          11.2628    8.0011   24.4148 O.2     1  UNK1       -0.2758
      9 O          16.4283    8.8188   25.3264 O.co2   1  UNK1       -0.5442
     10 N          11.5847    7.6431   26.6264 N.am    1  UNK1       -0.3033
     11 C          10.2553    7.1221   26.9291 C.3     1  UNK1        0.1083
     12 C          10.0892    5.6740   26.4049 C.3     1  UNK1        0.0210
     13 S           8.3305    5.2858   26.1375 S.3     1  UNK1       -0.1538
     14 C           8.0251    6.1709   24.5705 C.3     1  UNK1        0.0189
     15 C           6.5461    6.3487   24.2465 C.ar    1  UNK1       -0.0376
     16 C           5.5448    6.3523   25.2462 C.ar    1  UNK1       -0.0578
     17 C           6.1738    6.5833   22.9051 C.ar    1  UNK1       -0.0578
     18 C           4.1978    6.5823   24.9047 C.ar    1  UNK1       -0.0615
     19 C           4.8290    6.8239   22.5646 C.ar    1  UNK1       -0.0615
     20 C           3.8396    6.8240   23.5651 C.ar    1  UNK1       -0.0617
     21 C           9.9219    7.3138   28.4153 C.2     1  UNK1        0.2349
     22 O          10.8007    7.2239   29.2736 O.2     1  UNK1       -0.2737
     23 N           8.6432    7.5967   28.6927 N.am    2  UNK2       -0.3018
     24 C           8.0574    7.8261   30.0113 C.3     2  UNK2        0.0879
     25 C           6.9002    6.8871   30.1576 C.ar    2  UNK2       -0.0217
     26 C           6.8282    6.0114   31.2641 C.ar    2  UNK2       -0.0564
     27 C           5.8570    6.8073   29.1998 C.ar    2  UNK2       -0.0564
     28 C           5.7668    5.0999   31.4205 C.ar    2  UNK2       -0.0614
     29 C           4.7911    5.8986   29.3442 C.ar    2  UNK2       -0.0614
     30 C           4.7442    5.0420   30.4578 C.ar    2  UNK2       -0.0617
     31 C           7.4776    9.2520   30.1349 C.2     2  UNK2        0.0664
     32 O           7.6230   10.0240   29.1596 O.co2   2  UNK2       -0.5475
     33 O           6.9238    9.5780   31.2091 O.co2   2  UNK2       -0.5475
     34 H          16.0955   11.3219   22.6679 H       1  UNK1        0.2001
     35 H          15.2581   10.1417   21.8840 H       1  UNK1        0.2001
     36 H          14.4812   11.5001   22.4505 H       1  UNK1        0.2001
     37 H          15.0505   10.9174   24.6892 H       1  UNK1        0.0915
     38 H          13.6587    8.6120   23.2246 H       1  UNK1        0.0328
     39 H          12.8823   10.0964   23.7007 H       1  UNK1        0.0328
     40 H          13.3524    9.5765   26.1241 H       1  UNK1        0.0360
     41 H          14.0514    8.0403   25.6601 H       1  UNK1        0.0360
     42 H          12.2149    7.7441   27.4130 H       1  UNK1        0.1495
     43 H           9.5627    7.7733   26.3952 H       1  UNK1        0.0603
     44 H          10.6129    5.5215   25.4609 H       1  UNK1        0.0399
     45 H          10.5104    4.9626   27.1163 H       1  UNK1        0.0399
     46 H           8.4760    7.1611   24.5983 H       1  UNK1        0.0425
     47 H           8.5165    5.6240   23.7650 H       1  UNK1        0.0425
     48 H           5.7907    6.1905   26.2842 H       1  UNK1        0.0621
     49 H           6.9246    6.5978   22.1292 H       1  UNK1        0.0621
     50 H           3.4400    6.5830   25.6744 H       1  UNK1        0.0618
     51 H           4.5564    7.0085   21.5358 H       1  UNK1        0.0618
     52 H           2.8071    7.0068   23.3052 H       1  UNK1        0.0618
     53 H           8.0035    7.6876   27.9180 H       2  UNK2        0.1497
     54 H           8.7919    7.6815   30.8056 H       2  UNK2        0.0610
     55 H           7.6068    6.0360   32.0111 H       2  UNK2        0.0621
     56 H           5.8698    7.4604   28.3396 H       2  UNK2        0.0621
     57 H           5.7411    4.4443   32.2783 H       2  UNK2        0.0618
     58 H           4.0091    5.8607   28.6000 H       2  UNK2        0.0618
     59 H           3.9284    4.3437   30.5733 H       2  UNK2        0.0618
@<TRIPOS>BOND
     1     1     2    1
     2     1    34    1
     3     1    35    1
     4     1    36    1
     5     2     3    1
     6     2     5    1
     7     2    37    1
     8     3     4   ar
     9     3     9   ar
    10     5     6    1
    11     5    38    1
    12     5    39    1
    13     6     7    1
    14     6    40    1
    15     6    41    1
    16     7     8    2
    17     7    10   am
    18    10    11    1
    19    10    42    1
    20    11    12    1
    21    11    21    1
    22    11    43    1
    23    12    13    1
    24    12    44    1
    25    12    45    1
    26    13    14    1
    27    14    15    1
    28    14    46    1
    29    14    47    1
    30    15    16   ar
    31    15    17   ar
    32    16    18   ar
    33    16    48    1
    34    17    19   ar
    35    17    49    1
    36    18    20   ar
    37    18    50    1
    38    19    20   ar
    39    19    51    1
    40    20    52    1
    41    21    22    2
    42    21    23   am
    43    23    24    1
    44    23    53    1
    45    24    25    1
    46    24    31    1
    47    24    54    1
    48    25    26   ar
    49    25    27   ar
    50    26    28   ar
    51    26    55    1
    52    27    29   ar
    53    27    56    1
    54    28    30   ar
    55    28    57    1
    56    29    30   ar
    57    29    58    1
    58    30    59    1
    59    31    32   ar
    60    31    33   ar
