@<TRIPOS>MOLECULE
10gs_complex ligand
 59 60 0 0 0
SMALL
GASTEIGER
****
Structure written by MMmdl.
@<TRIPOS>ATOM
      1 N          15.0856   10.8237   22.7683 N.4     1  UNK1        0.2249
      2 C          15.0300   10.0576   24.0359 C.3     1  UNK1        0.0164
      3 C          16.1863    9.0367   24.0804 C.2     1  UNK1        0.0894
      4 O          16.8404    8.8239   23.0363 O.co2   1  UNK1       -0.5442
      5 C          13.6567    9.3588   24.2298 C.3     1  UNK1        0.0039
      6 C          13.3192    9.0559   25.7107 C.3     1  UNK1        0.0294
      7 C          12.0430    8.2405   25.9305 C.2     1  UNK1        0.2138
      8 O          11.2985    7.9460   24.9919 O.2     1  UNK1       -0.2758
      9 O          16.4251    8.4521   25.1598 O.co2   1  UNK1       -0.5442
     10 N          11.8284    7.8526   27.1961 N.am    1  UNK1       -0.3033
     11 C          10.7439    7.0146   27.7047 C.3     1  UNK1        0.1083
     12 C          11.2774    5.6012   28.0262 C.3     1  UNK1        0.0210
     13 S          12.0279    4.8237   26.5735 S.3     1  UNK1       -0.1538
     14 C          10.5398    4.5387   25.5853 C.3     1  UNK1        0.0189
     15 C          10.6166    3.1460   25.0158 C.ar    1  UNK1       -0.0376
     16 C          10.9063    2.9564   23.6513 C.ar    1  UNK1       -0.0578
     17 C          10.4250    2.0328   25.8601 C.ar    1  UNK1       -0.0578
     18 C          10.9906    1.6555   23.1275 C.ar    1  UNK1       -0.0615
     19 C          10.5017    0.7329   25.3306 C.ar    1  UNK1       -0.0615
     20 C          10.7764    0.5512   23.9646 C.ar    1  UNK1       -0.0617
     21 C          10.1208    7.6004   28.9802 C.2     1  UNK1        0.2349
     22 O          10.8281    7.8383   29.9592 O.2     1  UNK1       -0.2737
     23 N           8.7907    7.7442   28.9953 N.am    2  UNK2       -0.3018
     24 C           7.9764    7.9175   30.1999 C.3     2  UNK2        0.0879
     25 C           6.8747    6.9008   30.1572 C.ar    2  UNK2       -0.0217
     26 C           6.6675    6.0207   31.2452 C.ar    2  UNK2       -0.0564
     27 C           6.0223    6.7529   29.0338 C.ar    2  UNK2       -0.0564
     28 C           5.6560    5.0417   31.2246 C.ar    2  UNK2       -0.0614
     29 C           5.0082    5.7755   29.0001 C.ar    2  UNK2       -0.0614
     30 C           4.8244    4.9154   30.0973 C.ar    2  UNK2       -0.0617
     31 C           7.2813    9.2885   30.2804 C.2     2  UNK2        0.0664
     32 O           7.2374    9.9974   29.2470 O.co2   2  UNK2       -0.5475
     33 O           6.8287    9.6243   31.3991 O.co2   2  UNK2       -0.5475
     34 H          15.9894   11.2797   22.7251 H       1  UNK1        0.2001
     35 H          14.9996   10.1941   21.9848 H       1  UNK1        0.2001
     36 H          14.3720   11.5357   22.7363 H       1  UNK1        0.2001
     37 H          15.1865   10.7867   24.8339 H       1  UNK1        0.0915
     38 H          13.6255    8.4317   23.6510 H       1  UNK1        0.0328
     39 H          12.8689    9.9969   23.8259 H       1  UNK1        0.0328
     40 H          13.2287    9.9932   26.2630 H       1  UNK1        0.0360
     41 H          14.1260    8.5013   26.1840 H       1  UNK1        0.0360
     42 H          12.5328    8.0986   27.8835 H       1  UNK1        0.1495
     43 H           9.9583    6.9430   26.9499 H       1  UNK1        0.0603
     44 H          12.0282    5.6328   28.8161 H       1  UNK1        0.0399
     45 H          10.4778    4.9577   28.3968 H       1  UNK1        0.0399
     46 H           9.6400    4.6242   26.1962 H       1  UNK1        0.0425
     47 H          10.4678    5.2888   24.7959 H       1  UNK1        0.0425
     48 H          11.0635    3.8059   23.0050 H       1  UNK1        0.0621
     49 H          10.2186    2.1726   26.9106 H       1  UNK1        0.0621
     50 H          11.2135    1.5017   22.0811 H       1  UNK1        0.0618
     51 H          10.3566   -0.1306   25.9596 H       1  UNK1        0.0618
     52 H          10.8303   -0.4498   23.5619 H       1  UNK1        0.0618
     53 H           8.2777    7.5977   28.1399 H       2  UNK2        0.1497
     54 H           8.5771    7.7921   31.1027 H       2  UNK2        0.0610
     55 H           7.2958    6.0914   32.1206 H       2  UNK2        0.0621
     56 H           6.1391    7.4062   28.1825 H       2  UNK2        0.0621
     57 H           5.5209    4.3834   32.0717 H       2  UNK2        0.0618
     58 H           4.3723    5.6848   28.1302 H       2  UNK2        0.0618
     59 H           4.0469    4.1653   30.0766 H       2  UNK2        0.0618
@<TRIPOS>BOND
     1     1     2    1
     2     1    34    1
     3     1    35    1
     4     1    36    1
     5     2     3    1
     6     2     5    1
     7     2    37    1
     8     3     4   ar
     9     3     9   ar
    10     5     6    1
    11     5    38    1
    12     5    39    1
    13     6     7    1
    14     6    40    1
    15     6    41    1
    16     7     8    2
    17     7    10   am
    18    10    11    1
    19    10    42    1
    20    11    12    1
    21    11    21    1
    22    11    43    1
    23    12    13    1
    24    12    44    1
    25    12    45    1
    26    13    14    1
    27    14    15    1
    28    14    46    1
    29    14    47    1
    30    15    16   ar
    31    15    17   ar
    32    16    18   ar
    33    16    48    1
    34    17    19   ar
    35    17    49    1
    36    18    20   ar
    37    18    50    1
    38    19    20   ar
    39    19    51    1
    40    20    52    1
    41    21    22    2
    42    21    23   am
    43    23    24    1
    44    23    53    1
    45    24    25    1
    46    24    31    1
    47    24    54    1
    48    25    26   ar
    49    25    27   ar
    50    26    28   ar
    51    26    55    1
    52    27    29   ar
    53    27    56    1
    54    28    30   ar
    55    28    57    1
    56    29    30   ar
    57    29    58    1
    58    30    59    1
    59    31    32   ar
    60    31    33   ar
