@<TRIPOS>MOLECULE
10gs_complex ligand
 59 60 0 0 0
SMALL
GASTEIGER
****
Structure written by MMmdl.
@<TRIPOS>ATOM
      1 N          15.1357   10.8237   22.7596 N.4     1  UNK1        0.2249
      2 C          15.1012   10.1040   24.0509 C.3     1  UNK1        0.0164
      3 C          16.3368    9.1762   24.1453 C.2     1  UNK1        0.0894
      4 O          17.2069    9.2159   23.2436 O.co2   1  UNK1       -0.5442
      5 C          13.7588    9.3379   24.2466 C.3     1  UNK1        0.0039
      6 C          13.3912    9.0006   25.7200 C.3     1  UNK1        0.0294
      7 C          12.1631    8.0941   25.8924 C.2     1  UNK1        0.2138
      8 O          11.5268    7.6939   24.9167 O.2     1  UNK1       -0.2758
      9 O          16.4282    8.4240   25.1385 O.co2   1  UNK1       -0.5442
     10 N          11.8560    7.7714   27.1595 N.am    1  UNK1       -0.3033
     11 C          10.7897    6.8816   27.6192 C.3     1  UNK1        0.1083
     12 C          11.3630    5.4579   27.8334 C.3     1  UNK1        0.0210
     13 S          11.2233    4.4244   26.3401 S.3     1  UNK1       -0.1538
     14 C           9.4381    4.0719   26.2514 C.3     1  UNK1        0.0189
     15 C           8.9417    3.3759   27.5073 C.ar    1  UNK1       -0.0376
     16 C           9.3110    2.0430   27.7848 C.ar    1  UNK1       -0.0578
     17 C           8.0963    4.0605   28.4051 C.ar    1  UNK1       -0.0578
     18 C           8.8310    1.4033   28.9457 C.ar    1  UNK1       -0.0615
     19 C           7.6250    3.4197   29.5672 C.ar    1  UNK1       -0.0615
     20 C           7.9901    2.0897   29.8391 C.ar    1  UNK1       -0.0617
     21 C          10.1364    7.4231   28.9052 C.2     1  UNK1        0.2349
     22 O          10.8284    7.6238   29.9040 O.2     1  UNK1       -0.2737
     23 N           8.8104    7.6268   28.9024 N.am    2  UNK2       -0.3018
     24 C           7.9980    7.8819   30.1004 C.3     2  UNK2        0.0879
     25 C           6.7384    7.0770   30.0206 C.ar    2  UNK2       -0.0217
     26 C           6.2692    6.3823   31.1595 C.ar    2  UNK2       -0.0564
     27 C           5.9566    6.9892   28.8404 C.ar    2  UNK2       -0.0564
     28 C           5.0733    5.6398   31.1343 C.ar    2  UNK2       -0.0614
     29 C           4.7672    6.2370   28.8004 C.ar    2  UNK2       -0.0614
     30 C           4.3228    5.5607   29.9489 C.ar    2  UNK2       -0.0617
     31 C           7.4904    9.3289   30.1995 C.2     2  UNK2        0.0664
     32 O           7.1118    9.7255   31.3264 O.co2   2  UNK2       -0.5475
     33 O           7.4914   10.0242   29.1589 O.co2   2  UNK2       -0.5475
     34 H          16.0426   11.2709   22.6930 H       1  UNK1        0.2001
     35 H          15.0357   10.1738   21.9951 H       1  UNK1        0.2001
     36 H          14.4275   11.5445   22.7103 H       1  UNK1        0.2001
     37 H          15.1965   10.8662   24.8265 H       1  UNK1        0.0915
     38 H          13.7820    8.4236   23.6528 H       1  UNK1        0.0328
     39 H          12.9460    9.9354   23.8317 H       1  UNK1        0.0328
     40 H          13.2283    9.9273   26.2724 H       1  UNK1        0.0360
     41 H          14.2089    8.4963   26.2286 H       1  UNK1        0.0360
     42 H          12.4871    8.0912   27.8854 H       1  UNK1        0.1495
     43 H          10.0059    6.8528   26.8606 H       1  UNK1        0.0603
     44 H          12.4142    5.5192   28.1191 H       1  UNK1        0.0399
     45 H          10.8636    4.9434   28.6551 H       1  UNK1        0.0399
     46 H           8.8861    4.9960   26.0814 H       1  UNK1        0.0425
     47 H           9.2476    3.4319   25.3898 H       1  UNK1        0.0425
     48 H           9.9597    1.5101   27.1047 H       1  UNK1        0.0621
     49 H           7.8053    5.0792   28.2054 H       1  UNK1        0.0621
     50 H           9.1178    0.3862   29.1609 H       1  UNK1        0.0618
     51 H           6.9824    3.9426   30.2556 H       1  UNK1        0.0618
     52 H           7.6319    1.5983   30.7320 H       1  UNK1        0.0618
     53 H           8.3047    7.5263   28.0363 H       2  UNK2        0.1497
     54 H           8.5520    7.6418   31.0105 H       2  UNK2        0.0610
     55 H           6.8371    6.4221   32.0762 H       2  UNK2        0.0621
     56 H           6.2626    7.5171   27.9490 H       2  UNK2        0.0621
     57 H           4.7381    5.1245   32.0219 H       2  UNK2        0.0618
     58 H           4.1908    6.1872   27.8888 H       2  UNK2        0.0618
     59 H           3.4083    4.9870   29.9212 H       2  UNK2        0.0618
@<TRIPOS>BOND
     1     1     2    1
     2     1    34    1
     3     1    35    1
     4     1    36    1
     5     2     3    1
     6     2     5    1
     7     2    37    1
     8     3     4   ar
     9     3     9   ar
    10     5     6    1
    11     5    38    1
    12     5    39    1
    13     6     7    1
    14     6    40    1
    15     6    41    1
    16     7     8    2
    17     7    10   am
    18    10    11    1
    19    10    42    1
    20    11    12    1
    21    11    21    1
    22    11    43    1
    23    12    13    1
    24    12    44    1
    25    12    45    1
    26    13    14    1
    27    14    15    1
    28    14    46    1
    29    14    47    1
    30    15    16   ar
    31    15    17   ar
    32    16    18   ar
    33    16    48    1
    34    17    19   ar
    35    17    49    1
    36    18    20   ar
    37    18    50    1
    38    19    20   ar
    39    19    51    1
    40    20    52    1
    41    21    22    2
    42    21    23   am
    43    23    24    1
    44    23    53    1
    45    24    25    1
    46    24    31    1
    47    24    54    1
    48    25    26   ar
    49    25    27   ar
    50    26    28   ar
    51    26    55    1
    52    27    29   ar
    53    27    56    1
    54    28    30   ar
    55    28    57    1
    56    29    30   ar
    57    29    58    1
    58    30    59    1
    59    31    32   ar
    60    31    33   ar
