@<TRIPOS>MOLECULE
10gs_complex ligand
 59 60 0 0 0
SMALL
GASTEIGER
****
Structure written by MMmdl.
@<TRIPOS>ATOM
      1 N          15.0369   10.8236   22.9635 N.4     1  UNK1        0.2249
      2 C          14.9824   10.0024   24.1932 C.3     1  UNK1        0.0164
      3 C          16.1686    9.0129   24.2090 C.2     1  UNK1        0.0894
      4 O          16.4283    8.4375   25.2860 O.co2   1  UNK1       -0.5442
      5 C          13.6182    9.2709   24.3391 C.3     1  UNK1        0.0039
      6 C          13.2979    8.7767   25.7750 C.3     1  UNK1        0.0294
      7 C          12.0095    7.9591   25.9044 C.2     1  UNK1        0.2138
      8 O          11.3884    7.5831   24.9093 O.2     1  UNK1       -0.2758
      9 O          16.8275    8.8240   23.1608 O.co2   1  UNK1       -0.5442
     10 N          11.6361    7.6676   27.1594 N.am    1  UNK1       -0.3033
     11 C          10.4622    6.9062   27.5716 C.3     1  UNK1        0.1083
     12 C          10.8074    5.3970   27.5810 C.3     1  UNK1        0.0210
     13 S           9.4222    4.3866   28.1967 S.3     1  UNK1       -0.1538
     14 C           8.3171    4.3420   26.7531 C.3     1  UNK1        0.0189
     15 C           6.9124    3.9223   27.1587 C.ar    1  UNK1       -0.0376
     16 C           5.8007    4.6558   26.6928 C.ar    1  UNK1       -0.0578
     17 C           6.6999    2.7967   27.9863 C.ar    1  UNK1       -0.0578
     18 C           4.4934    4.2713   27.0495 C.ar    1  UNK1       -0.0615
     19 C           5.3941    2.4244   28.3598 C.ar    1  UNK1       -0.0615
     20 C           4.2897    3.1601   27.8901 C.ar    1  UNK1       -0.0617
     21 C           9.9492    7.4516   28.9135 C.2     1  UNK1        0.2349
     22 O          10.7313    7.6261   29.8512 O.2     1  UNK1       -0.2737
     23 N           8.6325    7.6954   28.9910 N.am    2  UNK2       -0.3018
     24 C           7.8950    8.0724   30.1930 C.3     2  UNK2        0.0879
     25 C           6.7421    7.1210   30.3418 C.ar    2  UNK2       -0.0217
     26 C           5.6011    7.1398   29.4980 C.ar    2  UNK2       -0.0564
     27 C           6.7742    6.1252   31.3451 C.ar    2  UNK2       -0.0564
     28 C           4.5241    6.2542   29.6907 C.ar    2  UNK2       -0.0614
     29 C           5.7140    5.2191   31.5338 C.ar    2  UNK2       -0.0614
     30 C           4.5795    5.2878   30.7087 C.ar    2  UNK2       -0.0617
     31 C           7.2906    9.4883   30.0923 C.2     2  UNK2        0.0664
     32 O           7.2282   10.0238   28.9598 O.co2   2  UNK2       -0.5475
     33 O           6.9153   10.0237   31.1594 O.co2   2  UNK2       -0.5475
     34 H          15.9176   11.3235   22.9675 H       1  UNK1        0.2001
     35 H          15.0015   10.2273   22.1508 H       1  UNK1        0.2001
     36 H          14.2916   11.5057   22.9380 H       1  UNK1        0.2001
     37 H          15.1060   10.6985   25.0245 H       1  UNK1        0.0915
     38 H          13.5863    8.4313   23.6421 H       1  UNK1        0.0328
     39 H          12.8176    9.9450   24.0319 H       1  UNK1        0.0328
     40 H          13.2327    9.6350   26.4456 H       1  UNK1        0.0360
     41 H          14.0933    8.1433   26.1632 H       1  UNK1        0.0360
     42 H          12.2401    7.9736   27.9133 H       1  UNK1        0.1495
     43 H           9.6798    7.0791   26.8311 H       1  UNK1        0.0603
     44 H          11.0895    5.0532   26.5861 H       1  UNK1        0.0399
     45 H          11.6629    5.2225   28.2347 H       1  UNK1        0.0399
     46 H           8.2862    5.3263   26.2867 H       1  UNK1        0.0425
     47 H           8.7109    3.6465   26.0106 H       1  UNK1        0.0425
     48 H           5.9440    5.5142   26.0538 H       1  UNK1        0.0621
     49 H           7.5387    2.2188   28.3440 H       1  UNK1        0.0621
     50 H           3.6455    4.8338   26.6867 H       1  UNK1        0.0618
     51 H           5.2358    1.5684   28.9996 H       1  UNK1        0.0618
     52 H           3.2877    2.8731   28.1706 H       1  UNK1        0.0618
     53 H           8.0708    7.5778   28.1616 H       2  UNK2        0.1497
     54 H           8.5386    8.0404   31.0748 H       2  UNK2        0.0610
     55 H           5.5338    7.8603   28.6963 H       2  UNK2        0.0621
     56 H           7.6282    6.0581   31.9993 H       2  UNK2        0.0621
     57 H           3.6602    6.3090   29.0442 H       2  UNK2        0.0618
     58 H           5.7720    4.4752   32.3139 H       2  UNK2        0.0618
     59 H           3.7610    4.5971   30.8490 H       2  UNK2        0.0618
@<TRIPOS>BOND
     1     1     2    1
     2     1    34    1
     3     1    35    1
     4     1    36    1
     5     2     3    1
     6     2     5    1
     7     2    37    1
     8     3     4   ar
     9     3     9   ar
    10     5     6    1
    11     5    38    1
    12     5    39    1
    13     6     7    1
    14     6    40    1
    15     6    41    1
    16     7     8    2
    17     7    10   am
    18    10    11    1
    19    10    42    1
    20    11    12    1
    21    11    21    1
    22    11    43    1
    23    12    13    1
    24    12    44    1
    25    12    45    1
    26    13    14    1
    27    14    15    1
    28    14    46    1
    29    14    47    1
    30    15    16   ar
    31    15    17   ar
    32    16    18   ar
    33    16    48    1
    34    17    19   ar
    35    17    49    1
    36    18    20   ar
    37    18    50    1
    38    19    20   ar
    39    19    51    1
    40    20    52    1
    41    21    22    2
    42    21    23   am
    43    23    24    1
    44    23    53    1
    45    24    25    1
    46    24    31    1
    47    24    54    1
    48    25    26   ar
    49    25    27   ar
    50    26    28   ar
    51    26    55    1
    52    27    29   ar
    53    27    56    1
    54    28    30   ar
    55    28    57    1
    56    29    30   ar
    57    29    58    1
    58    30    59    1
    59    31    32   ar
    60    31    33   ar
