@<TRIPOS>MOLECULE
10gs_complex ligand
 59 60 0 0 0
SMALL
GASTEIGER
****
Structure written by MMmdl.
@<TRIPOS>ATOM
      1 N          15.2280   10.8238   22.7674 N.4     1  UNK1        0.2249
      2 C          15.1100   10.0539   24.0240 C.3     1  UNK1        0.0164
      3 C          16.2566    9.0245   24.1052 C.2     1  UNK1        0.0894
      4 O          16.4283    8.4250   25.1855 O.co2   1  UNK1       -0.5442
      5 C          13.7178    9.3793   24.1579 C.3     1  UNK1        0.0039
      6 C          13.3932    8.8007   25.5625 C.3     1  UNK1        0.0294
      7 C          12.0067    8.1738   25.6775 C.2     1  UNK1        0.2138
      8 O          11.2898    8.0518   24.6851 O.2     1  UNK1       -0.2758
      9 O          16.9690    8.8237   23.0986 O.co2   1  UNK1       -0.5442
     10 N          11.6363    7.7696   26.9047 N.am    1  UNK1       -0.3033
     11 C          10.2940    7.3090   27.2496 C.3     1  UNK1        0.1083
     12 C          10.0674    5.8407   26.8237 C.3     1  UNK1        0.0210
     13 S           8.3014    5.6012   26.4556 S.3     1  UNK1       -0.1538
     14 C           8.2437    3.8176   26.1579 C.3     1  UNK1        0.0189
     15 C           8.1831    3.0630   27.4745 C.ar    1  UNK1       -0.0376
     16 C           6.9892    3.0664   28.2264 C.ar    1  UNK1       -0.0578
     17 C           9.3028    2.3445   27.9477 C.ar    1  UNK1       -0.0578
     18 C           6.9120    2.3571   29.4412 C.ar    1  UNK1       -0.0615
     19 C           9.2221    1.6294   29.1594 C.ar    1  UNK1       -0.0615
     20 C           8.0283    1.6388   29.9072 C.ar    1  UNK1       -0.0617
     21 C           9.9491    7.5853   28.7200 C.2     1  UNK1        0.2349
     22 O          10.8269    7.6234   29.5859 O.2     1  UNK1       -0.2737
     23 N           8.6442    7.7605   28.9685 N.am    2  UNK2       -0.3018
     24 C           7.9920    7.9310   30.2621 C.3     2  UNK2        0.0879
     25 C           6.8961    6.9116   30.3520 C.ar    2  UNK2       -0.0217
     26 C           6.8280    6.0247   31.4533 C.ar    2  UNK2       -0.0564
     27 C           5.8981    6.7733   29.3534 C.ar    2  UNK2       -0.0564
     28 C           5.8004    5.0694   31.5758 C.ar    2  UNK2       -0.0614
     29 C           4.8655    5.8226   29.4646 C.ar    2  UNK2       -0.0614
     30 C           4.8114    4.9716   30.5826 C.ar    2  UNK2       -0.0617
     31 C           7.2890    9.3031   30.3726 C.2     2  UNK2        0.0664
     32 O           6.8321    9.6239   31.4943 O.co2   2  UNK2       -0.5475
     33 O           7.2362   10.0256   29.3486 O.co2   2  UNK2       -0.5475
     34 H          16.1145   11.3131   22.7976 H       1  UNK1        0.2001
     35 H          15.2288   10.1966   21.9787 H       1  UNK1        0.2001
     36 H          14.4919   11.5147   22.6771 H       1  UNK1        0.2001
     37 H          15.2366   10.7681   24.8383 H       1  UNK1        0.0915
     38 H          13.6288    8.5938   23.4077 H       1  UNK1        0.0328
     39 H          12.9542   10.1154   23.9080 H       1  UNK1        0.0328
     40 H          13.4829    9.5910   26.3107 H       1  UNK1        0.0360
     41 H          14.0900    8.0155   25.8446 H       1  UNK1        0.0360
     42 H          12.2881    7.8668   27.6742 H       1  UNK1        0.1495
     43 H           9.6170    7.9381   26.6666 H       1  UNK1        0.0603
     44 H          10.6275    5.5939   25.9220 H       1  UNK1        0.0399
     45 H          10.3896    5.1509   27.6035 H       1  UNK1        0.0399
     46 H           7.3493    3.6184   25.5665 H       1  UNK1        0.0425
     47 H           9.1007    3.5052   25.5601 H       1  UNK1        0.0425
     48 H           6.1287    3.6152   27.8745 H       1  UNK1        0.0621
     49 H          10.2232    2.3345   27.3831 H       1  UNK1        0.0621
     50 H           5.9968    2.3621   30.0142 H       1  UNK1        0.0618
     51 H          10.0754    1.0887   29.5400 H       1  UNK1        0.0618
     52 H           7.9719    1.1002   30.8413 H       1  UNK1        0.0618
     53 H           8.0168    7.7332   28.1780 H       2  UNK2        0.1497
     54 H           8.7045    7.8291   31.0836 H       2  UNK2        0.0610
     55 H           7.5750    6.0818   32.2287 H       2  UNK2        0.0621
     56 H           5.9105    7.4229   28.4907 H       2  UNK2        0.0621
     57 H           5.7724    4.4135   32.4337 H       2  UNK2        0.0618
     58 H           4.1164    5.7480   28.6921 H       2  UNK2        0.0618
     59 H           4.0199    4.2429   30.6721 H       2  UNK2        0.0618
@<TRIPOS>BOND
     1     1     2    1
     2     1    34    1
     3     1    35    1
     4     1    36    1
     5     2     3    1
     6     2     5    1
     7     2    37    1
     8     3     4   ar
     9     3     9   ar
    10     5     6    1
    11     5    38    1
    12     5    39    1
    13     6     7    1
    14     6    40    1
    15     6    41    1
    16     7     8    2
    17     7    10   am
    18    10    11    1
    19    10    42    1
    20    11    12    1
    21    11    21    1
    22    11    43    1
    23    12    13    1
    24    12    44    1
    25    12    45    1
    26    13    14    1
    27    14    15    1
    28    14    46    1
    29    14    47    1
    30    15    16   ar
    31    15    17   ar
    32    16    18   ar
    33    16    48    1
    34    17    19   ar
    35    17    49    1
    36    18    20   ar
    37    18    50    1
    38    19    20   ar
    39    19    51    1
    40    20    52    1
    41    21    22    2
    42    21    23   am
    43    23    24    1
    44    23    53    1
    45    24    25    1
    46    24    31    1
    47    24    54    1
    48    25    26   ar
    49    25    27   ar
    50    26    28   ar
    51    26    55    1
    52    27    29   ar
    53    27    56    1
    54    28    30   ar
    55    28    57    1
    56    29    30   ar
    57    29    58    1
    58    30    59    1
    59    31    32   ar
    60    31    33   ar
