@<TRIPOS>MOLECULE
10gs_complex ligand
 59 60 0 0 0
SMALL
GASTEIGER
****
Structure written by MMmdl.
@<TRIPOS>ATOM
      1 N          15.0426   10.8237   22.8435 N.4     1  UNK1        0.2249
      2 C          15.0026   10.0224   24.0879 C.3     1  UNK1        0.0164
      3 C          16.1761    9.0180   24.0946 C.2     1  UNK1        0.0894
      4 O          16.8273    8.8240   23.0446 O.co2   1  UNK1       -0.5442
      5 C          13.6345    9.3053   24.2704 C.3     1  UNK1        0.0039
      6 C          13.3191    8.8831   25.7296 C.3     1  UNK1        0.0294
      7 C          12.0604    8.0237   25.8946 C.2     1  UNK1        0.2138
      8 O          11.4510    7.5911   24.9144 O.2     1  UNK1       -0.2758
      9 O          16.4280    8.4245   25.1619 O.co2   1  UNK1       -0.5442
     10 N          11.7023    7.7568   27.1596 N.am    1  UNK1       -0.3033
     11 C          10.6015    6.9049   27.5986 C.3     1  UNK1        0.1083
     12 C          11.1143    5.4346   27.6764 C.3     1  UNK1        0.0210
     13 S           9.8340    4.1762   27.3166 S.3     1  UNK1       -0.1538
     14 C           8.6186    4.5231   28.6081 C.3     1  UNK1        0.0189
     15 C           7.5082    3.5052   28.7033 C.ar    1  UNK1       -0.0376
     16 C           7.4356    2.6420   29.8156 C.ar    1  UNK1       -0.0578
     17 C           6.4601    3.5254   27.7600 C.ar    1  UNK1       -0.0578
     18 C           6.2941    1.8415   30.0105 C.ar    1  UNK1       -0.0615
     19 C           5.3176    2.7302   27.9602 C.ar    1  UNK1       -0.0615
     20 C           5.2276    1.8992   29.0926 C.ar    1  UNK1       -0.0617
     21 C          10.0630    7.4659   28.9339 C.2     1  UNK1        0.2349
     22 O          10.8282    7.6239   29.8868 O.2     1  UNK1       -0.2737
     23 N           8.7477    7.7303   29.0130 N.am    2  UNK2       -0.3018
     24 C           7.9949    7.9389   30.2540 C.3     2  UNK2        0.0879
     25 C           6.8387    6.9827   30.2861 C.ar    2  UNK2       -0.0217
     26 C           5.8559    6.9437   29.2624 C.ar    2  UNK2       -0.0564
     27 C           6.6829    6.0763   31.3627 C.ar    2  UNK2       -0.0564
     28 C           4.7573    6.0665   29.3266 C.ar    2  UNK2       -0.0614
     29 C           5.5894    5.1940   31.4360 C.ar    2  UNK2       -0.0614
     30 C           4.6197    5.1918   30.4185 C.ar    2  UNK2       -0.0617
     31 C           7.3463    9.3292   30.3593 C.2     2  UNK2        0.0664
     32 O           6.8396    9.6253   31.4663 O.co2   2  UNK2       -0.5475
     33 O           7.3595   10.0690   29.3468 O.co2   2  UNK2       -0.5475
     34 H          15.9324   11.3074   22.8164 H       1  UNK1        0.2001
     35 H          14.9790   10.2152   22.0417 H       1  UNK1        0.2001
     36 H          14.3075   11.5177   22.8249 H       1  UNK1        0.2001
     37 H          15.1508   10.7294   24.9068 H       1  UNK1        0.0915
     38 H          13.5950    8.4332   23.6145 H       1  UNK1        0.0328
     39 H          12.8329    9.9651   23.9328 H       1  UNK1        0.0328
     40 H          13.2297    9.7732   26.3546 H       1  UNK1        0.0360
     41 H          14.1320    8.2980   26.1554 H       1  UNK1        0.0360
     42 H          12.2934    8.1111   27.9005 H       1  UNK1        0.1495
     43 H           9.8083    6.9652   26.8507 H       1  UNK1        0.0603
     44 H          11.9038    5.2732   26.9421 H       1  UNK1        0.0399
     45 H          11.5613    5.2289   28.6512 H       1  UNK1        0.0399
     46 H           9.1123    4.6539   29.5687 H       1  UNK1        0.0425
     47 H           8.1308    5.4507   28.3438 H       1  UNK1        0.0425
     48 H           8.2264    2.6342   30.5518 H       1  UNK1        0.0621
     49 H           6.5037    4.1936   26.9125 H       1  UNK1        0.0621
     50 H           6.2257    1.2016   30.8776 H       1  UNK1        0.0618
     51 H           4.5007    2.7756   27.2546 H       1  UNK1        0.0618
     52 H           4.3464    1.2925   29.2493 H       1  UNK1        0.0618
     53 H           8.1934    7.6622   28.1738 H       2  UNK2        0.1497
     54 H           8.6353    7.7997   31.1283 H       2  UNK2        0.0610
     55 H           5.9313    7.6170   28.4187 H       2  UNK2        0.0621
     56 H           7.4092    6.0641   32.1611 H       2  UNK2        0.0621
     57 H           4.0179    6.0660   28.5398 H       2  UNK2        0.0618
     58 H           5.4953    4.5191   32.2731 H       2  UNK2        0.0618
     59 H           3.7812    4.5147   30.4715 H       2  UNK2        0.0618
@<TRIPOS>BOND
     1     1     2    1
     2     1    34    1
     3     1    35    1
     4     1    36    1
     5     2     3    1
     6     2     5    1
     7     2    37    1
     8     3     4   ar
     9     3     9   ar
    10     5     6    1
    11     5    38    1
    12     5    39    1
    13     6     7    1
    14     6    40    1
    15     6    41    1
    16     7     8    2
    17     7    10   am
    18    10    11    1
    19    10    42    1
    20    11    12    1
    21    11    21    1
    22    11    43    1
    23    12    13    1
    24    12    44    1
    25    12    45    1
    26    13    14    1
    27    14    15    1
    28    14    46    1
    29    14    47    1
    30    15    16   ar
    31    15    17   ar
    32    16    18   ar
    33    16    48    1
    34    17    19   ar
    35    17    49    1
    36    18    20   ar
    37    18    50    1
    38    19    20   ar
    39    19    51    1
    40    20    52    1
    41    21    22    2
    42    21    23   am
    43    23    24    1
    44    23    53    1
    45    24    25    1
    46    24    31    1
    47    24    54    1
    48    25    26   ar
    49    25    27   ar
    50    26    28   ar
    51    26    55    1
    52    27    29   ar
    53    27    56    1
    54    28    30   ar
    55    28    57    1
    56    29    30   ar
    57    29    58    1
    58    30    59    1
    59    31    32   ar
    60    31    33   ar
