@<TRIPOS>MOLECULE
10gs_complex ligand
 59 60 0 0 0
SMALL
GASTEIGER
****
Structure written by MMmdl.
@<TRIPOS>ATOM
      1 N          15.1571   10.8239   22.7592 N.4     1  UNK1        0.2249
      2 C          15.1163   10.1096   24.0542 C.3     1  UNK1        0.0164
      3 C          16.3498    9.1808   24.1609 C.2     1  UNK1        0.0894
      4 O          17.2275    9.2227   23.2681 O.co2   1  UNK1       -0.5442
      5 C          13.7746    9.3447   24.2415 C.3     1  UNK1        0.0039
      6 C          13.3966    9.0344   25.7159 C.3     1  UNK1        0.0294
      7 C          12.1780    8.1174   25.8913 C.2     1  UNK1        0.2138
      8 O          11.6270    7.5928   24.9217 O.2     1  UNK1       -0.2758
      9 O          16.4281    8.4240   25.1536 O.co2   1  UNK1       -0.5442
     10 N          11.7892    7.9130   27.1596 N.am    1  UNK1       -0.3033
     11 C          10.7254    7.0218   27.6167 C.3     1  UNK1        0.1083
     12 C          11.2885    5.5849   27.7177 C.3     1  UNK1        0.0210
     13 S          10.0483    4.4120   28.3592 S.3     1  UNK1       -0.1538
     14 C           9.0023    4.1335   26.9073 C.3     1  UNK1        0.0189
     15 C           9.7745    3.3374   25.8770 C.ar    1  UNK1       -0.0376
     16 C          10.1343    2.0006   26.1494 C.ar    1  UNK1       -0.0578
     17 C          10.1386    3.9233   24.6481 C.ar    1  UNK1       -0.0578
     18 C          10.8282    1.2424   25.1871 C.ar    1  UNK1       -0.0615
     19 C          10.8447    3.1681   23.6945 C.ar    1  UNK1       -0.0615
     20 C          11.1844    1.8269   23.9576 C.ar    1  UNK1       -0.0617
     21 C          10.1227    7.5232   28.9412 C.2     1  UNK1        0.2349
     22 O          10.8292    7.6276   29.9438 O.2     1  UNK1       -0.2737
     23 N           8.8039    7.7580   28.9578 N.am    2  UNK2       -0.3018
     24 C           7.9859    7.9228   30.1595 C.3     2  UNK2        0.0879
     25 C           6.8972    6.8980   30.1018 C.ar    2  UNK2       -0.0217
     26 C           6.6922    6.0073   31.1797 C.ar    2  UNK2       -0.0564
     27 C           6.0589    6.7427   28.9674 C.ar    2  UNK2       -0.0564
     28 C           5.6983    5.0107   31.1411 C.ar    2  UNK2       -0.0614
     29 C           5.0640    5.7486   28.9170 C.ar    2  UNK2       -0.0614
     30 C           4.8808    4.8791   30.0051 C.ar    2  UNK2       -0.0617
     31 C           7.2827    9.2915   30.2445 C.2     2  UNK2        0.0664
     32 O           7.2292    9.9991   29.2098 O.co2   2  UNK2       -0.5475
     33 O           6.8284    9.6236   31.3646 O.co2   2  UNK2       -0.5475
     34 H          16.0502   11.2952   22.7057 H       1  UNK1        0.2001
     35 H          15.0912   10.1697   21.9960 H       1  UNK1        0.2001
     36 H          14.4278   11.5211   22.6958 H       1  UNK1        0.2001
     37 H          15.2093   10.8733   24.8260 H       1  UNK1        0.0915
     38 H          13.8075    8.4240   23.6595 H       1  UNK1        0.0328
     39 H          12.9653    9.9341   23.8077 H       1  UNK1        0.0328
     40 H          13.2282    9.9704   26.2466 H       1  UNK1        0.0360
     41 H          14.2130    8.5438   26.2411 H       1  UNK1        0.0360
     42 H          12.3429    8.3345   27.8930 H       1  UNK1        0.1495
     43 H           9.9324    7.0337   26.8683 H       1  UNK1        0.0603
     44 H          11.6633    5.2386   26.7553 H       1  UNK1        0.0399
     45 H          12.1345    5.5753   28.4048 H       1  UNK1        0.0399
     46 H           8.1149    3.5740   27.2060 H       1  UNK1        0.0425
     47 H           8.6587    5.0838   26.4994 H       1  UNK1        0.0425
     48 H           9.8665    1.5502   27.0952 H       1  UNK1        0.0621
     49 H           9.8781    4.9501   24.4331 H       1  UNK1        0.0621
     50 H          11.0867    0.2131   25.3954 H       1  UNK1        0.0618
     51 H          11.1274    3.6224   22.7596 H       1  UNK1        0.0618
     52 H          11.7192    1.2479   23.2192 H       1  UNK1        0.0618
     53 H           8.2951    7.7005   28.0896 H       2  UNK2        0.1497
     54 H           8.5846    7.7986   31.0626 H       2  UNK2        0.0610
     55 H           7.3128    6.0846   32.0618 H       2  UNK2        0.0621
     56 H           6.1788    7.4015   28.1193 H       2  UNK2        0.0621
     57 H           5.5640    4.3490   31.9828 H       2  UNK2        0.0618
     58 H           4.4384    5.6588   28.0406 H       2  UNK2        0.0618
     59 H           4.1156    4.1178   29.9696 H       2  UNK2        0.0618
@<TRIPOS>BOND
     1     1     2    1
     2     1    34    1
     3     1    35    1
     4     1    36    1
     5     2     3    1
     6     2     5    1
     7     2    37    1
     8     3     4   ar
     9     3     9   ar
    10     5     6    1
    11     5    38    1
    12     5    39    1
    13     6     7    1
    14     6    40    1
    15     6    41    1
    16     7     8    2
    17     7    10   am
    18    10    11    1
    19    10    42    1
    20    11    12    1
    21    11    21    1
    22    11    43    1
    23    12    13    1
    24    12    44    1
    25    12    45    1
    26    13    14    1
    27    14    15    1
    28    14    46    1
    29    14    47    1
    30    15    16   ar
    31    15    17   ar
    32    16    18   ar
    33    16    48    1
    34    17    19   ar
    35    17    49    1
    36    18    20   ar
    37    18    50    1
    38    19    20   ar
    39    19    51    1
    40    20    52    1
    41    21    22    2
    42    21    23   am
    43    23    24    1
    44    23    53    1
    45    24    25    1
    46    24    31    1
    47    24    54    1
    48    25    26   ar
    49    25    27   ar
    50    26    28   ar
    51    26    55    1
    52    27    29   ar
    53    27    56    1
    54    28    30   ar
    55    28    57    1
    56    29    30   ar
    57    29    58    1
    58    30    59    1
    59    31    32   ar
    60    31    33   ar
