BACE_61.smi:1
 OpenBabel09301811243D
Structure written by MMmdl.
 87 89  0  0  1  0  0  0  0  0999 V2000
   21.2445   40.8329   -5.4012 C   0  0  0  0  0  0  0  0  0  0  0  0
   22.3423   40.4853   -6.2331 O   0  0  0  0  0  0  0  0  0  0  0  0
   22.2441   39.1850   -6.7979 C   0  0  0  0  0  0  0  0  0  0  0  0
   21.1779   39.0768   -7.8633 C   0  0  0  0  0  0  0  0  0  0  0  0
   19.9037   38.5502   -7.5709 C   0  0  0  0  0  0  0  0  0  0  0  0
   18.9217   38.4516   -8.5775 C   0  0  0  0  0  0  0  0  0  0  0  0
   19.2264   38.9194   -9.8813 C   0  0  0  0  0  0  0  0  0  0  0  0
   20.4851   39.5014  -10.1577 C   0  0  0  0  0  0  0  0  0  0  0  0
   21.4711   39.5258   -9.1576 C   0  0  0  0  0  0  0  0  0  0  0  0
   20.7813   40.0833  -11.5043 C   0  0  0  0  0  0  0  0  0  0  0  0
   20.8599   39.3500  -12.4832 O   0  0  0  0  0  0  0  0  0  0  0  0
   20.9695   41.4125  -11.6277 N   0  0  0  0  0  0  0  0  0  0  0  0
   20.9659   42.5368  -10.6710 C   0  0  1  0  0  0  0  0  0  0  0  0
   19.7819   42.5602   -9.6724 C   0  0  0  0  0  0  0  0  0  0  0  0
   18.3649   42.4757  -10.2781 C   0  0  2  0  0  0  0  0  0  0  0  0
   18.0233   43.7331  -11.1020 C   0  0  0  0  0  0  0  0  0  0  0  0
   17.3597   42.2293   -9.1342 C   0  0  0  0  0  0  0  0  0  0  0  0
   15.8972   42.0825   -9.5809 C   0  0  0  0  0  0  0  0  0  0  0  0
   14.9510   41.6500   -8.4507 C   0  0  0  0  0  0  0  0  0  0  0  0
   15.1662   40.2443   -7.8399 C   0  0  0  0  0  0  0  0  0  0  0  0
   14.7375   39.0604   -8.7310 C   0  0  0  0  0  0  0  0  0  0  0  0
   15.7958   38.5629   -9.7360 C   0  0  0  0  0  0  0  0  0  0  0  0
   16.7202   37.4486   -9.2164 C   0  0  0  0  0  0  0  0  0  0  0  0
   17.6763   37.9074   -8.2233 N   0  0  0  0  0  0  0  0  0  0  0  0
   22.3359   42.7548   -9.9688 C   0  0  2  0  0  0  0  0  0  0  0  0
   22.3785   44.0739   -9.4613 O   0  0  0  0  0  0  0  0  0  0  0  0
   23.5596   42.6046  -10.9026 C   0  0  0  0  0  0  0  0  0  0  0  0
   24.3358   41.3833  -10.6052 N   0  3  0  0  0  0  0  0  0  0  0  0
   25.4374   41.5202   -9.6400 C   0  0  0  0  0  0  0  0  0  0  0  0
   26.5376   42.4437  -10.1339 C   0  0  0  0  0  0  0  0  0  0  0  0
   27.4930   41.9772  -11.0604 C   0  0  0  0  0  0  0  0  0  0  0  0
   28.5091   42.8436  -11.5328 C   0  0  0  0  0  0  0  0  0  0  0  0
   28.5427   44.1722  -11.0674 C   0  0  0  0  0  0  0  0  0  0  0  0
   27.6063   44.6506  -10.1310 C   0  0  0  0  0  0  0  0  0  0  0  0
   26.6025   43.7703   -9.6616 C   0  0  0  0  0  0  0  0  0  0  0  0
   27.7327   45.9640   -9.7335 O   0  0  0  0  0  0  0  0  0  0  0  0
   26.7973   46.4733   -8.7932 C   0  0  0  0  0  0  0  0  0  0  0  0
   29.4829   42.4786  -12.4360 O   0  0  0  0  0  0  0  0  0  0  0  0
   29.6552   41.0965  -12.7013 C   0  0  0  0  0  0  0  0  0  0  0  0
   20.8394   43.4003  -11.3241 H   0  0  0  0  0  0  0  0  0  0  0  0
   18.3144   41.6139  -10.9443 H   0  0  0  0  0  0  0  0  0  0  0  0
   22.4320   42.1006   -9.1025 H   0  0  0  0  0  0  0  0  0  0  0  0
   21.4270   41.8058   -4.9443 H   0  0  0  0  0  0  0  0  0  0  0  0
   21.1112   40.1074   -4.5981 H   0  0  0  0  0  0  0  0  0  0  0  0
   20.3152   40.9024   -5.9670 H   0  0  0  0  0  0  0  0  0  0  0  0
   23.2077   38.9530   -7.2518 H   0  0  0  0  0  0  0  0  0  0  0  0
   22.0748   38.4277   -6.0399 H   0  0  0  0  0  0  0  0  0  0  0  0
   19.6826   38.2120   -6.5680 H   0  0  0  0  0  0  0  0  0  0  0  0
   18.4930   38.8713  -10.6722 H   0  0  0  0  0  0  0  0  0  0  0  0
   22.4542   39.9063   -9.3676 H   0  0  0  0  0  0  0  0  0  0  0  0
   21.1580   41.6892  -12.5793 H   0  0  0  0  0  0  0  0  0  0  0  0
   19.9126   41.7676   -8.9376 H   0  0  0  0  0  0  0  0  0  0  0  0
   19.8327   43.4762   -9.0836 H   0  0  0  0  0  0  0  0  0  0  0  0
   18.0317   44.6289  -10.4804 H   0  0  0  0  0  0  0  0  0  0  0  0
   17.0395   43.6558  -11.5626 H   0  0  0  0  0  0  0  0  0  0  0  0
   18.7295   43.8848  -11.9171 H   0  0  0  0  0  0  0  0  0  0  0  0
   17.6623   41.3201   -8.6154 H   0  0  0  0  0  0  0  0  0  0  0  0
   17.4281   43.0285   -8.3954 H   0  0  0  0  0  0  0  0  0  0  0  0
   15.5467   43.0472   -9.9453 H   0  0  0  0  0  0  0  0  0  0  0  0
   15.8109   41.4084  -10.4301 H   0  0  0  0  0  0  0  0  0  0  0  0
   15.0138   42.3816   -7.6431 H   0  0  0  0  0  0  0  0  0  0  0  0
   13.9375   41.7230   -8.8401 H   0  0  0  0  0  0  0  0  0  0  0  0
   16.1844   40.1127   -7.4764 H   0  0  0  0  0  0  0  0  0  0  0  0
   14.5487   40.1978   -6.9406 H   0  0  0  0  0  0  0  0  0  0  0  0
   14.4438   38.2265   -8.0920 H   0  0  0  0  0  0  0  0  0  0  0  0
   13.8278   39.3371   -9.2661 H   0  0  0  0  0  0  0  0  0  0  0  0
   15.2601   38.1503  -10.5855 H   0  0  0  0  0  0  0  0  0  0  0  0
   16.3838   39.3819  -10.1373 H   0  0  0  0  0  0  0  0  0  0  0  0
   16.1210   36.6555   -8.7683 H   0  0  0  0  0  0  0  0  0  0  0  0
   17.2594   36.9856  -10.0422 H   0  0  0  0  0  0  0  0  0  0  0  0
   17.4960   37.6108   -7.2686 H   0  0  0  0  0  0  0  0  0  0  0  0
   21.7079   44.1690   -8.8003 H   0  0  0  0  0  0  0  0  0  0  0  0
   23.2473   42.5520  -11.9454 H   0  0  0  0  0  0  0  0  0  0  0  0
   24.2018   43.4843  -10.8679 H   0  0  0  0  0  0  0  0  0  0  0  0
   23.7095   40.6589  -10.2893 H   0  0  0  0  0  0  0  0  0  0  0  0
   25.0323   41.8688   -8.6898 H   0  0  0  0  0  0  0  0  0  0  0  0
   25.8599   40.5306   -9.4718 H   0  0  0  0  0  0  0  0  0  0  0  0
   27.4318   40.9521  -11.3982 H   0  0  0  0  0  0  0  0  0  0  0  0
   29.3136   44.8380  -11.4283 H   0  0  0  0  0  0  0  0  0  0  0  0
   25.8628   44.0985   -8.9470 H   0  0  0  0  0  0  0  0  0  0  0  0
   27.0287   47.5178   -8.5827 H   0  0  0  0  0  0  0  0  0  0  0  0
   26.8443   45.9296   -7.8489 H   0  0  0  0  0  0  0  0  0  0  0  0
   25.7795   46.4344   -9.1846 H   0  0  0  0  0  0  0  0  0  0  0  0
   30.5228   40.9539  -13.3444 H   0  0  0  0  0  0  0  0  0  0  0  0
   28.8033   40.6705  -13.2261 H   0  0  0  0  0  0  0  0  0  0  0  0
   29.8195   40.5471  -11.7739 H   0  0  0  0  0  0  0  0  0  0  0  0
   24.7248   41.0673  -11.4860 H   0  0  0  0  0  0  0  0  0  0  0  0
  1  2  1  0  0  0  0
  1 43  1  0  0  0  0
  1 44  1  0  0  0  0
  1 45  1  0  0  0  0
  2  3  1  0  0  0  0
  3  4  1  0  0  0  0
  3 46  1  0  0  0  0
  3 47  1  0  0  0  0
  4  9  1  0  0  0  0
  4  5  2  0  0  0  0
  5  6  1  0  0  0  0
  5 48  1  0  0  0  0
  6 24  1  0  0  0  0
  6  7  2  0  0  0  0
  7  8  1  0  0  0  0
  7 49  1  0  0  0  0
  8  9  2  0  0  0  0
  8 10  1  0  0  0  0
  9 50  1  0  0  0  0
 10 11  2  0  0  0  0
 10 12  1  0  0  0  0
 12 13  1  0  0  0  0
 12 51  1  0  0  0  0
 13 40  1  6  0  0  0
 13 14  1  0  0  0  0
 13 25  1  0  0  0  0
 14 15  1  0  0  0  0
 14 52  1  0  0  0  0
 14 53  1  0  0  0  0
 15 41  1  6  0  0  0
 15 16  1  0  0  0  0
 15 17  1  0  0  0  0
 16 54  1  0  0  0  0
 16 55  1  0  0  0  0
 16 56  1  0  0  0  0
 17 18  1  0  0  0  0
 17 57  1  0  0  0  0
 17 58  1  0  0  0  0
 18 19  1  0  0  0  0
 18 59  1  0  0  0  0
 18 60  1  0  0  0  0
 19 20  1  0  0  0  0
 19 61  1  0  0  0  0
 19 62  1  0  0  0  0
 20 21  1  0  0  0  0
 20 63  1  0  0  0  0
 20 64  1  0  0  0  0
 21 22  1  0  0  0  0
 21 65  1  0  0  0  0
 21 66  1  0  0  0  0
 22 23  1  0  0  0  0
 22 67  1  0  0  0  0
 22 68  1  0  0  0  0
 23 24  1  0  0  0  0
 23 69  1  0  0  0  0
 23 70  1  0  0  0  0
 24 71  1  0  0  0  0
 25 42  1  1  0  0  0
 25 26  1  0  0  0  0
 25 27  1  0  0  0  0
 26 72  1  0  0  0  0
 27 28  1  0  0  0  0
 27 73  1  0  0  0  0
 27 74  1  0  0  0  0
 28 29  1  0  0  0  0
 28 75  1  0  0  0  0
 28 87  1  0  0  0  0
 29 30  1  0  0  0  0
 29 76  1  0  0  0  0
 29 77  1  0  0  0  0
 30 35  1  0  0  0  0
 30 31  2  0  0  0  0
 31 32  1  0  0  0  0
 31 78  1  0  0  0  0
 32 33  2  0  0  0  0
 32 38  1  0  0  0  0
 33 34  1  0  0  0  0
 33 79  1  0  0  0  0
 34 35  2  0  0  0  0
 34 36  1  0  0  0  0
 35 80  1  0  0  0  0
 36 37  1  0  0  0  0
 37 81  1  0  0  0  0
 37 82  1  0  0  0  0
 37 83  1  0  0  0  0
 38 39  1  0  0  0  0
 39 84  1  0  0  0  0
 39 85  1  0  0  0  0
 39 86  1  0  0  0  0
M  CHG  1  28   1
M  END
