BACE_117.smi:1
 OpenBabel09301811243D
Structure written by MMmdl.
 92 95  0  0  1  0  0  0  0  0999 V2000
   20.0131   42.4362   -1.6263 C   0  0  0  0  0  0  0  0  0  0  0  0
   21.2517   42.1057   -2.2325 O   0  0  0  0  0  0  0  0  0  0  0  0
   21.1290   41.8022   -3.6137 C   0  0  0  0  0  0  0  0  0  0  0  0
   21.2484   43.0490   -4.4784 C   0  0  0  0  0  0  0  0  0  0  0  0
   22.4383   43.8033   -4.4595 C   0  0  0  0  0  0  0  0  0  0  0  0
   22.5657   44.9588   -5.2575 C   0  0  0  0  0  0  0  0  0  0  0  0
   21.4703   45.3629   -6.0553 C   0  0  0  0  0  0  0  0  0  0  0  0
   20.2885   44.5962   -6.1049 C   0  0  0  0  0  0  0  0  0  0  0  0
   20.1764   43.4376   -5.3051 C   0  0  0  0  0  0  0  0  0  0  0  0
   19.1743   45.0292   -7.0071 C   0  0  0  0  0  0  0  0  0  0  0  0
   18.8549   46.2040   -7.0864 O   0  0  0  0  0  0  0  0  0  0  0  0
   18.6451   44.0571   -7.7572 N   0  0  0  0  0  0  0  0  0  0  0  0
   17.6919   44.2494   -8.8430 C   0  0  1  0  0  0  0  0  0  0  0  0
   18.3658   44.1855  -10.2307 C   0  0  0  0  0  0  0  0  0  0  0  0
   19.4841   45.2008  -10.4283 C   0  0  0  0  0  0  0  0  0  0  0  0
   20.8362   44.8075  -10.3240 C   0  0  0  0  0  0  0  0  0  0  0  0
   21.8814   45.7407  -10.4868 C   0  0  0  0  0  0  0  0  0  0  0  0
   21.5532   47.0876  -10.7782 C   0  0  0  0  0  0  0  0  0  0  0  0
   20.2065   47.4839  -10.8907 C   0  0  0  0  0  0  0  0  0  0  0  0
   19.1731   46.5450  -10.7156 C   0  0  0  0  0  0  0  0  0  0  0  0
   23.1679   45.2611  -10.3542 O   0  0  0  0  0  0  0  0  0  0  0  0
   24.2595   46.1744  -10.2306 C   0  0  0  0  0  0  0  0  0  0  0  0
   24.2726   46.8764   -8.8586 C   0  0  0  0  0  0  0  0  0  0  0  0
   24.2962   45.8887   -7.6822 C   0  0  0  0  0  0  0  0  0  0  0  0
   24.1166   46.5883   -6.3213 C   0  0  0  0  0  0  0  0  0  0  0  0
   23.7872   45.6518   -5.2501 N   0  0  0  0  0  0  0  0  0  0  0  0
   16.6346   43.1528   -8.7518 C   0  0  2  0  0  0  0  0  0  0  0  0
   15.3843   43.7092   -8.3862 O   0  0  0  0  0  0  0  0  0  0  0  0
   16.9823   42.0402   -7.7382 C   0  0  0  0  0  0  0  0  0  0  0  0
   15.7696   41.2729   -7.3549 N   0  3  0  0  0  0  0  0  0  0  0  0
   15.5340   39.9316   -7.9668 C   0  0  0  0  0  0  0  0  0  0  0  0
   14.6787   39.0272   -7.0476 C   0  0  0  0  0  0  0  0  0  0  0  0
   14.8181   40.0878   -9.3307 C   0  0  0  0  0  0  0  0  0  0  0  0
   16.9013   39.2850   -8.1589 C   0  0  0  0  0  0  0  0  0  0  0  0
   18.2002   39.7917   -7.8509 C   0  0  0  0  0  0  0  0  0  0  0  0
   19.0529   38.7879   -8.2175 C   0  0  0  0  0  0  0  0  0  0  0  0
   20.5458   38.6450   -8.1562 C   0  0  0  0  0  0  0  0  0  0  0  0
   21.3902   39.9524   -8.2428 C   0  0  0  0  0  0  0  0  0  0  0  0
   21.5795   40.3172   -9.7314 C   0  0  0  0  0  0  0  0  0  0  0  0
   20.6498   41.1178   -7.5500 C   0  0  0  0  0  0  0  0  0  0  0  0
   22.7867   39.7866   -7.6000 C   0  0  0  0  0  0  0  0  0  0  0  0
   18.3468   37.7348   -8.7001 O   0  0  0  0  0  0  0  0  0  0  0  0
   16.9863   38.0569   -8.6584 N   0  0  0  0  0  0  0  0  0  0  0  0
   17.1591   45.1937   -8.7305 H   0  0  0  0  0  0  0  0  0  0  0  0
   16.5250   42.6923   -9.7353 H   0  0  0  0  0  0  0  0  0  0  0  0
   20.1716   42.6568   -0.5706 H   0  0  0  0  0  0  0  0  0  0  0  0
   19.3048   41.6091   -1.6917 H   0  0  0  0  0  0  0  0  0  0  0  0
   19.5666   43.3179   -2.0880 H   0  0  0  0  0  0  0  0  0  0  0  0
   20.1714   41.3126   -3.7989 H   0  0  0  0  0  0  0  0  0  0  0  0
   21.9105   41.1020   -3.9134 H   0  0  0  0  0  0  0  0  0  0  0  0
   23.2553   43.4758   -3.8337 H   0  0  0  0  0  0  0  0  0  0  0  0
   21.5269   46.2441   -6.6771 H   0  0  0  0  0  0  0  0  0  0  0  0
   19.2715   42.8481   -5.3161 H   0  0  0  0  0  0  0  0  0  0  0  0
   19.0045   43.1231   -7.6209 H   0  0  0  0  0  0  0  0  0  0  0  0
   18.7600   43.1836  -10.4008 H   0  0  0  0  0  0  0  0  0  0  0  0
   17.6141   44.3412  -11.0046 H   0  0  0  0  0  0  0  0  0  0  0  0
   21.0801   43.7790  -10.1024 H   0  0  0  0  0  0  0  0  0  0  0  0
   22.3148   47.8399  -10.9210 H   0  0  0  0  0  0  0  0  0  0  0  0
   19.9660   48.5135  -11.1110 H   0  0  0  0  0  0  0  0  0  0  0  0
   18.1441   46.8619  -10.8001 H   0  0  0  0  0  0  0  0  0  0  0  0
   25.1771   45.5960  -10.3385 H   0  0  0  0  0  0  0  0  0  0  0  0
   24.2750   46.8932  -11.0498 H   0  0  0  0  0  0  0  0  0  0  0  0
   25.1372   47.5368   -8.7921 H   0  0  0  0  0  0  0  0  0  0  0  0
   23.3979   47.5213   -8.7750 H   0  0  0  0  0  0  0  0  0  0  0  0
   23.5269   45.1284   -7.8171 H   0  0  0  0  0  0  0  0  0  0  0  0
   25.2469   45.3562   -7.7087 H   0  0  0  0  0  0  0  0  0  0  0  0
   25.0367   47.1108   -6.0596 H   0  0  0  0  0  0  0  0  0  0  0  0
   23.3494   47.3605   -6.3779 H   0  0  0  0  0  0  0  0  0  0  0  0
   24.5507   45.2768   -4.7056 H   0  0  0  0  0  0  0  0  0  0  0  0
   15.2862   43.6363   -7.4492 H   0  0  0  0  0  0  0  0  0  0  0  0
   17.6985   41.3586   -8.1957 H   0  0  0  0  0  0  0  0  0  0  0  0
   17.4616   42.4718   -6.8604 H   0  0  0  0  0  0  0  0  0  0  0  0
   15.7921   41.1481   -6.3529 H   0  0  0  0  0  0  0  0  0  0  0  0
   13.6570   39.3923   -6.9417 H   0  0  0  0  0  0  0  0  0  0  0  0
   15.1023   38.9478   -6.0455 H   0  0  0  0  0  0  0  0  0  0  0  0
   14.6064   38.0158   -7.4499 H   0  0  0  0  0  0  0  0  0  0  0  0
   13.8159   40.5031   -9.2283 H   0  0  0  0  0  0  0  0  0  0  0  0
   14.6951   39.1263   -9.8308 H   0  0  0  0  0  0  0  0  0  0  0  0
   15.3738   40.7423  -10.0040 H   0  0  0  0  0  0  0  0  0  0  0  0
   18.4754   40.7454   -7.4252 H   0  0  0  0  0  0  0  0  0  0  0  0
   20.7750   38.1446   -7.2143 H   0  0  0  0  0  0  0  0  0  0  0  0
   20.8689   37.9421   -8.9254 H   0  0  0  0  0  0  0  0  0  0  0  0
   22.1325   39.5459  -10.2691 H   0  0  0  0  0  0  0  0  0  0  0  0
   22.1325   41.2500   -9.8504 H   0  0  0  0  0  0  0  0  0  0  0  0
   20.6213   40.4430  -10.2373 H   0  0  0  0  0  0  0  0  0  0  0  0
   20.5121   40.9373   -6.4840 H   0  0  0  0  0  0  0  0  0  0  0  0
   19.6626   41.2829   -7.9834 H   0  0  0  0  0  0  0  0  0  0  0  0
   21.2027   42.0534   -7.6443 H   0  0  0  0  0  0  0  0  0  0  0  0
   22.7300   39.6184   -6.5242 H   0  0  0  0  0  0  0  0  0  0  0  0
   23.3986   40.6779   -7.7450 H   0  0  0  0  0  0  0  0  0  0  0  0
   23.3308   38.9485   -8.0376 H   0  0  0  0  0  0  0  0  0  0  0  0
   14.9707   41.8490   -7.5780 H   0  0  0  0  0  0  0  0  0  0  0  0
  1  2  1  0  0  0  0
  1 46  1  0  0  0  0
  1 47  1  0  0  0  0
  1 48  1  0  0  0  0
  2  3  1  0  0  0  0
  3  4  1  0  0  0  0
  3 49  1  0  0  0  0
  3 50  1  0  0  0  0
  4  9  1  0  0  0  0
  4  5  2  0  0  0  0
  5  6  1  0  0  0  0
  5 51  1  0  0  0  0
  6 26  1  0  0  0  0
  6  7  2  0  0  0  0
  7  8  1  0  0  0  0
  7 52  1  0  0  0  0
  8  9  2  0  0  0  0
  8 10  1  0  0  0  0
  9 53  1  0  0  0  0
 10 11  2  0  0  0  0
 10 12  1  0  0  0  0
 12 13  1  0  0  0  0
 12 54  1  0  0  0  0
 13 44  1  1  0  0  0
 13 14  1  0  0  0  0
 13 27  1  0  0  0  0
 14 15  1  0  0  0  0
 14 55  1  0  0  0  0
 14 56  1  0  0  0  0
 15 20  1  0  0  0  0
 15 16  2  0  0  0  0
 16 17  1  0  0  0  0
 16 57  1  0  0  0  0
 17 18  2  0  0  0  0
 17 21  1  0  0  0  0
 18 19  1  0  0  0  0
 18 58  1  0  0  0  0
 19 20  2  0  0  0  0
 19 59  1  0  0  0  0
 20 60  1  0  0  0  0
 21 22  1  0  0  0  0
 22 23  1  0  0  0  0
 22 61  1  0  0  0  0
 22 62  1  0  0  0  0
 23 24  1  0  0  0  0
 23 63  1  0  0  0  0
 23 64  1  0  0  0  0
 24 25  1  0  0  0  0
 24 65  1  0  0  0  0
 24 66  1  0  0  0  0
 25 26  1  0  0  0  0
 25 67  1  0  0  0  0
 25 68  1  0  0  0  0
 26 69  1  0  0  0  0
 27 45  1  6  0  0  0
 27 28  1  0  0  0  0
 27 29  1  0  0  0  0
 28 70  1  0  0  0  0
 29 30  1  0  0  0  0
 29 71  1  0  0  0  0
 29 72  1  0  0  0  0
 30 31  1  0  0  0  0
 30 73  1  0  0  0  0
 30 92  1  0  0  0  0
 31 32  1  0  0  0  0
 31 33  1  0  0  0  0
 31 34  1  0  0  0  0
 32 74  1  0  0  0  0
 32 75  1  0  0  0  0
 32 76  1  0  0  0  0
 33 77  1  0  0  0  0
 33 78  1  0  0  0  0
 33 79  1  0  0  0  0
 34 43  2  0  0  0  0
 34 35  1  0  0  0  0
 35 36  2  0  0  0  0
 35 80  1  0  0  0  0
 36 37  1  0  0  0  0
 36 42  1  0  0  0  0
 37 38  1  0  0  0  0
 37 81  1  0  0  0  0
 37 82  1  0  0  0  0
 38 39  1  0  0  0  0
 38 40  1  0  0  0  0
 38 41  1  0  0  0  0
 39 83  1  0  0  0  0
 39 84  1  0  0  0  0
 39 85  1  0  0  0  0
 40 86  1  0  0  0  0
 40 87  1  0  0  0  0
 40 88  1  0  0  0  0
 41 89  1  0  0  0  0
 41 90  1  0  0  0  0
 41 91  1  0  0  0  0
 42 43  1  0  0  0  0
M  CHG  1  30   1
M  END
