BACE_39.smi:1
 OpenBabel09301811243D
Structure written by MMmdl.
 89 90  0  0  1  0  0  0  0  0999 V2000
   15.5686   40.6274   -6.5790 C   0  0  0  0  0  0  0  0  0  0  0  0
   15.1322   39.7465   -7.7419 C   0  0  2  0  0  0  0  0  0  0  0  0
   16.0100   38.5500   -7.8390 N   0  3  0  0  0  0  0  0  0  0  0  0
   17.3865   38.7291   -8.3728 C   0  0  0  0  0  0  0  0  0  0  0  0
   18.4392   39.2651   -7.3610 C   0  0  1  0  0  0  0  0  0  0  0  0
   19.1112   38.1500   -6.8384 O   0  0  0  0  0  0  0  0  0  0  0  0
   19.4439   40.2309   -8.0542 C   0  0  2  0  0  0  0  0  0  0  0  0
   20.4866   39.5512   -8.9788 C   0  0  0  0  0  0  0  0  0  0  0  0
   20.5874   40.1794  -10.3874 C   0  0  2  0  0  0  0  0  0  0  0  0
   19.6908   39.4375  -11.3944 C   0  0  0  0  0  0  0  0  0  0  0  0
   22.0426   40.2159  -10.8849 C   0  0  0  0  0  0  0  0  0  0  0  0
   22.8240   41.4444  -10.3885 C   0  0  0  0  0  0  0  0  0  0  0  0
   22.5234   42.7127  -11.2120 C   0  0  0  0  0  0  0  0  0  0  0  0
   23.0822   44.0021  -10.5899 C   0  0  0  0  0  0  0  0  0  0  0  0
   22.2417   44.5029   -9.4042 C   0  0  0  0  0  0  0  0  0  0  0  0
   22.7592   45.8220   -8.8107 C   0  0  0  0  0  0  0  0  0  0  0  0
   21.8836   46.3963   -7.6790 C   0  0  0  0  0  0  0  0  0  0  0  0
   21.8264   45.5210   -6.4124 C   0  0  0  0  0  0  0  0  0  0  0  0
   20.2051   44.6479   -6.2366 S   0  0  0  0  0  0  0  0  0  0  0  0
   19.2560   45.6001   -5.6400 O   0  0  0  0  0  0  0  0  0  0  0  0
   19.8677   43.9997   -7.5120 O   0  0  0  0  0  0  0  0  0  0  0  0
   20.5800   43.3395   -4.9914 C   0  0  0  0  0  0  0  0  0  0  0  0
   21.5628   42.2631   -5.5211 C   0  0  1  0  0  0  0  0  0  0  0  0
   22.5934   41.8922   -4.4343 C   0  0  0  0  0  0  0  0  0  0  0  0
   20.8608   41.0189   -6.1033 C   0  0  0  0  0  0  0  0  0  0  0  0
   21.0957   39.9050   -5.6397 O   0  0  0  0  0  0  0  0  0  0  0  0
   20.0606   41.2245   -7.1656 N   0  0  0  0  0  0  0  0  0  0  0  0
   15.0908   40.5856   -9.0048 C   0  0  0  0  0  0  0  0  0  0  0  0
   15.3016   41.9905   -9.1018 C   0  0  0  0  0  0  0  0  0  0  0  0
   15.3087   42.2366  -10.4370 C   0  0  0  0  0  0  0  0  0  0  0  0
   15.6070   43.4902  -11.1933 C   0  0  0  0  0  0  0  0  0  0  0  0
   17.1148   43.7324  -11.4986 C   0  0  0  0  0  0  0  0  0  0  0  0
   17.2489   44.5678  -12.7829 C   0  0  0  0  0  0  0  0  0  0  0  0
   17.8994   42.4181  -11.6903 C   0  0  0  0  0  0  0  0  0  0  0  0
   17.7536   44.5118  -10.3312 C   0  0  0  0  0  0  0  0  0  0  0  0
   15.0726   41.0881  -11.1272 O   0  0  0  0  0  0  0  0  0  0  0  0
   14.9249   40.0408  -10.2040 N   0  0  0  0  0  0  0  0  0  0  0  0
   14.1283   39.3772   -7.5237 H   0  0  0  0  0  0  0  0  0  0  0  0
   17.9936   39.7501   -6.5018 H   0  0  0  0  0  0  0  0  0  0  0  0
   18.8210   40.8753   -8.6743 H   0  0  0  0  0  0  0  0  0  0  0  0
   20.2381   41.2090  -10.3399 H   0  0  0  0  0  0  0  0  0  0  0  0
   22.1362   42.6712   -6.3509 H   0  0  0  0  0  0  0  0  0  0  0  0
   14.8600   41.4265   -6.4401 H   0  0  0  0  0  0  0  0  0  0  0  0
   16.4937   41.1432   -6.8281 H   0  0  0  0  0  0  0  0  0  0  0  0
   15.6597   40.0793   -5.6409 H   0  0  0  0  0  0  0  0  0  0  0  0
   16.0354   38.0435   -6.9560 H   0  0  0  0  0  0  0  0  0  0  0  0
   17.7141   37.7641   -8.7619 H   0  0  0  0  0  0  0  0  0  0  0  0
   17.3424   39.3644   -9.2537 H   0  0  0  0  0  0  0  0  0  0  0  0
   18.5782   37.7502   -6.1650 H   0  0  0  0  0  0  0  0  0  0  0  0
   21.4600   39.5697   -8.4867 H   0  0  0  0  0  0  0  0  0  0  0  0
   20.2735   38.4877   -9.0918 H   0  0  0  0  0  0  0  0  0  0  0  0
   20.0011   38.3987  -11.5106 H   0  0  0  0  0  0  0  0  0  0  0  0
   19.7330   39.9038  -12.3789 H   0  0  0  0  0  0  0  0  0  0  0  0
   18.6470   39.4380  -11.0864 H   0  0  0  0  0  0  0  0  0  0  0  0
   22.5500   39.3106  -10.5538 H   0  0  0  0  0  0  0  0  0  0  0  0
   22.0644   40.1980  -11.9747 H   0  0  0  0  0  0  0  0  0  0  0  0
   22.6128   41.6028   -9.3306 H   0  0  0  0  0  0  0  0  0  0  0  0
   23.8933   41.2347  -10.4527 H   0  0  0  0  0  0  0  0  0  0  0  0
   22.9502   42.5815  -12.2075 H   0  0  0  0  0  0  0  0  0  0  0  0
   21.4513   42.8287  -11.3670 H   0  0  0  0  0  0  0  0  0  0  0  0
   24.1191   43.8522  -10.2879 H   0  0  0  0  0  0  0  0  0  0  0  0
   23.0987   44.7768  -11.3577 H   0  0  0  0  0  0  0  0  0  0  0  0
   21.2096   44.6382   -9.7287 H   0  0  0  0  0  0  0  0  0  0  0  0
   22.2262   43.7402   -8.6264 H   0  0  0  0  0  0  0  0  0  0  0  0
   23.7787   45.6837   -8.4488 H   0  0  0  0  0  0  0  0  0  0  0  0
   22.8219   46.5653   -9.6076 H   0  0  0  0  0  0  0  0  0  0  0  0
   22.2936   47.3690   -7.4045 H   0  0  0  0  0  0  0  0  0  0  0  0
   20.8766   46.5968   -8.0469 H   0  0  0  0  0  0  0  0  0  0  0  0
   22.6404   44.8001   -6.4025 H   0  0  0  0  0  0  0  0  0  0  0  0
   21.9493   46.1359   -5.5216 H   0  0  0  0  0  0  0  0  0  0  0  0
   20.9774   43.8400   -4.1078 H   0  0  0  0  0  0  0  0  0  0  0  0
   19.6355   42.9003   -4.6822 H   0  0  0  0  0  0  0  0  0  0  0  0
   23.2599   41.0969   -4.7685 H   0  0  0  0  0  0  0  0  0  0  0  0
   22.1040   41.5469   -3.5232 H   0  0  0  0  0  0  0  0  0  0  0  0
   23.2160   42.7497   -4.1729 H   0  0  0  0  0  0  0  0  0  0  0  0
   19.9237   42.1952   -7.4316 H   0  0  0  0  0  0  0  0  0  0  0  0
   15.4850   42.7072   -8.3140 H   0  0  0  0  0  0  0  0  0  0  0  0
   15.0306   43.4645  -12.1144 H   0  0  0  0  0  0  0  0  0  0  0  0
   15.1974   44.3413  -10.6484 H   0  0  0  0  0  0  0  0  0  0  0  0
   18.2904   44.8102  -12.9953 H   0  0  0  0  0  0  0  0  0  0  0  0
   16.7028   45.5087  -12.7085 H   0  0  0  0  0  0  0  0  0  0  0  0
   16.8601   44.0230  -13.6399 H   0  0  0  0  0  0  0  0  0  0  0  0
   17.4372   41.7767  -12.4400 H   0  0  0  0  0  0  0  0  0  0  0  0
   17.9537   41.8474  -10.7634 H   0  0  0  0  0  0  0  0  0  0  0  0
   18.9260   42.6095  -12.0055 H   0  0  0  0  0  0  0  0  0  0  0  0
   18.8134   44.6966  -10.5077 H   0  0  0  0  0  0  0  0  0  0  0  0
   17.6746   43.9606   -9.3926 H   0  0  0  0  0  0  0  0  0  0  0  0
   17.2757   45.4804  -10.1825 H   0  0  0  0  0  0  0  0  0  0  0  0
   15.5396   37.9439   -8.4955 H   0  0  0  0  0  0  0  0  0  0  0  0
  1  2  1  0  0  0  0
  1 43  1  0  0  0  0
  1 44  1  0  0  0  0
  1 45  1  0  0  0  0
  2 38  1  1  0  0  0
  2  3  1  0  0  0  0
  2 28  1  0  0  0  0
  3  4  1  0  0  0  0
  3 46  1  0  0  0  0
  3 89  1  0  0  0  0
  4  5  1  0  0  0  0
  4 47  1  0  0  0  0
  4 48  1  0  0  0  0
  5 39  1  1  0  0  0
  5  6  1  0  0  0  0
  5  7  1  0  0  0  0
  6 49  1  0  0  0  0
  7 40  1  6  0  0  0
  7 27  1  0  0  0  0
  7  8  1  0  0  0  0
  8  9  1  0  0  0  0
  8 50  1  0  0  0  0
  8 51  1  0  0  0  0
  9 41  1  1  0  0  0
  9 10  1  0  0  0  0
  9 11  1  0  0  0  0
 10 52  1  0  0  0  0
 10 53  1  0  0  0  0
 10 54  1  0  0  0  0
 11 12  1  0  0  0  0
 11 55  1  0  0  0  0
 11 56  1  0  0  0  0
 12 13  1  0  0  0  0
 12 57  1  0  0  0  0
 12 58  1  0  0  0  0
 13 14  1  0  0  0  0
 13 59  1  0  0  0  0
 13 60  1  0  0  0  0
 14 15  1  0  0  0  0
 14 61  1  0  0  0  0
 14 62  1  0  0  0  0
 15 16  1  0  0  0  0
 15 63  1  0  0  0  0
 15 64  1  0  0  0  0
 16 17  1  0  0  0  0
 16 65  1  0  0  0  0
 16 66  1  0  0  0  0
 17 18  1  0  0  0  0
 17 67  1  0  0  0  0
 17 68  1  0  0  0  0
 18 19  1  0  0  0  0
 18 69  1  0  0  0  0
 18 70  1  0  0  0  0
 19 20  2  0  0  0  0
 19 21  2  0  0  0  0
 19 22  1  0  0  0  0
 22 23  1  0  0  0  0
 22 71  1  0  0  0  0
 22 72  1  0  0  0  0
 23 42  1  6  0  0  0
 23 24  1  0  0  0  0
 23 25  1  0  0  0  0
 24 73  1  0  0  0  0
 24 74  1  0  0  0  0
 24 75  1  0  0  0  0
 25 26  2  0  0  0  0
 25 27  1  0  0  0  0
 27 76  1  0  0  0  0
 28 37  2  0  0  0  0
 28 29  1  0  0  0  0
 29 30  2  0  0  0  0
 29 77  1  0  0  0  0
 30 31  1  0  0  0  0
 30 36  1  0  0  0  0
 31 32  1  0  0  0  0
 31 78  1  0  0  0  0
 31 79  1  0  0  0  0
 32 33  1  0  0  0  0
 32 34  1  0  0  0  0
 32 35  1  0  0  0  0
 33 80  1  0  0  0  0
 33 81  1  0  0  0  0
 33 82  1  0  0  0  0
 34 83  1  0  0  0  0
 34 84  1  0  0  0  0
 34 85  1  0  0  0  0
 35 86  1  0  0  0  0
 35 87  1  0  0  0  0
 35 88  1  0  0  0  0
 36 37  1  0  0  0  0
M  CHG  1   3   1
M  END
