BACE_142.smi:1
 OpenBabel09301811243D
Structure written by MMmdl.
 58 60  0  0  1  0  0  0  0  0999 V2000
   19.8246   42.6906   -1.2729 C   0  0  0  0  0  0  0  0  0  0  0  0
   20.8337   41.8829   -1.8643 O   0  0  0  0  0  0  0  0  0  0  0  0
   20.9178   41.8854   -3.2382 C   0  0  0  0  0  0  0  0  0  0  0  0
   21.4819   40.7503   -3.8515 C   0  0  0  0  0  0  0  0  0  0  0  0
   21.5486   40.6446   -5.2515 C   0  0  0  0  0  0  0  0  0  0  0  0
   21.0811   41.7154   -6.0446 C   0  0  0  0  0  0  0  0  0  0  0  0
   20.5237   42.8690   -5.4582 C   0  0  0  0  0  0  0  0  0  0  0  0
   20.4602   42.9496   -4.0520 C   0  0  0  0  0  0  0  0  0  0  0  0
   19.9877   43.9463   -6.3287 C   0  0  0  0  0  0  0  0  0  0  0  0
   20.0715   44.0532   -7.5833 N   0  0  0  0  0  0  0  0  0  0  0  0
   19.3700   45.2490   -7.9710 C   0  0  1  0  0  0  0  0  0  0  0  0
   18.3103   44.9806   -9.0715 C   0  0  0  0  0  0  0  0  0  0  0  0
   18.8736   44.4809  -10.4240 C   0  0  2  0  0  0  0  0  0  0  0  0
   18.0313   44.9921  -11.6065 C   0  0  0  0  0  0  0  0  0  0  0  0
   18.9828   42.9399  -10.4636 C   0  0  0  0  0  0  0  0  0  0  0  0
   20.0525   42.4272  -11.4456 C   0  0  0  0  0  0  0  0  0  0  0  0
   20.5163   40.9766  -11.2071 C   0  0  0  0  0  0  0  0  0  0  0  0
   21.1222   40.7990   -9.8065 C   0  0  0  0  0  0  0  0  0  0  0  0
   22.0599   39.5958   -9.6305 C   0  0  0  0  0  0  0  0  0  0  0  0
   22.6601   39.5768   -8.2128 C   0  0  0  0  0  0  0  0  0  0  0  0
   21.6657   39.0748   -7.1508 C   0  0  0  0  0  0  0  0  0  0  0  0
   22.0599   39.4602   -5.8038 N   0  0  0  0  0  0  0  0  0  0  0  0
   18.7370   45.7664   -6.6612 C   0  0  2  0  0  0  0  0  0  0  0  0
   19.0769   47.2234   -6.3253 C   0  0  0  0  0  0  0  0  0  0  0  0
   18.0605   47.7503   -5.5003 O   0  0  0  0  0  0  0  0  0  0  0  0
   19.2853   44.9126   -5.6784 O   0  0  0  0  0  0  0  0  0  0  0  0
   20.0967   45.9718   -8.3436 H   0  0  0  0  0  0  0  0  0  0  0  0
   19.8705   44.9097  -10.5324 H   0  0  0  0  0  0  0  0  0  0  0  0
   17.6599   45.6121   -6.6932 H   0  0  0  0  0  0  0  0  0  0  0  0
   19.7396   42.4562   -0.2141 H   0  0  0  0  0  0  0  0  0  0  0  0
   18.8560   42.5038   -1.7309 H   0  0  0  0  0  0  0  0  0  0  0  0
   20.0601   43.7504   -1.3578 H   0  0  0  0  0  0  0  0  0  0  0  0
   21.8350   39.9361   -3.2388 H   0  0  0  0  0  0  0  0  0  0  0  0
   21.1257   41.6524   -7.1195 H   0  0  0  0  0  0  0  0  0  0  0  0
   20.0440   43.8313   -3.5982 H   0  0  0  0  0  0  0  0  0  0  0  0
   17.5483   44.2870   -8.7092 H   0  0  0  0  0  0  0  0  0  0  0  0
   17.7871   45.9239   -9.2393 H   0  0  0  0  0  0  0  0  0  0  0  0
   17.0022   44.6321  -11.5438 H   0  0  0  0  0  0  0  0  0  0  0  0
   18.4432   44.6611  -12.5607 H   0  0  0  0  0  0  0  0  0  0  0  0
   18.0028   46.0817  -11.6291 H   0  0  0  0  0  0  0  0  0  0  0  0
   19.2180   42.5851   -9.4662 H   0  0  0  0  0  0  0  0  0  0  0  0
   18.0156   42.4912  -10.6954 H   0  0  0  0  0  0  0  0  0  0  0  0
   19.6557   42.5161  -12.4538 H   0  0  0  0  0  0  0  0  0  0  0  0
   20.9297   43.0738  -11.4095 H   0  0  0  0  0  0  0  0  0  0  0  0
   19.6890   40.2788  -11.3460 H   0  0  0  0  0  0  0  0  0  0  0  0
   21.2615   40.7256  -11.9629 H   0  0  0  0  0  0  0  0  0  0  0  0
   21.6776   41.7017   -9.5463 H   0  0  0  0  0  0  0  0  0  0  0  0
   20.3090   40.7227   -9.0877 H   0  0  0  0  0  0  0  0  0  0  0  0
   21.5430   38.6580   -9.8416 H   0  0  0  0  0  0  0  0  0  0  0  0
   22.8659   39.6773  -10.3621 H   0  0  0  0  0  0  0  0  0  0  0  0
   23.5507   38.9502   -8.1805 H   0  0  0  0  0  0  0  0  0  0  0  0
   23.0200   40.5760   -7.9651 H   0  0  0  0  0  0  0  0  0  0  0  0
   20.6568   39.4321   -7.3467 H   0  0  0  0  0  0  0  0  0  0  0  0
   21.6034   37.9860   -7.1987 H   0  0  0  0  0  0  0  0  0  0  0  0
   22.2554   38.7050   -5.1634 H   0  0  0  0  0  0  0  0  0  0  0  0
   20.0513   47.3010   -5.8391 H   0  0  0  0  0  0  0  0  0  0  0  0
   19.1137   47.8274   -7.2307 H   0  0  0  0  0  0  0  0  0  0  0  0
   17.2606   47.7580   -6.0064 H   0  0  0  0  0  0  0  0  0  0  0  0
  1  2  1  0  0  0  0
  1 30  1  0  0  0  0
  1 31  1  0  0  0  0
  1 32  1  0  0  0  0
  2  3  1  0  0  0  0
  3  8  1  0  0  0  0
  3  4  2  0  0  0  0
  4  5  1  0  0  0  0
  4 33  1  0  0  0  0
  5 22  1  0  0  0  0
  5  6  2  0  0  0  0
  6  7  1  0  0  0  0
  6 34  1  0  0  0  0
  7  8  2  0  0  0  0
  7  9  1  0  0  0  0
  8 35  1  0  0  0  0
  9 26  1  0  0  0  0
  9 10  2  0  0  0  0
 10 11  1  0  0  0  0
 11 27  1  0  0  0  0
 11 12  1  0  0  0  0
 11 23  1  1  0  0  0
 12 13  1  0  0  0  0
 12 36  1  0  0  0  0
 12 37  1  0  0  0  0
 13 28  1  6  0  0  0
 13 14  1  0  0  0  0
 13 15  1  0  0  0  0
 14 38  1  0  0  0  0
 14 39  1  0  0  0  0
 14 40  1  0  0  0  0
 15 16  1  0  0  0  0
 15 41  1  0  0  0  0
 15 42  1  0  0  0  0
 16 17  1  0  0  0  0
 16 43  1  0  0  0  0
 16 44  1  0  0  0  0
 17 18  1  0  0  0  0
 17 45  1  0  0  0  0
 17 46  1  0  0  0  0
 18 19  1  0  0  0  0
 18 47  1  0  0  0  0
 18 48  1  0  0  0  0
 19 20  1  0  0  0  0
 19 49  1  0  0  0  0
 19 50  1  0  0  0  0
 20 21  1  0  0  0  0
 20 51  1  0  0  0  0
 20 52  1  0  0  0  0
 21 22  1  0  0  0  0
 21 53  1  0  0  0  0
 21 54  1  0  0  0  0
 22 55  1  0  0  0  0
 23 29  1  6  0  0  0
 23 24  1  0  0  0  0
 23 26  1  0  0  0  0
 24 25  1  0  0  0  0
 24 56  1  0  0  0  0
 24 57  1  0  0  0  0
 25 58  1  0  0  0  0
M  END
