BACE_136.smi:1
 OpenBabel09301811243D
Structure written by MMmdl.
 85 89  0  0  1  0  0  0  0  0999 V2000
   21.2050   40.9783   -7.9674 C   0  0  0  0  0  0  0  0  0  0  0  0
   20.8956   39.4765   -7.9016 C   0  0  0  0  0  0  0  0  0  0  0  0
   21.1004   38.9357   -6.4780 C   0  0  0  0  0  0  0  0  0  0  0  0
   19.5146   39.1842   -8.4774 C   0  0  0  0  0  0  0  0  0  0  0  0
   18.3756   38.9787   -7.6675 C   0  0  0  0  0  0  0  0  0  0  0  0
   17.1234   38.7773   -8.2861 C   0  0  0  0  0  0  0  0  0  0  0  0
   15.8566   38.6855   -7.4481 C   0  0  0  0  0  0  0  0  0  0  0  0
   15.0204   39.9061   -7.5465 N   0  3  0  0  0  0  0  0  0  0  0  0
   15.7518   41.1747   -7.3221 C   0  0  0  0  0  0  0  0  0  0  0  0
   15.8511   42.0509   -8.5989 C   0  0  1  0  0  0  0  0  0  0  0  0
   14.6741   42.8329   -8.6612 O   0  0  0  0  0  0  0  0  0  0  0  0
   17.1091   42.9735   -8.6106 C   0  0  2  0  0  0  0  0  0  0  0  0
   17.2956   43.7295   -7.2671 C   0  0  0  0  0  0  0  0  0  0  0  0
   18.6050   44.5069   -7.1192 C   0  0  0  0  0  0  0  0  0  0  0  0
   18.8074   45.7363   -7.7875 C   0  0  0  0  0  0  0  0  0  0  0  0
   20.0383   46.4203   -7.6858 C   0  0  0  0  0  0  0  0  0  0  0  0
   20.3102   47.6392   -8.5515 C   0  0  0  0  0  0  0  0  0  0  0  0
   19.3015   48.7915   -8.3784 C   0  0  0  0  0  0  0  0  0  0  0  0
   19.4249   49.8617   -9.4845 C   0  0  0  0  0  0  0  0  0  0  0  0
   18.5613   49.5789  -10.7289 C   0  0  0  0  0  0  0  0  0  0  0  0
   18.9399   48.3406  -11.3215 O   0  0  0  0  0  0  0  0  0  0  0  0
   17.9025   47.5290  -11.7110 C   0  0  0  0  0  0  0  0  0  0  0  0
   17.9228   46.1853  -11.3055 C   0  0  0  0  0  0  0  0  0  0  0  0
   16.8305   45.3317  -11.5780 C   0  0  0  0  0  0  0  0  0  0  0  0
   15.7483   45.8198  -12.3439 C   0  0  0  0  0  0  0  0  0  0  0  0
   15.7279   47.1656  -12.7951 C   0  0  0  0  0  0  0  0  0  0  0  0
   16.8178   48.0070  -12.4770 C   0  0  0  0  0  0  0  0  0  0  0  0
   14.6360   47.6926  -13.5555 N   0  0  0  0  0  0  0  0  0  0  0  0
   14.7815   48.8534  -14.4298 C   0  0  0  0  0  0  0  0  0  0  0  0
   13.4675   48.9519  -15.2114 C   0  0  0  0  0  0  0  0  0  0  0  0
   12.4683   48.1016  -14.4293 C   0  0  0  0  0  0  0  0  0  0  0  0
   13.3390   47.3503  -13.4351 C   0  0  0  0  0  0  0  0  0  0  0  0
   12.8613   46.5896  -12.5943 O   0  0  0  0  0  0  0  0  0  0  0  0
   16.7875   43.9597  -10.9720 C   0  0  0  0  0  0  0  0  0  0  0  0
   16.4518   42.9660  -11.6185 O   0  0  0  0  0  0  0  0  0  0  0  0
   17.0948   43.9870   -9.6655 N   0  0  0  0  0  0  0  0  0  0  0  0
   21.0487   45.9092   -6.8430 C   0  0  0  0  0  0  0  0  0  0  0  0
   20.8379   44.7097   -6.1363 C   0  0  0  0  0  0  0  0  0  0  0  0
   19.6286   44.0054   -6.2863 C   0  0  0  0  0  0  0  0  0  0  0  0
   16.9532   38.7745   -9.6248 N   0  0  0  0  0  0  0  0  0  0  0  0
   18.0495   38.9548  -10.3906 C   0  0  0  0  0  0  0  0  0  0  0  0
   19.3392   39.1635   -9.8727 C   0  0  0  0  0  0  0  0  0  0  0  0
   15.8793   41.4144   -9.4858 H   0  0  0  0  0  0  0  0  0  0  0  0
   17.9876   42.3425   -8.7590 H   0  0  0  0  0  0  0  0  0  0  0  0
   21.1643   41.3491   -8.9921 H   0  0  0  0  0  0  0  0  0  0  0  0
   22.2029   41.1872   -7.5811 H   0  0  0  0  0  0  0  0  0  0  0  0
   20.4901   41.5513   -7.3792 H   0  0  0  0  0  0  0  0  0  0  0  0
   21.6174   38.9627   -8.5424 H   0  0  0  0  0  0  0  0  0  0  0  0
   20.8724   37.8720   -6.4400 H   0  0  0  0  0  0  0  0  0  0  0  0
   20.4690   39.4487   -5.7502 H   0  0  0  0  0  0  0  0  0  0  0  0
   22.1343   39.0581   -6.1528 H   0  0  0  0  0  0  0  0  0  0  0  0
   18.4390   39.0089   -6.5898 H   0  0  0  0  0  0  0  0  0  0  0  0
   16.1380   38.5500   -6.4082 H   0  0  0  0  0  0  0  0  0  0  0  0
   15.2676   37.8108   -7.7390 H   0  0  0  0  0  0  0  0  0  0  0  0
   14.2861   39.8334   -6.8507 H   0  0  0  0  0  0  0  0  0  0  0  0
   16.7453   40.9615   -6.9249 H   0  0  0  0  0  0  0  0  0  0  0  0
   15.2656   41.7431   -6.5317 H   0  0  0  0  0  0  0  0  0  0  0  0
   14.6246   43.3357   -7.8612 H   0  0  0  0  0  0  0  0  0  0  0  0
   16.4608   44.4203   -7.1388 H   0  0  0  0  0  0  0  0  0  0  0  0
   17.2455   43.0213   -6.4407 H   0  0  0  0  0  0  0  0  0  0  0  0
   18.0308   46.1402   -8.4166 H   0  0  0  0  0  0  0  0  0  0  0  0
   21.3169   48.0052   -8.3549 H   0  0  0  0  0  0  0  0  0  0  0  0
   20.3235   47.2984   -9.5840 H   0  0  0  0  0  0  0  0  0  0  0  0
   19.4649   49.2442   -7.3995 H   0  0  0  0  0  0  0  0  0  0  0  0
   18.2770   48.4221   -8.3638 H   0  0  0  0  0  0  0  0  0  0  0  0
   19.1075   50.8197   -9.0765 H   0  0  0  0  0  0  0  0  0  0  0  0
   20.4699   49.9896   -9.7654 H   0  0  0  0  0  0  0  0  0  0  0  0
   18.6818   50.3741  -11.4674 H   0  0  0  0  0  0  0  0  0  0  0  0
   17.5131   49.5821  -10.4200 H   0  0  0  0  0  0  0  0  0  0  0  0
   18.7633   45.8296  -10.7244 H   0  0  0  0  0  0  0  0  0  0  0  0
   14.9215   45.1532  -12.5474 H   0  0  0  0  0  0  0  0  0  0  0  0
   16.8309   49.0381  -12.7985 H   0  0  0  0  0  0  0  0  0  0  0  0
   14.9189   49.7516  -13.8227 H   0  0  0  0  0  0  0  0  0  0  0  0
   15.6438   48.7602  -15.0916 H   0  0  0  0  0  0  0  0  0  0  0  0
   13.6005   48.5530  -16.2199 H   0  0  0  0  0  0  0  0  0  0  0  0
   13.1364   49.9864  -15.3078 H   0  0  0  0  0  0  0  0  0  0  0  0
   11.7444   48.7191  -13.8935 H   0  0  0  0  0  0  0  0  0  0  0  0
   11.9236   47.4089  -15.0712 H   0  0  0  0  0  0  0  0  0  0  0  0
   17.3447   44.9047   -9.3347 H   0  0  0  0  0  0  0  0  0  0  0  0
   21.9973   46.4174   -6.7585 H   0  0  0  0  0  0  0  0  0  0  0  0
   21.6122   44.3101   -5.4957 H   0  0  0  0  0  0  0  0  0  0  0  0
   19.4890   43.0784   -5.7525 H   0  0  0  0  0  0  0  0  0  0  0  0
   17.8965   38.9508  -11.4581 H   0  0  0  0  0  0  0  0  0  0  0  0
   20.1739   39.3257  -10.5389 H   0  0  0  0  0  0  0  0  0  0  0  0
   14.5906   39.9390   -8.4618 H   0  0  0  0  0  0  0  0  0  0  0  0
  1  2  1  0  0  0  0
  1 45  1  0  0  0  0
  1 46  1  0  0  0  0
  1 47  1  0  0  0  0
  2  3  1  0  0  0  0
  2  4  1  0  0  0  0
  2 48  1  0  0  0  0
  3 49  1  0  0  0  0
  3 50  1  0  0  0  0
  3 51  1  0  0  0  0
  4 42  1  0  0  0  0
  4  5  2  0  0  0  0
  5  6  1  0  0  0  0
  5 52  1  0  0  0  0
  6  7  1  0  0  0  0
  6 40  2  0  0  0  0
  7  8  1  0  0  0  0
  7 53  1  0  0  0  0
  7 54  1  0  0  0  0
  8  9  1  0  0  0  0
  8 55  1  0  0  0  0
  8 85  1  0  0  0  0
  9 10  1  0  0  0  0
  9 56  1  0  0  0  0
  9 57  1  0  0  0  0
 10 43  1  6  0  0  0
 10 11  1  0  0  0  0
 10 12  1  0  0  0  0
 11 58  1  0  0  0  0
 12 44  1  6  0  0  0
 12 36  1  0  0  0  0
 12 13  1  0  0  0  0
 13 14  1  0  0  0  0
 13 59  1  0  0  0  0
 13 60  1  0  0  0  0
 14 39  1  0  0  0  0
 14 15  2  0  0  0  0
 15 16  1  0  0  0  0
 15 61  1  0  0  0  0
 16 17  1  0  0  0  0
 16 37  2  0  0  0  0
 17 18  1  0  0  0  0
 17 62  1  0  0  0  0
 17 63  1  0  0  0  0
 18 19  1  0  0  0  0
 18 64  1  0  0  0  0
 18 65  1  0  0  0  0
 19 20  1  0  0  0  0
 19 66  1  0  0  0  0
 19 67  1  0  0  0  0
 20 21  1  0  0  0  0
 20 68  1  0  0  0  0
 20 69  1  0  0  0  0
 21 22  1  0  0  0  0
 22 27  1  0  0  0  0
 22 23  2  0  0  0  0
 23 24  1  0  0  0  0
 23 70  1  0  0  0  0
 24 25  2  0  0  0  0
 24 34  1  0  0  0  0
 25 26  1  0  0  0  0
 25 71  1  0  0  0  0
 26 27  2  0  0  0  0
 26 28  1  0  0  0  0
 27 72  1  0  0  0  0
 28 32  1  0  0  0  0
 28 29  1  0  0  0  0
 29 30  1  0  0  0  0
 29 73  1  0  0  0  0
 29 74  1  0  0  0  0
 30 31  1  0  0  0  0
 30 75  1  0  0  0  0
 30 76  1  0  0  0  0
 31 32  1  0  0  0  0
 31 77  1  0  0  0  0
 31 78  1  0  0  0  0
 32 33  2  0  0  0  0
 34 35  2  0  0  0  0
 34 36  1  0  0  0  0
 36 79  1  0  0  0  0
 37 38  1  0  0  0  0
 37 80  1  0  0  0  0
 38 39  2  0  0  0  0
 38 81  1  0  0  0  0
 39 82  1  0  0  0  0
 40 41  1  0  0  0  0
 41 42  2  0  0  0  0
 41 83  1  0  0  0  0
 42 84  1  0  0  0  0
M  CHG  1   8   1
M  END
