BACE_87.smi:1
 OpenBabel09301811243D
Structure written by MMmdl.
 79 82  0  0  1  0  0  0  0  0999 V2000
   23.0632   44.3310  -11.2236 C   0  0  0  0  0  0  0  0  0  0  0  0
   22.0219   43.9654  -10.1458 C   0  0  1  0  0  0  0  0  0  0  0  0
   22.0252   44.9282   -8.9373 C   0  0  0  0  0  0  0  0  0  0  0  0
   22.0288   46.1458   -9.1148 O   0  0  0  0  0  0  0  0  0  0  0  0
   22.0451   44.3796   -7.7125 N   0  0  0  0  0  0  0  0  0  0  0  0
   21.9474   45.1030   -6.4407 C   0  0  1  0  0  0  0  0  0  0  0  0
   20.8779   44.4067   -5.5687 C   0  0  0  0  0  0  0  0  0  0  0  0
   21.1814   42.9642   -5.2080 C   0  0  0  0  0  0  0  0  0  0  0  0
   20.8278   41.9272   -6.0921 C   0  0  0  0  0  0  0  0  0  0  0  0
   21.0743   40.5828   -5.7514 C   0  0  0  0  0  0  0  0  0  0  0  0
   20.6866   39.4804   -6.7152 C   0  0  0  0  0  0  0  0  0  0  0  0
   21.9146   38.8857   -7.4291 C   0  0  0  0  0  0  0  0  0  0  0  0
   21.6004   38.2484   -8.7944 C   0  0  0  0  0  0  0  0  0  0  0  0
   21.8027   39.1939   -9.9942 C   0  0  0  0  0  0  0  0  0  0  0  0
   20.8898   40.4298  -10.0096 C   0  0  0  0  0  0  0  0  0  0  0  0
   21.1407   41.3172  -11.2383 C   0  0  0  0  0  0  0  0  0  0  0  0
   20.2408   42.5613  -11.2412 C   0  0  0  0  0  0  0  0  0  0  0  0
   19.1118   42.4291  -11.7197 O   0  0  0  0  0  0  0  0  0  0  0  0
   20.6934   43.7596  -10.7772 N   0  0  0  0  0  0  0  0  0  0  0  0
   19.8334   44.9480  -10.9266 C   0  0  0  0  0  0  0  0  0  0  0  0
   21.6815   40.2733   -4.5163 C   0  0  0  0  0  0  0  0  0  0  0  0
   22.0270   41.3062   -3.6261 C   0  0  0  0  0  0  0  0  0  0  0  0
   21.7815   42.6496   -3.9695 C   0  0  0  0  0  0  0  0  0  0  0  0
   23.3506   45.2375   -5.7751 C   0  0  2  0  0  0  0  0  0  0  0  0
   23.2584   45.7511   -4.4522 O   0  0  0  0  0  0  0  0  0  0  0  0
   24.2709   46.1947   -6.5717 C   0  0  0  0  0  0  0  0  0  0  0  0
   25.5093   46.5115   -5.8633 N   0  0  0  0  0  0  0  0  0  0  0  0
   26.4443   45.3988   -5.7237 C   0  0  0  0  0  0  0  0  0  0  0  0
   27.6767   45.7296   -4.8997 C   0  0  0  0  0  0  0  0  0  0  0  0
   27.8376   46.9439   -4.1977 C   0  0  0  0  0  0  0  0  0  0  0  0
   29.0012   47.1517   -3.4359 C   0  0  0  0  0  0  0  0  0  0  0  0
   29.9646   46.1219   -3.4074 C   0  0  0  0  0  0  0  0  0  0  0  0
   29.8240   44.9525   -4.0703 N   0  0  0  0  0  0  0  0  0  0  0  0
   28.7137   44.7794   -4.8135 C   0  0  0  0  0  0  0  0  0  0  0  0
   29.2211   48.4309   -2.6870 C   0  0  0  0  0  0  0  0  0  0  0  0
   29.3128   48.4450   -1.1795 C   0  0  0  0  0  0  0  0  0  0  0  0
   28.1206   49.0645   -1.8624 C   0  0  0  0  0  0  0  0  0  0  0  0
   22.3563   43.0200   -9.7171 H   0  0  0  0  0  0  0  0  0  0  0  0
   21.5721   46.1111   -6.6246 H   0  0  0  0  0  0  0  0  0  0  0  0
   23.8085   44.2506   -5.7098 H   0  0  0  0  0  0  0  0  0  0  0  0
   23.1300   43.5661  -11.9973 H   0  0  0  0  0  0  0  0  0  0  0  0
   24.0574   44.4455  -10.7892 H   0  0  0  0  0  0  0  0  0  0  0  0
   22.8104   45.2716  -11.7172 H   0  0  0  0  0  0  0  0  0  0  0  0
   22.0620   43.3730   -7.6474 H   0  0  0  0  0  0  0  0  0  0  0  0
   20.7095   44.9719   -4.6557 H   0  0  0  0  0  0  0  0  0  0  0  0
   19.9199   44.4298   -6.0925 H   0  0  0  0  0  0  0  0  0  0  0  0
   20.3443   42.1597   -7.0299 H   0  0  0  0  0  0  0  0  0  0  0  0
   19.9677   39.8756   -7.4352 H   0  0  0  0  0  0  0  0  0  0  0  0
   20.1527   38.6937   -6.1805 H   0  0  0  0  0  0  0  0  0  0  0  0
   22.6813   39.6542   -7.5701 H   0  0  0  0  0  0  0  0  0  0  0  0
   22.3567   38.1513   -6.7603 H   0  0  0  0  0  0  0  0  0  0  0  0
   20.5903   37.8333   -8.8025 H   0  0  0  0  0  0  0  0  0  0  0  0
   22.2688   37.3998   -8.9389 H   0  0  0  0  0  0  0  0  0  0  0  0
   21.6353   38.6267  -10.9053 H   0  0  0  0  0  0  0  0  0  0  0  0
   22.8467   39.5121  -10.0259 H   0  0  0  0  0  0  0  0  0  0  0  0
   19.8441   40.1123   -9.9912 H   0  0  0  0  0  0  0  0  0  0  0  0
   21.0524   41.0232   -9.1093 H   0  0  0  0  0  0  0  0  0  0  0  0
   20.9141   40.7432  -12.1387 H   0  0  0  0  0  0  0  0  0  0  0  0
   22.1955   41.5694  -11.3290 H   0  0  0  0  0  0  0  0  0  0  0  0
   19.1344   44.8754  -11.7606 H   0  0  0  0  0  0  0  0  0  0  0  0
   20.4280   45.8390  -11.1205 H   0  0  0  0  0  0  0  0  0  0  0  0
   19.2570   45.1125  -10.0177 H   0  0  0  0  0  0  0  0  0  0  0  0
   21.8751   39.2471   -4.2440 H   0  0  0  0  0  0  0  0  0  0  0  0
   22.4687   41.0693   -2.6725 H   0  0  0  0  0  0  0  0  0  0  0  0
   22.0397   43.4362   -3.2770 H   0  0  0  0  0  0  0  0  0  0  0  0
   23.9728   45.3674   -3.9552 H   0  0  0  0  0  0  0  0  0  0  0  0
   23.7335   47.1248   -6.7553 H   0  0  0  0  0  0  0  0  0  0  0  0
   24.4958   45.7767   -7.5547 H   0  0  0  0  0  0  0  0  0  0  0  0
   25.2530   46.8337   -4.9364 H   0  0  0  0  0  0  0  0  0  0  0  0
   26.7674   45.0575   -6.7112 H   0  0  0  0  0  0  0  0  0  0  0  0
   25.9576   44.5512   -5.2402 H   0  0  0  0  0  0  0  0  0  0  0  0
   27.0823   47.7165   -4.2348 H   0  0  0  0  0  0  0  0  0  0  0  0
   30.8743   46.2395   -2.8406 H   0  0  0  0  0  0  0  0  0  0  0  0
   28.6286   43.8357   -5.3296 H   0  0  0  0  0  0  0  0  0  0  0  0
   29.8905   49.0915   -3.2339 H   0  0  0  0  0  0  0  0  0  0  0  0
   30.0362   49.1192   -0.7262 H   0  0  0  0  0  0  0  0  0  0  0  0
   29.1448   47.5090   -0.6511 H   0  0  0  0  0  0  0  0  0  0  0  0
   27.1726   48.5381   -1.7668 H   0  0  0  0  0  0  0  0  0  0  0  0
   28.0601   50.1471   -1.8445 H   0  0  0  0  0  0  0  0  0  0  0  0
  1  2  1  0  0  0  0
  1 41  1  0  0  0  0
  1 42  1  0  0  0  0
  1 43  1  0  0  0  0
  2 38  1  1  0  0  0
  2 19  1  0  0  0  0
  2  3  1  0  0  0  0
  3  4  2  0  0  0  0
  3  5  1  0  0  0  0
  5  6  1  0  0  0  0
  5 44  1  0  0  0  0
  6 39  1  6  0  0  0
  6  7  1  0  0  0  0
  6 24  1  0  0  0  0
  7  8  1  0  0  0  0
  7 45  1  0  0  0  0
  7 46  1  0  0  0  0
  8 23  1  0  0  0  0
  8  9  2  0  0  0  0
  9 10  1  0  0  0  0
  9 47  1  0  0  0  0
 10 11  1  0  0  0  0
 10 21  2  0  0  0  0
 11 12  1  0  0  0  0
 11 48  1  0  0  0  0
 11 49  1  0  0  0  0
 12 13  1  0  0  0  0
 12 50  1  0  0  0  0
 12 51  1  0  0  0  0
 13 14  1  0  0  0  0
 13 52  1  0  0  0  0
 13 53  1  0  0  0  0
 14 15  1  0  0  0  0
 14 54  1  0  0  0  0
 14 55  1  0  0  0  0
 15 16  1  0  0  0  0
 15 56  1  0  0  0  0
 15 57  1  0  0  0  0
 16 17  1  0  0  0  0
 16 58  1  0  0  0  0
 16 59  1  0  0  0  0
 17 18  2  0  0  0  0
 17 19  1  0  0  0  0
 19 20  1  0  0  0  0
 20 60  1  0  0  0  0
 20 61  1  0  0  0  0
 20 62  1  0  0  0  0
 21 22  1  0  0  0  0
 21 63  1  0  0  0  0
 22 23  2  0  0  0  0
 22 64  1  0  0  0  0
 23 65  1  0  0  0  0
 24 40  1  1  0  0  0
 24 25  1  0  0  0  0
 24 26  1  0  0  0  0
 25 66  1  0  0  0  0
 26 27  1  0  0  0  0
 26 67  1  0  0  0  0
 26 68  1  0  0  0  0
 27 28  1  0  0  0  0
 27 69  1  0  0  0  0
 28 29  1  0  0  0  0
 28 70  1  0  0  0  0
 28 71  1  0  0  0  0
 29 34  1  0  0  0  0
 29 30  2  0  0  0  0
 30 31  1  0  0  0  0
 30 72  1  0  0  0  0
 31 32  2  0  0  0  0
 31 35  1  0  0  0  0
 32 33  1  0  0  0  0
 32 73  1  0  0  0  0
 33 34  2  0  0  0  0
 34 74  1  0  0  0  0
 35 37  1  0  0  0  0
 35 36  1  0  0  0  0
 35 75  1  0  0  0  0
 36 37  1  0  0  0  0
 36 76  1  0  0  0  0
 36 77  1  0  0  0  0
 37 78  1  0  0  0  0
 37 79  1  0  0  0  0
M  END
