BACE_104.smi:1
 OpenBabel09301811243D
Structure written by MMmdl.
 52 54  0  0  1  0  0  0  0  0999 V2000
   20.4601   41.8315   -3.3190 N   0  3  0  0  0  0  0  0  0  0  0  0
   21.3703   42.5636   -4.2154 C   0  0  0  0  0  0  0  0  0  0  0  0
   22.1239   41.6046   -5.1650 C   0  0  1  0  0  0  0  0  0  0  0  0
   22.8521   40.7306   -4.3225 O   0  0  0  0  0  0  0  0  0  0  0  0
   21.2535   40.7602   -6.1386 C   0  0  2  0  0  0  0  0  0  0  0  0
   22.0720   40.1055   -7.2867 C   0  0  0  0  0  0  0  0  0  0  0  0
   21.2202   39.5192   -8.4056 C   0  0  0  0  0  0  0  0  0  0  0  0
   21.3689   39.9785   -9.7318 C   0  0  0  0  0  0  0  0  0  0  0  0
   20.5191   39.4992  -10.7473 C   0  0  0  0  0  0  0  0  0  0  0  0
   19.5045   38.5731  -10.4400 C   0  0  0  0  0  0  0  0  0  0  0  0
   19.3518   38.1001   -9.1172 C   0  0  0  0  0  0  0  0  0  0  0  0
   20.2354   38.5500   -8.1168 C   0  0  0  0  0  0  0  0  0  0  0  0
   18.3773   37.2089   -8.7363 O   0  0  0  0  0  0  0  0  0  0  0  0
   17.0849   37.3382   -9.3120 C   0  0  0  0  0  0  0  0  0  0  0  0
   16.4758   38.6906   -9.0122 C   0  0  0  0  0  0  0  0  0  0  0  0
   15.7379   38.9534   -7.9207 C   0  0  0  0  0  0  0  0  0  0  0  0
   15.1688   40.3020   -7.5226 C   0  0  0  0  0  0  0  0  0  0  0  0
   15.2600   41.3502   -8.5377 N   0  0  0  0  0  0  0  0  0  0  0  0
   16.3001   42.2784   -8.4180 C   0  0  0  0  0  0  0  0  0  0  0  0
   17.6028   41.8922   -8.0400 C   0  0  0  0  0  0  0  0  0  0  0  0
   18.5954   42.8842   -7.8752 C   0  0  0  0  0  0  0  0  0  0  0  0
   18.2412   44.2213   -8.1417 C   0  0  0  0  0  0  0  0  0  0  0  0
   16.9221   44.5083   -8.5386 C   0  0  0  0  0  0  0  0  0  0  0  0
   16.4789   46.1483   -8.8414 Cl  0  0  0  0  0  0  0  0  0  0  0  0
   15.9739   43.5587   -8.6858 N   0  0  0  0  0  0  0  0  0  0  0  0
   19.9900   42.5223   -7.4449 C   0  0  0  0  0  0  0  0  0  0  0  0
   20.9689   43.1867   -7.7836 O   0  0  0  0  0  0  0  0  0  0  0  0
   20.0600   41.4628   -6.6230 N   0  0  0  0  0  0  0  0  0  0  0  0
   22.8370   42.1982   -5.7412 H   0  0  0  0  0  0  0  0  0  0  0  0
   20.8216   39.9420   -5.5598 H   0  0  0  0  0  0  0  0  0  0  0  0
   20.0801   42.4559   -2.6224 H   0  0  0  0  0  0  0  0  0  0  0  0
   20.9930   41.0957   -2.8767 H   0  0  0  0  0  0  0  0  0  0  0  0
   20.8090   43.3176   -4.7680 H   0  0  0  0  0  0  0  0  0  0  0  0
   22.0903   43.1116   -3.6033 H   0  0  0  0  0  0  0  0  0  0  0  0
   23.4234   40.1937   -4.8535 H   0  0  0  0  0  0  0  0  0  0  0  0
   22.7395   40.8511   -7.7208 H   0  0  0  0  0  0  0  0  0  0  0  0
   22.7161   39.3215   -6.8892 H   0  0  0  0  0  0  0  0  0  0  0  0
   22.1243   40.7141   -9.9756 H   0  0  0  0  0  0  0  0  0  0  0  0
   20.6364   39.8541  -11.7606 H   0  0  0  0  0  0  0  0  0  0  0  0
   18.8569   38.2294  -11.2310 H   0  0  0  0  0  0  0  0  0  0  0  0
   20.1116   38.1870   -7.1068 H   0  0  0  0  0  0  0  0  0  0  0  0
   17.0922   37.1544  -10.3849 H   0  0  0  0  0  0  0  0  0  0  0  0
   16.4561   36.5634   -8.8725 H   0  0  0  0  0  0  0  0  0  0  0  0
   16.7194   39.4814   -9.7058 H   0  0  0  0  0  0  0  0  0  0  0  0
   15.5368   38.1500   -7.2257 H   0  0  0  0  0  0  0  0  0  0  0  0
   14.1189   40.1491   -7.2860 H   0  0  0  0  0  0  0  0  0  0  0  0
   15.6352   40.6224   -6.5892 H   0  0  0  0  0  0  0  0  0  0  0  0
   14.3670   41.7343   -8.8116 H   0  0  0  0  0  0  0  0  0  0  0  0
   17.8274   40.8528   -7.8569 H   0  0  0  0  0  0  0  0  0  0  0  0
   18.9664   45.0154   -8.0377 H   0  0  0  0  0  0  0  0  0  0  0  0
   19.1643   41.0602   -6.3660 H   0  0  0  0  0  0  0  0  0  0  0  0
   19.7089   41.4235   -3.8600 H   0  0  0  0  0  0  0  0  0  0  0  0
  1  2  1  0  0  0  0
  1 31  1  0  0  0  0
  1 32  1  0  0  0  0
  1 52  1  0  0  0  0
  2  3  1  0  0  0  0
  2 33  1  0  0  0  0
  2 34  1  0  0  0  0
  3 29  1  6  0  0  0
  3  4  1  0  0  0  0
  3  5  1  0  0  0  0
  4 35  1  0  0  0  0
  5 30  1  1  0  0  0
  5 28  1  0  0  0  0
  5  6  1  0  0  0  0
  6  7  1  0  0  0  0
  6 36  1  0  0  0  0
  6 37  1  0  0  0  0
  7 12  1  0  0  0  0
  7  8  2  0  0  0  0
  8  9  1  0  0  0  0
  8 38  1  0  0  0  0
  9 10  2  0  0  0  0
  9 39  1  0  0  0  0
 10 11  1  0  0  0  0
 10 40  1  0  0  0  0
 11 12  2  0  0  0  0
 11 13  1  0  0  0  0
 12 41  1  0  0  0  0
 13 14  1  0  0  0  0
 14 15  1  0  0  0  0
 14 42  1  0  0  0  0
 14 43  1  0  0  0  0
 15 16  2  0  0  0  0
 15 44  1  0  0  0  0
 16 17  1  0  0  0  0
 16 45  1  0  0  0  0
 17 18  1  0  0  0  0
 17 46  1  0  0  0  0
 17 47  1  0  0  0  0
 18 19  1  0  0  0  0
 18 48  1  0  0  0  0
 19 25  1  0  0  0  0
 19 20  2  0  0  0  0
 20 21  1  0  0  0  0
 20 49  1  0  0  0  0
 21 22  2  0  0  0  0
 21 26  1  0  0  0  0
 22 23  1  0  0  0  0
 22 50  1  0  0  0  0
 23 24  1  0  0  0  0
 23 25  2  0  0  0  0
 26 27  2  0  0  0  0
 26 28  1  0  0  0  0
 28 51  1  0  0  0  0
M  CHG  1   1   1
M  END
