BACE_79.smi:1
 OpenBabel09301811243D
Structure written by MMmdl.
 85 87  0  0  1  0  0  0  0  0999 V2000
   22.2907   40.7098   -7.1861 C   0  0  0  0  0  0  0  0  0  0  0  0
   22.5799   39.8143   -8.3975 C   0  0  2  0  0  0  0  0  0  0  0  0
   23.3664   40.5501   -9.4130 N   0  3  0  0  0  0  0  0  0  0  0  0
   23.9693   41.8159   -8.9398 C   0  0  0  0  0  0  0  0  0  0  0  0
   25.3726   42.0307   -9.5411 C   0  0  1  0  0  0  0  0  0  0  0  0
   25.3016   41.9485  -10.9500 O   0  0  0  0  0  0  0  0  0  0  0  0
   26.0768   43.3549   -9.1216 C   0  0  2  0  0  0  0  0  0  0  0  0
   25.4382   43.9028   -7.8174 C   0  0  0  0  0  0  0  0  0  0  0  0
   26.1172   45.1105   -7.1227 C   0  0  2  0  0  0  0  0  0  0  0  0
   25.9378   46.4372   -7.8847 C   0  0  0  0  0  0  0  0  0  0  0  0
   27.5876   44.8257   -6.7476 C   0  0  0  0  0  0  0  0  0  0  0  0
   28.1963   45.8541   -5.7782 C   0  0  0  0  0  0  0  0  0  0  0  0
   29.6342   45.5210   -5.3462 C   0  0  0  0  0  0  0  0  0  0  0  0
   30.6716   45.6034   -6.4838 C   0  0  0  0  0  0  0  0  0  0  0  0
   31.2608   44.2360   -6.8731 C   0  0  0  0  0  0  0  0  0  0  0  0
   32.3208   44.3267   -7.9853 C   0  0  0  0  0  0  0  0  0  0  0  0
   31.7258   44.4137   -9.3977 C   0  0  0  0  0  0  0  0  0  0  0  0
   31.2576   43.1216   -9.7730 O   0  0  0  0  0  0  0  0  0  0  0  0
   30.2084   43.0538  -10.6582 C   0  0  0  0  0  0  0  0  0  0  0  0
   29.0417   43.8415  -10.5271 C   0  0  0  0  0  0  0  0  0  0  0  0
   27.9689   43.6935  -11.4326 C   0  0  0  0  0  0  0  0  0  0  0  0
   28.0840   42.7854  -12.5054 C   0  0  0  0  0  0  0  0  0  0  0  0
   29.2366   41.9886  -12.6338 C   0  0  0  0  0  0  0  0  0  0  0  0
   30.2864   42.1127  -11.7041 C   0  0  0  0  0  0  0  0  0  0  0  0
   26.7269   44.5200  -11.2858 C   0  0  0  0  0  0  0  0  0  0  0  0
   26.4067   45.3049  -12.1751 O   0  0  0  0  0  0  0  0  0  0  0  0
   25.9787   44.3708  -10.1764 N   0  0  0  0  0  0  0  0  0  0  0  0
   21.3024   39.2739   -8.9910 C   0  0  0  0  0  0  0  0  0  0  0  0
   20.2180   38.6309   -8.3301 C   0  0  0  0  0  0  0  0  0  0  0  0
   19.3155   38.4081   -9.3302 C   0  0  0  0  0  0  0  0  0  0  0  0
   17.9311   37.8405   -9.3396 C   0  0  0  0  0  0  0  0  0  0  0  0
   16.7914   38.8561   -9.0560 C   0  0  0  0  0  0  0  0  0  0  0  0
   16.7035   39.9268  -10.1652 C   0  0  0  0  0  0  0  0  0  0  0  0
   17.0792   39.5569   -7.7147 C   0  0  0  0  0  0  0  0  0  0  0  0
   15.4363   38.1286   -8.9505 C   0  0  0  0  0  0  0  0  0  0  0  0
   19.8199   38.8325  -10.5172 O   0  0  0  0  0  0  0  0  0  0  0  0
   21.0909   39.3720  -10.2928 N   0  0  0  0  0  0  0  0  0  0  0  0
   23.2007   38.9853   -8.0528 H   0  0  0  0  0  0  0  0  0  0  0  0
   26.0082   41.1964   -9.2412 H   0  0  0  0  0  0  0  0  0  0  0  0
   27.1166   43.1324   -8.8894 H   0  0  0  0  0  0  0  0  0  0  0  0
   25.5742   45.2349   -6.1848 H   0  0  0  0  0  0  0  0  0  0  0  0
   21.7526   40.1599   -6.4133 H   0  0  0  0  0  0  0  0  0  0  0  0
   21.6831   41.5719   -7.4642 H   0  0  0  0  0  0  0  0  0  0  0  0
   23.2145   41.0817   -6.7418 H   0  0  0  0  0  0  0  0  0  0  0  0
   24.1046   39.9438   -9.7402 H   0  0  0  0  0  0  0  0  0  0  0  0
   23.3063   42.6486   -9.1792 H   0  0  0  0  0  0  0  0  0  0  0  0
   24.0563   41.7842   -7.8538 H   0  0  0  0  0  0  0  0  0  0  0  0
   24.6382   41.3165  -11.1843 H   0  0  0  0  0  0  0  0  0  0  0  0
   24.3912   44.1445   -8.0030 H   0  0  0  0  0  0  0  0  0  0  0  0
   25.4143   43.0952   -7.0847 H   0  0  0  0  0  0  0  0  0  0  0  0
   26.6064   46.5083   -8.7421 H   0  0  0  0  0  0  0  0  0  0  0  0
   26.1477   47.2924   -7.2425 H   0  0  0  0  0  0  0  0  0  0  0  0
   24.9142   46.5526   -8.2423 H   0  0  0  0  0  0  0  0  0  0  0  0
   27.6539   43.8377   -6.2906 H   0  0  0  0  0  0  0  0  0  0  0  0
   28.1928   44.7824   -7.6502 H   0  0  0  0  0  0  0  0  0  0  0  0
   28.1832   46.8486   -6.2241 H   0  0  0  0  0  0  0  0  0  0  0  0
   27.5709   45.9132   -4.8869 H   0  0  0  0  0  0  0  0  0  0  0  0
   29.9217   46.2308   -4.5697 H   0  0  0  0  0  0  0  0  0  0  0  0
   29.6625   44.5420   -4.8667 H   0  0  0  0  0  0  0  0  0  0  0  0
   30.2401   46.0933   -7.3570 H   0  0  0  0  0  0  0  0  0  0  0  0
   31.4881   46.2508   -6.1614 H   0  0  0  0  0  0  0  0  0  0  0  0
   31.7266   43.7994   -5.9890 H   0  0  0  0  0  0  0  0  0  0  0  0
   30.4668   43.5480   -7.1669 H   0  0  0  0  0  0  0  0  0  0  0  0
   32.9638   45.1887   -7.8030 H   0  0  0  0  0  0  0  0  0  0  0  0
   32.9744   43.4550   -7.9358 H   0  0  0  0  0  0  0  0  0  0  0  0
   30.9789   45.2039   -9.4449 H   0  0  0  0  0  0  0  0  0  0  0  0
   32.5085   44.6934  -10.1035 H   0  0  0  0  0  0  0  0  0  0  0  0
   28.9491   44.5487   -9.7182 H   0  0  0  0  0  0  0  0  0  0  0  0
   27.2793   42.6789  -13.2185 H   0  0  0  0  0  0  0  0  0  0  0  0
   29.3144   41.2776  -13.4431 H   0  0  0  0  0  0  0  0  0  0  0  0
   31.1649   41.4921  -11.8032 H   0  0  0  0  0  0  0  0  0  0  0  0
   25.1820   44.9868  -10.1021 H   0  0  0  0  0  0  0  0  0  0  0  0
   20.0994   38.4054   -7.2807 H   0  0  0  0  0  0  0  0  0  0  0  0
   17.7530   37.3406  -10.2925 H   0  0  0  0  0  0  0  0  0  0  0  0
   17.8933   37.0491   -8.5899 H   0  0  0  0  0  0  0  0  0  0  0  0
   15.9572   40.6853   -9.9257 H   0  0  0  0  0  0  0  0  0  0  0  0
   16.4214   39.4962  -11.1265 H   0  0  0  0  0  0  0  0  0  0  0  0
   17.6573   40.4381  -10.2988 H   0  0  0  0  0  0  0  0  0  0  0  0
   18.0203   40.1070   -7.7454 H   0  0  0  0  0  0  0  0  0  0  0  0
   17.1464   38.8374   -6.8977 H   0  0  0  0  0  0  0  0  0  0  0  0
   16.2937   40.2693   -7.4595 H   0  0  0  0  0  0  0  0  0  0  0  0
   14.6345   38.8211   -8.6922 H   0  0  0  0  0  0  0  0  0  0  0  0
   15.4585   37.3543   -8.1828 H   0  0  0  0  0  0  0  0  0  0  0  0
   15.1583   37.6527   -9.8909 H   0  0  0  0  0  0  0  0  0  0  0  0
   22.7612   40.7688  -10.1916 H   0  0  0  0  0  0  0  0  0  0  0  0
  1  2  1  0  0  0  0
  1 42  1  0  0  0  0
  1 43  1  0  0  0  0
  1 44  1  0  0  0  0
  2 38  1  1  0  0  0
  2  3  1  0  0  0  0
  2 28  1  0  0  0  0
  3  4  1  0  0  0  0
  3 45  1  0  0  0  0
  3 85  1  0  0  0  0
  4  5  1  0  0  0  0
  4 46  1  0  0  0  0
  4 47  1  0  0  0  0
  5 39  1  1  0  0  0
  5  6  1  0  0  0  0
  5  7  1  0  0  0  0
  6 48  1  0  0  0  0
  7 40  1  1  0  0  0
  7 27  1  0  0  0  0
  7  8  1  0  0  0  0
  8  9  1  0  0  0  0
  8 49  1  0  0  0  0
  8 50  1  0  0  0  0
  9 41  1  1  0  0  0
  9 10  1  0  0  0  0
  9 11  1  0  0  0  0
 10 51  1  0  0  0  0
 10 52  1  0  0  0  0
 10 53  1  0  0  0  0
 11 12  1  0  0  0  0
 11 54  1  0  0  0  0
 11 55  1  0  0  0  0
 12 13  1  0  0  0  0
 12 56  1  0  0  0  0
 12 57  1  0  0  0  0
 13 14  1  0  0  0  0
 13 58  1  0  0  0  0
 13 59  1  0  0  0  0
 14 15  1  0  0  0  0
 14 60  1  0  0  0  0
 14 61  1  0  0  0  0
 15 16  1  0  0  0  0
 15 62  1  0  0  0  0
 15 63  1  0  0  0  0
 16 17  1  0  0  0  0
 16 64  1  0  0  0  0
 16 65  1  0  0  0  0
 17 18  1  0  0  0  0
 17 66  1  0  0  0  0
 17 67  1  0  0  0  0
 18 19  1  0  0  0  0
 19 24  1  0  0  0  0
 19 20  2  0  0  0  0
 20 21  1  0  0  0  0
 20 68  1  0  0  0  0
 21 22  2  0  0  0  0
 21 25  1  0  0  0  0
 22 23  1  0  0  0  0
 22 69  1  0  0  0  0
 23 24  2  0  0  0  0
 23 70  1  0  0  0  0
 24 71  1  0  0  0  0
 25 26  2  0  0  0  0
 25 27  1  0  0  0  0
 27 72  1  0  0  0  0
 28 37  2  0  0  0  0
 28 29  1  0  0  0  0
 29 30  2  0  0  0  0
 29 73  1  0  0  0  0
 30 31  1  0  0  0  0
 30 36  1  0  0  0  0
 31 32  1  0  0  0  0
 31 74  1  0  0  0  0
 31 75  1  0  0  0  0
 32 33  1  0  0  0  0
 32 34  1  0  0  0  0
 32 35  1  0  0  0  0
 33 76  1  0  0  0  0
 33 77  1  0  0  0  0
 33 78  1  0  0  0  0
 34 79  1  0  0  0  0
 34 80  1  0  0  0  0
 34 81  1  0  0  0  0
 35 82  1  0  0  0  0
 35 83  1  0  0  0  0
 35 84  1  0  0  0  0
 36 37  1  0  0  0  0
M  CHG  1   3   1
M  END
