BACE_43.smi:1
 OpenBabel09301811243D
Structure written by MMmdl.
 84 86  0  0  1  0  0  0  0  0999 V2000
   18.0055   45.9515  -12.8466 C   0  0  0  0  0  0  0  0  0  0  0  0
   16.9239   45.1252  -12.4376 O   0  0  0  0  0  0  0  0  0  0  0  0
   17.2239   43.8429  -12.0376 C   0  0  0  0  0  0  0  0  0  0  0  0
   18.4586   43.2037  -12.2795 C   0  0  0  0  0  0  0  0  0  0  0  0
   18.6579   41.9002  -11.7832 C   0  0  0  0  0  0  0  0  0  0  0  0
   17.6073   41.2783  -11.0781 C   0  0  0  0  0  0  0  0  0  0  0  0
   16.3857   41.9734  -10.9247 C   0  0  0  0  0  0  0  0  0  0  0  0
   15.2526   41.4227  -10.3086 N   0  0  0  0  0  0  0  0  0  0  0  0
   15.2219   40.0683   -9.7734 C   0  0  0  0  0  0  0  0  0  0  0  0
   15.5090   40.0331   -8.2627 C   0  0  0  0  0  0  0  0  0  0  0  0
   15.8161   38.6116   -7.7643 C   0  0  0  0  0  0  0  0  0  0  0  0
   17.2701   38.1899   -8.0531 C   0  0  0  0  0  0  0  0  0  0  0  0
   18.1534   38.1338   -6.7950 C   0  0  0  0  0  0  0  0  0  0  0  0
   19.6341   38.3973   -7.0910 C   0  0  0  0  0  0  0  0  0  0  0  0
   20.0089   39.8675   -6.8484 C   0  0  0  0  0  0  0  0  0  0  0  0
   21.4281   40.2690   -7.3024 C   0  0  1  0  0  0  0  0  0  0  0  0
   22.4868   39.3775   -6.6461 C   0  0  0  0  0  0  0  0  0  0  0  0
   21.6250   40.3203   -8.8405 C   0  0  0  0  0  0  0  0  0  0  0  0
   20.7100   41.2745   -9.6606 C   0  0  2  0  0  0  0  0  0  0  0  0
   20.7434   40.8273  -11.0567 N   0  0  0  0  0  0  0  0  0  0  0  0
   19.9401   41.1799  -12.0744 C   0  0  0  0  0  0  0  0  0  0  0  0
   20.2480   40.9475  -13.2399 O   0  0  0  0  0  0  0  0  0  0  0  0
   21.0751   42.7937   -9.6021 C   0  0  2  0  0  0  0  0  0  0  0  0
   22.3042   43.0297  -10.2622 O   0  0  0  0  0  0  0  0  0  0  0  0
   21.1596   43.4673   -8.2192 C   0  0  0  0  0  0  0  0  0  0  0  0
   19.9606   43.2251   -7.3866 N   0  3  0  0  0  0  0  0  0  0  0  0
   20.0081   43.8663   -6.0585 C   0  0  0  0  0  0  0  0  0  0  0  0
   19.7558   45.3590   -6.1679 C   0  0  0  0  0  0  0  0  0  0  0  0
   20.8042   46.2731   -5.9308 C   0  0  0  0  0  0  0  0  0  0  0  0
   20.5850   47.6636   -6.0453 C   0  0  0  0  0  0  0  0  0  0  0  0
   19.3060   48.1337   -6.4177 C   0  0  0  0  0  0  0  0  0  0  0  0
   18.2597   47.2251   -6.6580 C   0  0  0  0  0  0  0  0  0  0  0  0
   18.4800   45.8406   -6.5298 C   0  0  0  0  0  0  0  0  0  0  0  0
   21.7354   48.6336   -5.8029 C   0  0  0  0  0  0  0  0  0  0  0  0
   21.3568   49.7571   -4.8242 C   0  0  0  0  0  0  0  0  0  0  0  0
   22.2730   49.1959   -7.1268 C   0  0  0  0  0  0  0  0  0  0  0  0
   16.2068   43.2243  -11.4014 N   0  0  0  0  0  0  0  0  0  0  0  0
   21.6198   41.2514   -6.8871 H   0  0  0  0  0  0  0  0  0  0  0  0
   19.6860   41.1451   -9.3186 H   0  0  0  0  0  0  0  0  0  0  0  0
   20.3237   43.3495  -10.1621 H   0  0  0  0  0  0  0  0  0  0  0  0
   17.6389   46.9608  -13.0367 H   0  0  0  0  0  0  0  0  0  0  0  0
   18.4598   45.5878  -13.7685 H   0  0  0  0  0  0  0  0  0  0  0  0
   18.7722   46.0182  -12.0726 H   0  0  0  0  0  0  0  0  0  0  0  0
   19.2506   43.6895  -12.8268 H   0  0  0  0  0  0  0  0  0  0  0  0
   17.7491   40.2743  -10.7086 H   0  0  0  0  0  0  0  0  0  0  0  0
   14.4306   41.9962  -10.1878 H   0  0  0  0  0  0  0  0  0  0  0  0
   14.2258   39.6589   -9.9513 H   0  0  0  0  0  0  0  0  0  0  0  0
   15.8993   39.4148  -10.3209 H   0  0  0  0  0  0  0  0  0  0  0  0
   16.3386   40.6942   -8.0084 H   0  0  0  0  0  0  0  0  0  0  0  0
   14.6408   40.4238   -7.7297 H   0  0  0  0  0  0  0  0  0  0  0  0
   15.6119   38.5508   -6.6943 H   0  0  0  0  0  0  0  0  0  0  0  0
   15.1227   37.9048   -8.2223 H   0  0  0  0  0  0  0  0  0  0  0  0
   17.2772   37.2088   -8.5278 H   0  0  0  0  0  0  0  0  0  0  0  0
   17.7101   38.8687   -8.7834 H   0  0  0  0  0  0  0  0  0  0  0  0
   17.8006   38.8363   -6.0384 H   0  0  0  0  0  0  0  0  0  0  0  0
   18.0601   37.1481   -6.3401 H   0  0  0  0  0  0  0  0  0  0  0  0
   20.2342   37.7622   -6.4404 H   0  0  0  0  0  0  0  0  0  0  0  0
   19.8704   38.0841   -8.1078 H   0  0  0  0  0  0  0  0  0  0  0  0
   19.2543   40.5032   -7.3049 H   0  0  0  0  0  0  0  0  0  0  0  0
   19.9211   40.0612   -5.7778 H   0  0  0  0  0  0  0  0  0  0  0  0
   22.4427   38.3582   -7.0243 H   0  0  0  0  0  0  0  0  0  0  0  0
   22.3578   39.3417   -5.5626 H   0  0  0  0  0  0  0  0  0  0  0  0
   23.4928   39.7481   -6.8454 H   0  0  0  0  0  0  0  0  0  0  0  0
   22.6672   40.5568   -9.0569 H   0  0  0  0  0  0  0  0  0  0  0  0
   21.4932   39.3050   -9.2178 H   0  0  0  0  0  0  0  0  0  0  0  0
   21.5735   40.3238  -11.3338 H   0  0  0  0  0  0  0  0  0  0  0  0
   22.9568   42.4234   -9.9412 H   0  0  0  0  0  0  0  0  0  0  0  0
   22.0599   43.1549   -7.6911 H   0  0  0  0  0  0  0  0  0  0  0  0
   21.2705   44.5431   -8.3665 H   0  0  0  0  0  0  0  0  0  0  0  0
   19.1361   43.5479   -7.8722 H   0  0  0  0  0  0  0  0  0  0  0  0
   19.2601   43.4105   -5.4132 H   0  0  0  0  0  0  0  0  0  0  0  0
   20.9694   43.6686   -5.5803 H   0  0  0  0  0  0  0  0  0  0  0  0
   21.7845   45.9047   -5.6609 H   0  0  0  0  0  0  0  0  0  0  0  0
   19.1234   49.1924   -6.5288 H   0  0  0  0  0  0  0  0  0  0  0  0
   17.2853   47.5901   -6.9489 H   0  0  0  0  0  0  0  0  0  0  0  0
   17.6704   45.1512   -6.7230 H   0  0  0  0  0  0  0  0  0  0  0  0
   22.5472   48.0722   -5.3378 H   0  0  0  0  0  0  0  0  0  0  0  0
   20.9838   49.3502   -3.8839 H   0  0  0  0  0  0  0  0  0  0  0  0
   20.5841   50.4098   -5.2304 H   0  0  0  0  0  0  0  0  0  0  0  0
   22.2193   50.3802   -4.5881 H   0  0  0  0  0  0  0  0  0  0  0  0
   22.6058   48.3919   -7.7835 H   0  0  0  0  0  0  0  0  0  0  0  0
   23.1257   49.8543   -6.9581 H   0  0  0  0  0  0  0  0  0  0  0  0
   21.5097   49.7633   -7.6596 H   0  0  0  0  0  0  0  0  0  0  0  0
   19.8737   42.2291   -7.2386 H   0  0  0  0  0  0  0  0  0  0  0  0
  1  2  1  0  0  0  0
  1 41  1  0  0  0  0
  1 42  1  0  0  0  0
  1 43  1  0  0  0  0
  2  3  1  0  0  0  0
  3 37  1  0  0  0  0
  3  4  2  0  0  0  0
  4  5  1  0  0  0  0
  4 44  1  0  0  0  0
  5 21  1  0  0  0  0
  5  6  2  0  0  0  0
  6  7  1  0  0  0  0
  6 45  1  0  0  0  0
  7  8  1  0  0  0  0
  7 37  2  0  0  0  0
  8  9  1  0  0  0  0
  8 46  1  0  0  0  0
  9 10  1  0  0  0  0
  9 47  1  0  0  0  0
  9 48  1  0  0  0  0
 10 11  1  0  0  0  0
 10 49  1  0  0  0  0
 10 50  1  0  0  0  0
 11 12  1  0  0  0  0
 11 51  1  0  0  0  0
 11 52  1  0  0  0  0
 12 13  1  0  0  0  0
 12 53  1  0  0  0  0
 12 54  1  0  0  0  0
 13 14  1  0  0  0  0
 13 55  1  0  0  0  0
 13 56  1  0  0  0  0
 14 15  1  0  0  0  0
 14 57  1  0  0  0  0
 14 58  1  0  0  0  0
 15 16  1  0  0  0  0
 15 59  1  0  0  0  0
 15 60  1  0  0  0  0
 16 38  1  1  0  0  0
 16 17  1  0  0  0  0
 16 18  1  0  0  0  0
 17 61  1  0  0  0  0
 17 62  1  0  0  0  0
 17 63  1  0  0  0  0
 18 19  1  0  0  0  0
 18 64  1  0  0  0  0
 18 65  1  0  0  0  0
 19 39  1  1  0  0  0
 19 20  1  0  0  0  0
 19 23  1  0  0  0  0
 20 21  1  0  0  0  0
 20 66  1  0  0  0  0
 21 22  2  0  0  0  0
 23 40  1  6  0  0  0
 23 24  1  0  0  0  0
 23 25  1  0  0  0  0
 24 67  1  0  0  0  0
 25 26  1  0  0  0  0
 25 68  1  0  0  0  0
 25 69  1  0  0  0  0
 26 27  1  0  0  0  0
 26 70  1  0  0  0  0
 26 84  1  0  0  0  0
 27 28  1  0  0  0  0
 27 71  1  0  0  0  0
 27 72  1  0  0  0  0
 28 33  1  0  0  0  0
 28 29  2  0  0  0  0
 29 30  1  0  0  0  0
 29 73  1  0  0  0  0
 30 31  2  0  0  0  0
 30 34  1  0  0  0  0
 31 32  1  0  0  0  0
 31 74  1  0  0  0  0
 32 33  2  0  0  0  0
 32 75  1  0  0  0  0
 33 76  1  0  0  0  0
 34 35  1  0  0  0  0
 34 36  1  0  0  0  0
 34 77  1  0  0  0  0
 35 78  1  0  0  0  0
 35 79  1  0  0  0  0
 35 80  1  0  0  0  0
 36 81  1  0  0  0  0
 36 82  1  0  0  0  0
 36 83  1  0  0  0  0
M  CHG  1  26   1
M  END
