BACE_62.smi:1
 OpenBabel09301811243D
Structure written by MMmdl.
 88 91  0  0  1  0  0  0  0  0999 V2000
   16.9327   47.6391   -9.2704 C   0  0  0  0  0  0  0  0  0  0  0  0
   18.3008   47.4098   -8.9764 O   0  0  0  0  0  0  0  0  0  0  0  0
   18.9793   46.7123  -10.0090 C   0  0  0  0  0  0  0  0  0  0  0  0
   18.4814   45.2843  -10.1335 C   0  0  0  0  0  0  0  0  0  0  0  0
   17.4658   44.8109   -9.2779 C   0  0  0  0  0  0  0  0  0  0  0  0
   16.9860   43.4889   -9.3878 C   0  0  0  0  0  0  0  0  0  0  0  0
   17.5453   42.6336  -10.3704 C   0  0  0  0  0  0  0  0  0  0  0  0
   18.5646   43.0979  -11.2333 C   0  0  0  0  0  0  0  0  0  0  0  0
   19.0195   44.4290  -11.1164 C   0  0  0  0  0  0  0  0  0  0  0  0
   19.0910   42.2319  -12.3430 C   0  0  0  0  0  0  0  0  0  0  0  0
   18.8572   42.5495  -13.5081 O   0  0  0  0  0  0  0  0  0  0  0  0
   19.8174   41.1305  -12.0577 N   0  0  0  0  0  0  0  0  0  0  0  0
   20.3469   40.6166  -10.7849 C   0  0  1  0  0  0  0  0  0  0  0  0
   19.8457   39.1453  -10.6198 C   0  0  0  0  0  0  0  0  0  0  0  0
   18.9776   38.8446   -9.3670 C   0  0  2  0  0  0  0  0  0  0  0  0
   19.8175   38.8105   -8.0728 C   0  0  0  0  0  0  0  0  0  0  0  0
   18.1725   37.5325   -9.5755 C   0  0  0  0  0  0  0  0  0  0  0  0
   17.1691   37.1246   -8.4685 C   0  0  0  0  0  0  0  0  0  0  0  0
   16.1150   38.1762   -8.0609 C   0  0  0  0  0  0  0  0  0  0  0  0
   15.1436   38.5965   -9.1842 C   0  0  0  0  0  0  0  0  0  0  0  0
   14.1235   39.6797   -8.7693 C   0  0  0  0  0  0  0  0  0  0  0  0
   14.5265   41.1345   -9.0948 C   0  0  0  0  0  0  0  0  0  0  0  0
   15.6721   41.6985   -8.2330 C   0  0  0  0  0  0  0  0  0  0  0  0
   15.9526   43.0999   -8.5180 N   0  0  0  0  0  0  0  0  0  0  0  0
   21.9050   40.7187  -10.8030 C   0  0  2  0  0  0  0  0  0  0  0  0
   22.4288   40.1634   -9.6114 O   0  0  0  0  0  0  0  0  0  0  0  0
   22.4662   42.1573  -10.9023 C   0  0  0  0  0  0  0  0  0  0  0  0
   23.9151   42.1561  -11.2001 N   0  3  0  0  0  0  0  0  0  0  0  0
   24.7720   41.7721  -10.0598 C   0  0  0  0  0  0  0  0  0  0  0  0
   26.2112   42.2103  -10.2906 C   0  0  0  0  0  0  0  0  0  0  0  0
   27.0454   41.4666  -11.1465 C   0  0  0  0  0  0  0  0  0  0  0  0
   28.3779   41.8658  -11.3747 C   0  0  0  0  0  0  0  0  0  0  0  0
   29.1510   41.0739  -12.1858 O   0  0  0  0  0  0  0  0  0  0  0  0
   29.6803   41.7157  -13.3370 C   0  0  0  0  0  0  0  0  0  0  0  0
   30.9211   42.5422  -12.9937 C   0  0  0  0  0  0  0  0  0  0  0  0
   30.5893   43.7823  -12.1614 C   0  0  0  0  0  0  0  0  0  0  0  0
   30.1877   43.4303  -10.8454 O   0  0  0  0  0  0  0  0  0  0  0  0
   28.8851   43.0182  -10.7187 C   0  0  0  0  0  0  0  0  0  0  0  0
   28.0489   43.7471   -9.8490 C   0  0  0  0  0  0  0  0  0  0  0  0
   26.7137   43.3525   -9.6408 C   0  0  0  0  0  0  0  0  0  0  0  0
   19.9819   41.2194   -9.9540 H   0  0  0  0  0  0  0  0  0  0  0  0
   18.2578   39.6555   -9.2762 H   0  0  0  0  0  0  0  0  0  0  0  0
   22.2874   40.1347  -11.6419 H   0  0  0  0  0  0  0  0  0  0  0  0
   16.4675   48.1761   -8.4438 H   0  0  0  0  0  0  0  0  0  0  0  0
   16.3921   46.7013   -9.4055 H   0  0  0  0  0  0  0  0  0  0  0  0
   16.8151   48.2446  -10.1701 H   0  0  0  0  0  0  0  0  0  0  0  0
   20.0526   46.7010   -9.8110 H   0  0  0  0  0  0  0  0  0  0  0  0
   18.8396   47.2252  -10.9622 H   0  0  0  0  0  0  0  0  0  0  0  0
   17.0441   45.4715   -8.5334 H   0  0  0  0  0  0  0  0  0  0  0  0
   17.1769   41.6269  -10.4984 H   0  0  0  0  0  0  0  0  0  0  0  0
   19.7823   44.7998  -11.7866 H   0  0  0  0  0  0  0  0  0  0  0  0
   20.1062   40.5945  -12.8635 H   0  0  0  0  0  0  0  0  0  0  0  0
   19.2629   38.8774  -11.5029 H   0  0  0  0  0  0  0  0  0  0  0  0
   20.6821   38.4457  -10.6495 H   0  0  0  0  0  0  0  0  0  0  0  0
   19.2018   38.6350   -7.1915 H   0  0  0  0  0  0  0  0  0  0  0  0
   20.3230   39.7595   -7.8999 H   0  0  0  0  0  0  0  0  0  0  0  0
   20.5756   38.0273   -8.1065 H   0  0  0  0  0  0  0  0  0  0  0  0
   18.8734   36.7081   -9.7144 H   0  0  0  0  0  0  0  0  0  0  0  0
   17.6242   37.5960  -10.5156 H   0  0  0  0  0  0  0  0  0  0  0  0
   17.7210   36.8249   -7.5774 H   0  0  0  0  0  0  0  0  0  0  0  0
   16.6518   36.2207   -8.7925 H   0  0  0  0  0  0  0  0  0  0  0  0
   16.6166   39.0413   -7.6344 H   0  0  0  0  0  0  0  0  0  0  0  0
   15.5284   37.7602   -7.2407 H   0  0  0  0  0  0  0  0  0  0  0  0
   15.6852   38.9290  -10.0693 H   0  0  0  0  0  0  0  0  0  0  0  0
   14.5921   37.7083   -9.4956 H   0  0  0  0  0  0  0  0  0  0  0  0
   13.8611   39.5813   -7.7152 H   0  0  0  0  0  0  0  0  0  0  0  0
   13.1990   39.4803   -9.3128 H   0  0  0  0  0  0  0  0  0  0  0  0
   14.7722   41.2157  -10.1539 H   0  0  0  0  0  0  0  0  0  0  0  0
   13.6488   41.7659   -8.9494 H   0  0  0  0  0  0  0  0  0  0  0  0
   15.4009   41.6274   -7.1793 H   0  0  0  0  0  0  0  0  0  0  0  0
   16.5826   41.1161   -8.3507 H   0  0  0  0  0  0  0  0  0  0  0  0
   15.6413   43.7725   -7.8319 H   0  0  0  0  0  0  0  0  0  0  0  0
   22.9784   39.4292   -9.8391 H   0  0  0  0  0  0  0  0  0  0  0  0
   22.2795   42.7044   -9.9766 H   0  0  0  0  0  0  0  0  0  0  0  0
   21.9780   42.7105  -11.7038 H   0  0  0  0  0  0  0  0  0  0  0  0
   24.1803   43.0828  -11.5017 H   0  0  0  0  0  0  0  0  0  0  0  0
   24.7364   40.6909   -9.9182 H   0  0  0  0  0  0  0  0  0  0  0  0
   24.3938   42.2260   -9.1427 H   0  0  0  0  0  0  0  0  0  0  0  0
   26.6593   40.5826  -11.6322 H   0  0  0  0  0  0  0  0  0  0  0  0
   29.9531   40.9386  -14.0510 H   0  0  0  0  0  0  0  0  0  0  0  0
   28.9224   42.3279  -13.8258 H   0  0  0  0  0  0  0  0  0  0  0  0
   31.6589   41.9256  -12.4803 H   0  0  0  0  0  0  0  0  0  0  0  0
   31.3882   42.8659  -13.9239 H   0  0  0  0  0  0  0  0  0  0  0  0
   29.8308   44.3934  -12.6507 H   0  0  0  0  0  0  0  0  0  0  0  0
   31.4786   44.4071  -12.0783 H   0  0  0  0  0  0  0  0  0  0  0  0
   28.4343   44.6165   -9.3371 H   0  0  0  0  0  0  0  0  0  0  0  0
   26.0794   43.9209   -8.9767 H   0  0  0  0  0  0  0  0  0  0  0  0
   24.0843   41.5097  -11.9574 H   0  0  0  0  0  0  0  0  0  0  0  0
  1  2  1  0  0  0  0
  1 44  1  0  0  0  0
  1 45  1  0  0  0  0
  1 46  1  0  0  0  0
  2  3  1  0  0  0  0
  3  4  1  0  0  0  0
  3 47  1  0  0  0  0
  3 48  1  0  0  0  0
  4  9  1  0  0  0  0
  4  5  2  0  0  0  0
  5  6  1  0  0  0  0
  5 49  1  0  0  0  0
  6 24  1  0  0  0  0
  6  7  2  0  0  0  0
  7  8  1  0  0  0  0
  7 50  1  0  0  0  0
  8  9  2  0  0  0  0
  8 10  1  0  0  0  0
  9 51  1  0  0  0  0
 10 11  2  0  0  0  0
 10 12  1  0  0  0  0
 12 13  1  0  0  0  0
 12 52  1  0  0  0  0
 13 41  1  1  0  0  0
 13 14  1  0  0  0  0
 13 25  1  0  0  0  0
 14 15  1  0  0  0  0
 14 53  1  0  0  0  0
 14 54  1  0  0  0  0
 15 42  1  1  0  0  0
 15 16  1  0  0  0  0
 15 17  1  0  0  0  0
 16 55  1  0  0  0  0
 16 56  1  0  0  0  0
 16 57  1  0  0  0  0
 17 18  1  0  0  0  0
 17 58  1  0  0  0  0
 17 59  1  0  0  0  0
 18 19  1  0  0  0  0
 18 60  1  0  0  0  0
 18 61  1  0  0  0  0
 19 20  1  0  0  0  0
 19 62  1  0  0  0  0
 19 63  1  0  0  0  0
 20 21  1  0  0  0  0
 20 64  1  0  0  0  0
 20 65  1  0  0  0  0
 21 22  1  0  0  0  0
 21 66  1  0  0  0  0
 21 67  1  0  0  0  0
 22 23  1  0  0  0  0
 22 68  1  0  0  0  0
 22 69  1  0  0  0  0
 23 24  1  0  0  0  0
 23 70  1  0  0  0  0
 23 71  1  0  0  0  0
 24 72  1  0  0  0  0
 25 43  1  6  0  0  0
 25 26  1  0  0  0  0
 25 27  1  0  0  0  0
 26 73  1  0  0  0  0
 27 28  1  0  0  0  0
 27 74  1  0  0  0  0
 27 75  1  0  0  0  0
 28 29  1  0  0  0  0
 28 76  1  0  0  0  0
 28 88  1  0  0  0  0
 29 30  1  0  0  0  0
 29 77  1  0  0  0  0
 29 78  1  0  0  0  0
 30 40  1  0  0  0  0
 30 31  2  0  0  0  0
 31 32  1  0  0  0  0
 31 79  1  0  0  0  0
 32 38  2  0  0  0  0
 32 33  1  0  0  0  0
 33 34  1  0  0  0  0
 34 35  1  0  0  0  0
 34 80  1  0  0  0  0
 34 81  1  0  0  0  0
 35 36  1  0  0  0  0
 35 82  1  0  0  0  0
 35 83  1  0  0  0  0
 36 37  1  0  0  0  0
 36 84  1  0  0  0  0
 36 85  1  0  0  0  0
 37 38  1  0  0  0  0
 38 39  1  0  0  0  0
 39 40  2  0  0  0  0
 39 86  1  0  0  0  0
 40 87  1  0  0  0  0
M  CHG  1  28   1
M  END
