BACE_118.smi:1
 OpenBabel09301811243D
Structure written by MMmdl.
 79 82  0  0  1  0  0  0  0  0999 V2000
   20.5339   42.6770   -2.4617 C   0  0  0  0  0  0  0  0  0  0  0  0
   21.7712   42.3618   -3.3191 C   0  0  0  0  0  0  0  0  0  0  0  0
   22.5883   43.6161   -3.6445 C   0  0  0  0  0  0  0  0  0  0  0  0
   21.3975   41.6227   -4.5928 C   0  0  0  0  0  0  0  0  0  0  0  0
   21.9263   40.3385   -4.8404 C   0  0  0  0  0  0  0  0  0  0  0  0
   21.5483   39.6373   -5.9986 C   0  0  0  0  0  0  0  0  0  0  0  0
   20.6285   40.2069   -6.8964 C   0  0  0  0  0  0  0  0  0  0  0  0
   20.1178   41.4997   -6.6818 C   0  0  0  0  0  0  0  0  0  0  0  0
   19.1115   42.1025   -7.6457 C   0  0  0  0  0  0  0  0  0  0  0  0
   17.8389   41.3473   -7.6400 N   0  3  0  0  0  0  0  0  0  0  0  0
   16.6161   42.1487   -7.8746 C   0  0  0  0  0  0  0  0  0  0  0  0
   15.7217   41.5750   -8.9942 C   0  0  1  0  0  0  0  0  0  0  0  0
   14.4599   42.1976   -8.8951 O   0  0  0  0  0  0  0  0  0  0  0  0
   16.2112   41.7406  -10.4665 C   0  0  2  0  0  0  0  0  0  0  0  0
   16.4791   40.3816  -11.1397 C   0  0  0  0  0  0  0  0  0  0  0  0
   17.6510   39.6018  -10.5637 C   0  0  0  0  0  0  0  0  0  0  0  0
   17.4245   38.5336   -9.6713 C   0  0  0  0  0  0  0  0  0  0  0  0
   18.5072   37.7686   -9.2015 C   0  0  0  0  0  0  0  0  0  0  0  0
   19.8183   38.0795   -9.6100 C   0  0  0  0  0  0  0  0  0  0  0  0
   20.0559   39.1655  -10.4740 C   0  0  0  0  0  0  0  0  0  0  0  0
   21.4725   39.5530  -10.8525 C   0  0  0  0  0  0  0  0  0  0  0  0
   22.1373   40.4476   -9.7930 C   0  0  0  0  0  0  0  0  0  0  0  0
   23.3546   41.2333  -10.2945 C   0  0  0  0  0  0  0  0  0  0  0  0
   22.9857   42.4530  -11.1677 C   0  0  0  0  0  0  0  0  0  0  0  0
   22.4828   43.5870  -10.3873 N   0  0  0  0  0  0  0  0  0  0  0  0
   23.4402   44.3712   -9.6128 C   0  0  0  0  0  0  0  0  0  0  0  0
   21.3370   44.2527  -10.8716 C   0  0  0  0  0  0  0  0  0  0  0  0
   21.3486   45.6359  -11.1692 C   0  0  0  0  0  0  0  0  0  0  0  0
   20.1860   46.2806  -11.6344 C   0  0  0  0  0  0  0  0  0  0  0  0
   18.9896   45.5562  -11.7915 C   0  0  0  0  0  0  0  0  0  0  0  0
   18.9487   44.1827  -11.4797 C   0  0  0  0  0  0  0  0  0  0  0  0
   20.1320   43.5362  -11.0466 C   0  0  0  0  0  0  0  0  0  0  0  0
   17.6620   43.4238  -11.6163 C   0  0  0  0  0  0  0  0  0  0  0  0
   16.9139   43.5903  -12.5808 O   0  0  0  0  0  0  0  0  0  0  0  0
   17.3871   42.6044  -10.5911 N   0  0  0  0  0  0  0  0  0  0  0  0
   18.9663   39.9032  -10.9719 C   0  0  0  0  0  0  0  0  0  0  0  0
   20.5164   42.2091   -5.5287 C   0  0  0  0  0  0  0  0  0  0  0  0
   15.5338   40.5224   -8.7808 H   0  0  0  0  0  0  0  0  0  0  0  0
   15.4038   42.2009  -11.0401 H   0  0  0  0  0  0  0  0  0  0  0  0
   19.9850   41.7680   -2.2143 H   0  0  0  0  0  0  0  0  0  0  0  0
   19.8451   43.3485   -2.9738 H   0  0  0  0  0  0  0  0  0  0  0  0
   20.8167   43.1565   -1.5247 H   0  0  0  0  0  0  0  0  0  0  0  0
   22.4102   41.7051   -2.7281 H   0  0  0  0  0  0  0  0  0  0  0  0
   23.5062   43.3500   -4.1685 H   0  0  0  0  0  0  0  0  0  0  0  0
   22.8599   44.1484   -2.7332 H   0  0  0  0  0  0  0  0  0  0  0  0
   22.0342   44.3062   -4.2805 H   0  0  0  0  0  0  0  0  0  0  0  0
   22.6092   39.8812   -4.1386 H   0  0  0  0  0  0  0  0  0  0  0  0
   21.9434   38.6497   -6.1862 H   0  0  0  0  0  0  0  0  0  0  0  0
   20.3152   39.6458   -7.7553 H   0  0  0  0  0  0  0  0  0  0  0  0
   18.9424   43.1412   -7.3572 H   0  0  0  0  0  0  0  0  0  0  0  0
   19.5210   42.1156   -8.6515 H   0  0  0  0  0  0  0  0  0  0  0  0
   17.8883   40.5451   -8.2541 H   0  0  0  0  0  0  0  0  0  0  0  0
   16.0654   42.1203   -6.9330 H   0  0  0  0  0  0  0  0  0  0  0  0
   16.8336   43.2021   -8.0538 H   0  0  0  0  0  0  0  0  0  0  0  0
   13.8588   41.6133   -8.4405 H   0  0  0  0  0  0  0  0  0  0  0  0
   15.5798   39.7649  -11.1051 H   0  0  0  0  0  0  0  0  0  0  0  0
   16.6794   40.5518  -12.1963 H   0  0  0  0  0  0  0  0  0  0  0  0
   16.4204   38.2762   -9.3634 H   0  0  0  0  0  0  0  0  0  0  0  0
   18.3302   36.9439   -8.5261 H   0  0  0  0  0  0  0  0  0  0  0  0
   20.6484   37.4953   -9.2384 H   0  0  0  0  0  0  0  0  0  0  0  0
   22.0573   38.6432  -10.9631 H   0  0  0  0  0  0  0  0  0  0  0  0
   21.4597   40.0390  -11.8288 H   0  0  0  0  0  0  0  0  0  0  0  0
   21.4193   41.1635   -9.4021 H   0  0  0  0  0  0  0  0  0  0  0  0
   22.4384   39.8217   -8.9518 H   0  0  0  0  0  0  0  0  0  0  0  0
   23.9475   41.5551   -9.4390 H   0  0  0  0  0  0  0  0  0  0  0  0
   24.0060   40.5522  -10.8404 H   0  0  0  0  0  0  0  0  0  0  0  0
   23.8833   42.7874  -11.6897 H   0  0  0  0  0  0  0  0  0  0  0  0
   22.2862   42.1659  -11.9521 H   0  0  0  0  0  0  0  0  0  0  0  0
   22.9289   45.0702   -8.9499 H   0  0  0  0  0  0  0  0  0  0  0  0
   24.0998   44.9359  -10.2727 H   0  0  0  0  0  0  0  0  0  0  0  0
   24.0600   43.7288   -8.9898 H   0  0  0  0  0  0  0  0  0  0  0  0
   22.2533   46.2153  -11.0596 H   0  0  0  0  0  0  0  0  0  0  0  0
   20.2135   47.3353  -11.8696 H   0  0  0  0  0  0  0  0  0  0  0  0
   18.1017   46.0629  -12.1414 H   0  0  0  0  0  0  0  0  0  0  0  0
   20.1229   42.4818  -10.8251 H   0  0  0  0  0  0  0  0  0  0  0  0
   18.0715   42.5613   -9.8545 H   0  0  0  0  0  0  0  0  0  0  0  0
   19.1366   40.6995  -11.6802 H   0  0  0  0  0  0  0  0  0  0  0  0
   20.1125   43.1920   -5.3379 H   0  0  0  0  0  0  0  0  0  0  0  0
   17.7470   41.0097   -6.6830 H   0  0  0  0  0  0  0  0  0  0  0  0
  1  2  1  0  0  0  0
  1 40  1  0  0  0  0
  1 41  1  0  0  0  0
  1 42  1  0  0  0  0
  2  3  1  0  0  0  0
  2  4  1  0  0  0  0
  2 43  1  0  0  0  0
  3 44  1  0  0  0  0
  3 45  1  0  0  0  0
  3 46  1  0  0  0  0
  4 37  1  0  0  0  0
  4  5  2  0  0  0  0
  5  6  1  0  0  0  0
  5 47  1  0  0  0  0
  6  7  2  0  0  0  0
  6 48  1  0  0  0  0
  7  8  1  0  0  0  0
  7 49  1  0  0  0  0
  8  9  1  0  0  0  0
  8 37  2  0  0  0  0
  9 10  1  0  0  0  0
  9 50  1  0  0  0  0
  9 51  1  0  0  0  0
 10 11  1  0  0  0  0
 10 52  1  0  0  0  0
 10 79  1  0  0  0  0
 11 12  1  0  0  0  0
 11 53  1  0  0  0  0
 11 54  1  0  0  0  0
 12 38  1  1  0  0  0
 12 13  1  0  0  0  0
 12 14  1  0  0  0  0
 13 55  1  0  0  0  0
 14 39  1  6  0  0  0
 14 35  1  0  0  0  0
 14 15  1  0  0  0  0
 15 16  1  0  0  0  0
 15 56  1  0  0  0  0
 15 57  1  0  0  0  0
 16 36  1  0  0  0  0
 16 17  2  0  0  0  0
 17 18  1  0  0  0  0
 17 58  1  0  0  0  0
 18 19  2  0  0  0  0
 18 59  1  0  0  0  0
 19 20  1  0  0  0  0
 19 60  1  0  0  0  0
 20 21  1  0  0  0  0
 20 36  2  0  0  0  0
 21 22  1  0  0  0  0
 21 61  1  0  0  0  0
 21 62  1  0  0  0  0
 22 23  1  0  0  0  0
 22 63  1  0  0  0  0
 22 64  1  0  0  0  0
 23 24  1  0  0  0  0
 23 65  1  0  0  0  0
 23 66  1  0  0  0  0
 24 25  1  0  0  0  0
 24 67  1  0  0  0  0
 24 68  1  0  0  0  0
 25 26  1  0  0  0  0
 25 27  1  0  0  0  0
 26 69  1  0  0  0  0
 26 70  1  0  0  0  0
 26 71  1  0  0  0  0
 27 32  1  0  0  0  0
 27 28  2  0  0  0  0
 28 29  1  0  0  0  0
 28 72  1  0  0  0  0
 29 30  2  0  0  0  0
 29 73  1  0  0  0  0
 30 31  1  0  0  0  0
 30 74  1  0  0  0  0
 31 32  2  0  0  0  0
 31 33  1  0  0  0  0
 32 75  1  0  0  0  0
 33 34  2  0  0  0  0
 33 35  1  0  0  0  0
 35 76  1  0  0  0  0
 36 77  1  0  0  0  0
 37 78  1  0  0  0  0
M  CHG  1  10   1
M  END
