BACE_59.smi:1
 OpenBabel09301811243D
Structure written by MMmdl.
 93 97  0  0  1  0  0  0  0  0999 V2000
   21.7589   48.1577   -6.1372 C   0  0  0  0  0  0  0  0  0  0  0  0
   21.5698   46.6745   -6.4995 C   0  0  2  0  0  0  0  0  0  0  0  0
   22.9182   45.9196   -6.4663 C   0  0  0  0  0  0  0  0  0  0  0  0
   23.3796   45.5085   -5.0558 C   0  0  0  0  0  0  0  0  0  0  0  0
   22.5897   44.3387   -4.4374 C   0  0  0  0  0  0  0  0  0  0  0  0
   22.8554   42.9874   -5.1105 C   0  0  0  0  0  0  0  0  0  0  0  0
   22.1679   41.8230   -4.3781 C   0  0  0  0  0  0  0  0  0  0  0  0
   22.2246   40.5087   -5.1703 C   0  0  0  0  0  0  0  0  0  0  0  0
   21.3232   40.5317   -6.4205 C   0  0  0  0  0  0  0  0  0  0  0  0
   22.0596   40.1925   -7.6333 N   0  0  0  0  0  0  0  0  0  0  0  0
   22.3727   41.2042   -8.5553 C   0  0  0  0  0  0  0  0  0  0  0  0
   23.6625   41.2102   -9.1270 C   0  0  0  0  0  0  0  0  0  0  0  0
   24.0235   42.1809  -10.0864 C   0  0  0  0  0  0  0  0  0  0  0  0
   23.0770   43.1510  -10.4727 C   0  0  0  0  0  0  0  0  0  0  0  0
   21.7855   43.1698   -9.9075 C   0  0  0  0  0  0  0  0  0  0  0  0
   21.4314   42.1822   -8.9561 C   0  0  0  0  0  0  0  0  0  0  0  0
   20.7907   44.1674  -10.4309 C   0  0  0  0  0  0  0  0  0  0  0  0
   20.6001   44.2490  -11.6399 O   0  0  0  0  0  0  0  0  0  0  0  0
   20.1408   45.0010   -9.6057 N   0  0  0  0  0  0  0  0  0  0  0  0
   20.2113   45.1639   -8.1579 C   0  0  1  0  0  0  0  0  0  0  0  0
   20.8849   46.5340   -7.8767 C   0  0  0  0  0  0  0  0  0  0  0  0
   18.7699   45.0560   -7.5805 C   0  0  2  0  0  0  0  0  0  0  0  0
   18.8600   44.9499   -6.1761 O   0  0  0  0  0  0  0  0  0  0  0  0
   17.9560   43.8365   -8.0918 C   0  0  0  0  0  0  0  0  0  0  0  0
   16.5129   44.0818   -8.0298 N   0  0  0  0  0  0  0  0  0  0  0  0
   15.6872   43.1279   -8.7727 C   0  0  0  0  0  0  0  0  0  0  0  0
   15.4065   43.4418  -10.2250 C   0  0  0  0  0  0  0  0  0  0  0  0
   14.3087   43.5804   -9.1961 C   0  0  0  0  0  0  0  0  0  0  0  0
   15.8931   41.7026   -8.3492 C   0  0  0  0  0  0  0  0  0  0  0  0
   16.7458   40.8155   -9.0404 C   0  0  0  0  0  0  0  0  0  0  0  0
   16.9385   39.4967   -8.5612 C   0  0  0  0  0  0  0  0  0  0  0  0
   16.2481   39.1209   -7.3858 C   0  0  0  0  0  0  0  0  0  0  0  0
   15.3943   40.0291   -6.7441 C   0  0  0  0  0  0  0  0  0  0  0  0
   15.2602   41.2762   -7.2363 N   0  3  0  0  0  0  0  0  0  0  0  0
   17.8775   38.4935   -9.2531 C   0  0  0  0  0  0  0  0  0  0  0  0
   18.3826   39.0029  -10.6202 C   0  0  0  0  0  0  0  0  0  0  0  0
   19.1118   38.2570   -8.3694 C   0  0  0  0  0  0  0  0  0  0  0  0
   17.1526   37.1503   -9.4748 C   0  0  0  0  0  0  0  0  0  0  0  0
   25.3541   42.1691  -10.6909 C   0  0  0  0  0  0  0  0  0  0  0  0
   26.3728   41.3499  -10.4385 N   0  0  0  0  0  0  0  0  0  0  0  0
   27.3930   41.7516  -11.2854 C   0  0  0  0  0  0  0  0  0  0  0  0
   26.9405   42.8214  -12.0107 C   0  0  0  0  0  0  0  0  0  0  0  0
   25.6516   43.0966  -11.6439 O   0  0  0  0  0  0  0  0  0  0  0  0
   20.9103   46.2619   -5.7414 H   0  0  0  0  0  0  0  0  0  0  0  0
   20.8192   44.3732   -7.7250 H   0  0  0  0  0  0  0  0  0  0  0  0
   18.2277   45.9708   -7.8256 H   0  0  0  0  0  0  0  0  0  0  0  0
   22.2107   48.2744   -5.1523 H   0  0  0  0  0  0  0  0  0  0  0  0
   20.8027   48.6817   -6.1168 H   0  0  0  0  0  0  0  0  0  0  0  0
   22.4003   48.6632   -6.8601 H   0  0  0  0  0  0  0  0  0  0  0  0
   22.8839   45.0343   -7.0986 H   0  0  0  0  0  0  0  0  0  0  0  0
   23.6859   46.5476   -6.9199 H   0  0  0  0  0  0  0  0  0  0  0  0
   23.3322   46.3688   -4.3898 H   0  0  0  0  0  0  0  0  0  0  0  0
   24.4341   45.2339   -5.0972 H   0  0  0  0  0  0  0  0  0  0  0  0
   22.8600   44.2548   -3.3851 H   0  0  0  0  0  0  0  0  0  0  0  0
   21.5213   44.5485   -4.4403 H   0  0  0  0  0  0  0  0  0  0  0  0
   22.5132   43.0251   -6.1431 H   0  0  0  0  0  0  0  0  0  0  0  0
   23.9284   42.8041   -5.1502 H   0  0  0  0  0  0  0  0  0  0  0  0
   22.6459   41.6818   -3.4067 H   0  0  0  0  0  0  0  0  0  0  0  0
   21.1266   42.0708   -4.1714 H   0  0  0  0  0  0  0  0  0  0  0  0
   21.8964   39.6936   -4.5226 H   0  0  0  0  0  0  0  0  0  0  0  0
   23.2579   40.2735   -5.4231 H   0  0  0  0  0  0  0  0  0  0  0  0
   20.8213   41.4955   -6.5088 H   0  0  0  0  0  0  0  0  0  0  0  0
   20.5255   39.8019   -6.2844 H   0  0  0  0  0  0  0  0  0  0  0  0
   22.7678   39.4818   -7.5134 H   0  0  0  0  0  0  0  0  0  0  0  0
   24.3810   40.4554   -8.8398 H   0  0  0  0  0  0  0  0  0  0  0  0
   23.3361   43.8834  -11.2247 H   0  0  0  0  0  0  0  0  0  0  0  0
   20.4250   42.1571   -8.5641 H   0  0  0  0  0  0  0  0  0  0  0  0
   19.5165   45.6413  -10.0736 H   0  0  0  0  0  0  0  0  0  0  0  0
   21.6382   46.7405   -8.6390 H   0  0  0  0  0  0  0  0  0  0  0  0
   20.1367   47.3183   -7.9991 H   0  0  0  0  0  0  0  0  0  0  0  0
   19.2927   44.1341   -5.9683 H   0  0  0  0  0  0  0  0  0  0  0  0
   18.2234   42.9387   -7.5321 H   0  0  0  0  0  0  0  0  0  0  0  0
   18.2032   43.6174   -9.1290 H   0  0  0  0  0  0  0  0  0  0  0  0
   16.2146   44.0927   -7.0543 H   0  0  0  0  0  0  0  0  0  0  0  0
   15.8107   44.3636  -10.6390 H   0  0  0  0  0  0  0  0  0  0  0  0
   15.3315   42.6103  -10.9230 H   0  0  0  0  0  0  0  0  0  0  0  0
   13.5118   42.8395   -9.2158 H   0  0  0  0  0  0  0  0  0  0  0  0
   13.9988   44.5917   -8.9420 H   0  0  0  0  0  0  0  0  0  0  0  0
   17.2573   41.1794   -9.9168 H   0  0  0  0  0  0  0  0  0  0  0  0
   16.3744   38.1500   -6.9408 H   0  0  0  0  0  0  0  0  0  0  0  0
   14.8601   39.8126   -5.8260 H   0  0  0  0  0  0  0  0  0  0  0  0
   17.5508   39.2461  -11.2784 H   0  0  0  0  0  0  0  0  0  0  0  0
   18.9932   38.2540  -11.1249 H   0  0  0  0  0  0  0  0  0  0  0  0
   19.0041   39.8936  -10.5207 H   0  0  0  0  0  0  0  0  0  0  0  0
   18.8431   37.8847   -7.3800 H   0  0  0  0  0  0  0  0  0  0  0  0
   19.6584   39.1894   -8.2394 H   0  0  0  0  0  0  0  0  0  0  0  0
   19.7977   37.5387   -8.8209 H   0  0  0  0  0  0  0  0  0  0  0  0
   16.8891   36.6604   -8.5363 H   0  0  0  0  0  0  0  0  0  0  0  0
   17.7828   36.4564  -10.0284 H   0  0  0  0  0  0  0  0  0  0  0  0
   16.2314   37.2857  -10.0399 H   0  0  0  0  0  0  0  0  0  0  0  0
   28.3500   41.2508  -11.3053 H   0  0  0  0  0  0  0  0  0  0  0  0
   27.3740   43.4463  -12.7776 H   0  0  0  0  0  0  0  0  0  0  0  0
   14.6909   41.9265   -6.6802 H   0  0  0  0  0  0  0  0  0  0  0  0
  1  2  1  0  0  0  0
  1 47  1  0  0  0  0
  1 48  1  0  0  0  0
  1 49  1  0  0  0  0
  2 44  1  1  0  0  0
  2 21  1  0  0  0  0
  2  3  1  0  0  0  0
  3  4  1  0  0  0  0
  3 50  1  0  0  0  0
  3 51  1  0  0  0  0
  4  5  1  0  0  0  0
  4 52  1  0  0  0  0
  4 53  1  0  0  0  0
  5  6  1  0  0  0  0
  5 54  1  0  0  0  0
  5 55  1  0  0  0  0
  6  7  1  0  0  0  0
  6 56  1  0  0  0  0
  6 57  1  0  0  0  0
  7  8  1  0  0  0  0
  7 58  1  0  0  0  0
  7 59  1  0  0  0  0
  8  9  1  0  0  0  0
  8 60  1  0  0  0  0
  8 61  1  0  0  0  0
  9 10  1  0  0  0  0
  9 62  1  0  0  0  0
  9 63  1  0  0  0  0
 10 11  1  0  0  0  0
 10 64  1  0  0  0  0
 11 16  1  0  0  0  0
 11 12  2  0  0  0  0
 12 13  1  0  0  0  0
 12 65  1  0  0  0  0
 13 14  2  0  0  0  0
 13 39  1  0  0  0  0
 14 15  1  0  0  0  0
 14 66  1  0  0  0  0
 15 16  2  0  0  0  0
 15 17  1  0  0  0  0
 16 67  1  0  0  0  0
 17 18  2  0  0  0  0
 17 19  1  0  0  0  0
 19 20  1  0  0  0  0
 19 68  1  0  0  0  0
 20 45  1  1  0  0  0
 20 21  1  0  0  0  0
 20 22  1  0  0  0  0
 21 69  1  0  0  0  0
 21 70  1  0  0  0  0
 22 46  1  6  0  0  0
 22 23  1  0  0  0  0
 22 24  1  0  0  0  0
 23 71  1  0  0  0  0
 24 25  1  0  0  0  0
 24 72  1  0  0  0  0
 24 73  1  0  0  0  0
 25 26  1  0  0  0  0
 25 74  1  0  0  0  0
 26 28  1  0  0  0  0
 26 27  1  0  0  0  0
 26 29  1  0  0  0  0
 27 28  1  0  0  0  0
 27 75  1  0  0  0  0
 27 76  1  0  0  0  0
 28 77  1  0  0  0  0
 28 78  1  0  0  0  0
 29 34  1  0  0  0  0
 29 30  2  0  0  0  0
 30 31  1  0  0  0  0
 30 79  1  0  0  0  0
 31 32  2  0  0  0  0
 31 35  1  0  0  0  0
 32 33  1  0  0  0  0
 32 80  1  0  0  0  0
 33 34  2  0  0  0  0
 33 81  1  0  0  0  0
 34 93  1  0  0  0  0
 35 36  1  0  0  0  0
 35 37  1  0  0  0  0
 35 38  1  0  0  0  0
 36 82  1  0  0  0  0
 36 83  1  0  0  0  0
 36 84  1  0  0  0  0
 37 85  1  0  0  0  0
 37 86  1  0  0  0  0
 37 87  1  0  0  0  0
 38 88  1  0  0  0  0
 38 89  1  0  0  0  0
 38 90  1  0  0  0  0
 39 43  1  0  0  0  0
 39 40  2  0  0  0  0
 40 41  1  0  0  0  0
 41 42  2  0  0  0  0
 41 91  1  0  0  0  0
 42 43  1  0  0  0  0
 42 92  1  0  0  0  0
M  CHG  1  34   1
M  END
