BACE_109.smi:1
 OpenBabel09301811243D
Structure written by MMmdl.
 83 86  0  0  1  0  0  0  0  0999 V2000
   21.0521   40.4350   -9.6467 C   0  0  0  0  0  0  0  0  0  0  0  0
   20.7554   38.9562   -9.3089 C   0  0  0  0  0  0  0  0  0  0  0  0
   19.7255   38.4153  -10.3197 C   0  0  0  0  0  0  0  0  0  0  0  0
   22.0598   38.1549   -9.4365 C   0  0  0  0  0  0  0  0  0  0  0  0
   20.1855   38.7968   -7.8793 C   0  0  0  0  0  0  0  0  0  0  0  0
   20.8388   39.6307   -6.8266 C   0  0  0  0  0  0  0  0  0  0  0  0
   20.4597   40.7858   -6.2167 C   0  0  0  0  0  0  0  0  0  0  0  0
   21.4754   41.0143   -5.2476 C   0  0  0  0  0  0  0  0  0  0  0  0
   22.4596   40.1437   -5.3810 N   0  0  0  0  0  0  0  0  0  0  0  0
   22.0527   39.2377   -6.3650 O   0  0  0  0  0  0  0  0  0  0  0  0
   21.6284   42.1426   -4.2510 C   0  0  0  0  0  0  0  0  0  0  0  0
   20.3175   42.9302   -4.0849 C   0  0  0  0  0  0  0  0  0  0  0  0
   21.9542   41.5780   -2.8510 C   0  0  0  0  0  0  0  0  0  0  0  0
   22.7393   43.0241   -4.7055 N   0  3  0  0  0  0  0  0  0  0  0  0
   22.5249   43.7684   -5.9785 C   0  0  0  0  0  0  0  0  0  0  0  0
   23.7988   44.4998   -6.4519 C   0  0  1  0  0  0  0  0  0  0  0  0
   23.5631   44.9107   -7.7831 O   0  0  0  0  0  0  0  0  0  0  0  0
   24.1757   45.7201   -5.5611 C   0  0  2  0  0  0  0  0  0  0  0  0
   23.6068   47.1093   -5.9545 C   0  0  0  0  0  0  0  0  0  0  0  0
   24.0974   48.2810   -5.1034 C   0  0  0  0  0  0  0  0  0  0  0  0
   24.2686   48.1655   -3.7055 C   0  0  0  0  0  0  0  0  0  0  0  0
   24.7876   49.2321   -2.9419 C   0  0  0  0  0  0  0  0  0  0  0  0
   25.0629   50.4621   -3.5873 C   0  0  0  0  0  0  0  0  0  0  0  0
   24.8867   50.5869   -4.9760 C   0  0  0  0  0  0  0  0  0  0  0  0
   24.4097   49.5023   -5.7327 C   0  0  0  0  0  0  0  0  0  0  0  0
   25.0155   48.9880   -1.6017 O   0  0  0  0  0  0  0  0  0  0  0  0
   25.8705   49.8632   -0.8638 C   0  0  0  0  0  0  0  0  0  0  0  0
   27.3286   49.8658   -1.3717 C   0  0  0  0  0  0  0  0  0  0  0  0
   28.0012   48.4845   -1.4011 C   0  0  0  0  0  0  0  0  0  0  0  0
   29.2905   48.5041   -2.2427 C   0  0  0  0  0  0  0  0  0  0  0  0
   29.8223   47.1974   -2.4085 O   0  0  0  0  0  0  0  0  0  0  0  0
   29.4493   46.4718   -3.5163 C   0  0  0  0  0  0  0  0  0  0  0  0
   28.2350   46.6381   -4.2272 C   0  0  0  0  0  0  0  0  0  0  0  0
   27.9609   45.7948   -5.3246 C   0  0  0  0  0  0  0  0  0  0  0  0
   28.9369   44.8523   -5.6997 C   0  0  0  0  0  0  0  0  0  0  0  0
   30.0876   44.6680   -5.0211 N   0  0  0  0  0  0  0  0  0  0  0  0
   30.3326   45.4742   -3.9662 C   0  0  0  0  0  0  0  0  0  0  0  0
   26.6570   45.8674   -6.0502 C   0  0  0  0  0  0  0  0  0  0  0  0
   26.5925   45.9684   -7.2730 O   0  0  0  0  0  0  0  0  0  0  0  0
   25.5967   45.7511   -5.2401 N   0  0  0  0  0  0  0  0  0  0  0  0
   24.6213   43.7801   -6.4774 H   0  0  0  0  0  0  0  0  0  0  0  0
   23.7445   45.5093   -4.5854 H   0  0  0  0  0  0  0  0  0  0  0  0
   21.3830   40.5440  -10.6791 H   0  0  0  0  0  0  0  0  0  0  0  0
   21.8441   40.8452   -9.0179 H   0  0  0  0  0  0  0  0  0  0  0  0
   20.1666   41.0574   -9.5158 H   0  0  0  0  0  0  0  0  0  0  0  0
   18.7894   38.9732  -10.2739 H   0  0  0  0  0  0  0  0  0  0  0  0
   19.4903   37.3706  -10.1246 H   0  0  0  0  0  0  0  0  0  0  0  0
   20.0916   38.4872  -11.3426 H   0  0  0  0  0  0  0  0  0  0  0  0
   22.4607   38.2447  -10.4407 H   0  0  0  0  0  0  0  0  0  0  0  0
   21.9093   37.0947   -9.2397 H   0  0  0  0  0  0  0  0  0  0  0  0
   22.8244   38.5196   -8.7544 H   0  0  0  0  0  0  0  0  0  0  0  0
   19.1285   39.0645   -7.8891 H   0  0  0  0  0  0  0  0  0  0  0  0
   20.2038   37.7502   -7.5796 H   0  0  0  0  0  0  0  0  0  0  0  0
   19.5623   41.3462   -6.4325 H   0  0  0  0  0  0  0  0  0  0  0  0
   19.5577   42.2931   -3.6434 H   0  0  0  0  0  0  0  0  0  0  0  0
   19.9198   43.3226   -5.0200 H   0  0  0  0  0  0  0  0  0  0  0  0
   20.4393   43.7500   -3.3869 H   0  0  0  0  0  0  0  0  0  0  0  0
   21.1513   40.9319   -2.4941 H   0  0  0  0  0  0  0  0  0  0  0  0
   22.0800   42.3739   -2.1156 H   0  0  0  0  0  0  0  0  0  0  0  0
   22.8601   40.9784   -2.8435 H   0  0  0  0  0  0  0  0  0  0  0  0
   22.9635   43.6783   -3.9684 H   0  0  0  0  0  0  0  0  0  0  0  0
   22.2161   43.0657   -6.7517 H   0  0  0  0  0  0  0  0  0  0  0  0
   21.7116   44.4849   -5.8643 H   0  0  0  0  0  0  0  0  0  0  0  0
   23.6479   44.1648   -8.3622 H   0  0  0  0  0  0  0  0  0  0  0  0
   23.8663   47.3238   -6.9929 H   0  0  0  0  0  0  0  0  0  0  0  0
   22.5158   47.0851   -5.9160 H   0  0  0  0  0  0  0  0  0  0  0  0
   24.0532   47.2372   -3.2016 H   0  0  0  0  0  0  0  0  0  0  0  0
   25.4392   51.3141   -3.0401 H   0  0  0  0  0  0  0  0  0  0  0  0
   25.1408   51.5166   -5.4626 H   0  0  0  0  0  0  0  0  0  0  0  0
   24.2995   49.6067   -6.8033 H   0  0  0  0  0  0  0  0  0  0  0  0
   25.4625   50.8749   -0.8489 H   0  0  0  0  0  0  0  0  0  0  0  0
   25.8617   49.5313    0.1741 H   0  0  0  0  0  0  0  0  0  0  0  0
   27.3760   50.3037   -2.3677 H   0  0  0  0  0  0  0  0  0  0  0  0
   27.9189   50.5320   -0.7470 H   0  0  0  0  0  0  0  0  0  0  0  0
   28.2173   48.1469   -0.3878 H   0  0  0  0  0  0  0  0  0  0  0  0
   27.3073   47.7513   -1.8093 H   0  0  0  0  0  0  0  0  0  0  0  0
   29.1287   48.9800   -3.2106 H   0  0  0  0  0  0  0  0  0  0  0  0
   30.0552   49.1067   -1.7438 H   0  0  0  0  0  0  0  0  0  0  0  0
   27.5076   47.3826   -3.9391 H   0  0  0  0  0  0  0  0  0  0  0  0
   28.7664   44.1793   -6.5272 H   0  0  0  0  0  0  0  0  0  0  0  0
   31.2666   45.3077   -3.4494 H   0  0  0  0  0  0  0  0  0  0  0  0
   25.8058   45.5716   -4.2653 H   0  0  0  0  0  0  0  0  0  0  0  0
   23.5358   42.4154   -4.8424 H   0  0  0  0  0  0  0  0  0  0  0  0
  1  2  1  0  0  0  0
  1 43  1  0  0  0  0
  1 44  1  0  0  0  0
  1 45  1  0  0  0  0
  2  3  1  0  0  0  0
  2  4  1  0  0  0  0
  2  5  1  0  0  0  0
  3 46  1  0  0  0  0
  3 47  1  0  0  0  0
  3 48  1  0  0  0  0
  4 49  1  0  0  0  0
  4 50  1  0  0  0  0
  4 51  1  0  0  0  0
  5  6  1  0  0  0  0
  5 52  1  0  0  0  0
  5 53  1  0  0  0  0
  6 10  1  0  0  0  0
  6  7  2  0  0  0  0
  7  8  1  0  0  0  0
  7 54  1  0  0  0  0
  8  9  2  0  0  0  0
  8 11  1  0  0  0  0
  9 10  1  0  0  0  0
 11 12  1  0  0  0  0
 11 13  1  0  0  0  0
 11 14  1  0  0  0  0
 12 55  1  0  0  0  0
 12 56  1  0  0  0  0
 12 57  1  0  0  0  0
 13 58  1  0  0  0  0
 13 59  1  0  0  0  0
 13 60  1  0  0  0  0
 14 15  1  0  0  0  0
 14 61  1  0  0  0  0
 14 83  1  0  0  0  0
 15 16  1  0  0  0  0
 15 62  1  0  0  0  0
 15 63  1  0  0  0  0
 16 41  1  1  0  0  0
 16 17  1  0  0  0  0
 16 18  1  0  0  0  0
 17 64  1  0  0  0  0
 18 42  1  1  0  0  0
 18 40  1  0  0  0  0
 18 19  1  0  0  0  0
 19 20  1  0  0  0  0
 19 65  1  0  0  0  0
 19 66  1  0  0  0  0
 20 25  1  0  0  0  0
 20 21  2  0  0  0  0
 21 22  1  0  0  0  0
 21 67  1  0  0  0  0
 22 23  2  0  0  0  0
 22 26  1  0  0  0  0
 23 24  1  0  0  0  0
 23 68  1  0  0  0  0
 24 25  2  0  0  0  0
 24 69  1  0  0  0  0
 25 70  1  0  0  0  0
 26 27  1  0  0  0  0
 27 28  1  0  0  0  0
 27 71  1  0  0  0  0
 27 72  1  0  0  0  0
 28 29  1  0  0  0  0
 28 73  1  0  0  0  0
 28 74  1  0  0  0  0
 29 30  1  0  0  0  0
 29 75  1  0  0  0  0
 29 76  1  0  0  0  0
 30 31  1  0  0  0  0
 30 77  1  0  0  0  0
 30 78  1  0  0  0  0
 31 32  1  0  0  0  0
 32 37  1  0  0  0  0
 32 33  2  0  0  0  0
 33 34  1  0  0  0  0
 33 79  1  0  0  0  0
 34 35  2  0  0  0  0
 34 38  1  0  0  0  0
 35 36  1  0  0  0  0
 35 80  1  0  0  0  0
 36 37  2  0  0  0  0
 37 81  1  0  0  0  0
 38 39  2  0  0  0  0
 38 40  1  0  0  0  0
 40 82  1  0  0  0  0
M  CHG  1  14   1
M  END
