BACE_28.smi:1
 OpenBabel09301811243D
Structure written by MMmdl.
 82 83  0  0  1  0  0  0  0  0999 V2000
   21.2214   44.6481   -5.2339 C   0  0  0  0  0  0  0  0  0  0  0  0
   22.2679   43.5305   -5.4091 C   0  0  2  0  0  0  0  0  0  0  0  0
   23.2714   43.7654   -6.5654 C   0  0  0  0  0  0  0  0  0  0  0  0
   23.9202   45.1643   -6.5730 C   0  0  0  0  0  0  0  0  0  0  0  0
   23.2053   46.1353   -7.5302 C   0  0  0  0  0  0  0  0  0  0  0  0
   23.3501   47.6166   -7.1411 C   0  0  0  0  0  0  0  0  0  0  0  0
   22.7360   48.5907   -8.1681 C   0  0  0  0  0  0  0  0  0  0  0  0
   21.2515   48.3464   -8.5043 C   0  0  0  0  0  0  0  0  0  0  0  0
   20.2686   48.6543   -7.3602 C   0  0  0  0  0  0  0  0  0  0  0  0
   18.8279   48.1753   -7.6487 C   0  0  0  0  0  0  0  0  0  0  0  0
   18.5652   46.7426   -7.1428 C   0  0  0  0  0  0  0  0  0  0  0  0
   18.4628   46.6055   -5.9211 O   0  0  0  0  0  0  0  0  0  0  0  0
   18.4560   45.6980   -8.0112 N   0  0  0  0  0  0  0  0  0  0  0  0
   18.4815   45.8987   -9.4679 C   0  0  0  0  0  0  0  0  0  0  0  0
   18.2172   44.3155   -7.5226 C   0  0  1  0  0  0  0  0  0  0  0  0
   16.8347   43.8120   -7.9605 C   0  0  0  0  0  0  0  0  0  0  0  0
   19.3574   43.3158   -7.8162 C   0  0  0  0  0  0  0  0  0  0  0  0
   19.9509   43.3034   -8.8916 O   0  0  0  0  0  0  0  0  0  0  0  0
   19.6602   42.4752   -6.8132 N   0  0  0  0  0  0  0  0  0  0  0  0
   20.8512   41.6334   -6.6731 C   0  0  1  0  0  0  0  0  0  0  0  0
   21.6633   42.1019   -5.4243 C   0  0  0  0  0  0  0  0  0  0  0  0
   20.4222   40.1396   -6.5505 C   0  0  2  0  0  0  0  0  0  0  0  0
   21.5315   39.3499   -6.1725 O   0  0  0  0  0  0  0  0  0  0  0  0
   19.9186   39.4921   -7.8552 C   0  0  0  0  0  0  0  0  0  0  0  0
   18.6072   40.0207   -8.2926 N   0  3  0  0  0  0  0  0  0  0  0  0
   17.9899   39.4659   -9.5290 C   0  0  0  0  0  0  0  0  0  0  0  0
   18.9002   38.4625  -10.2954 C   0  0  0  0  0  0  0  0  0  0  0  0
   16.7287   38.6807   -9.1056 C   0  0  0  0  0  0  0  0  0  0  0  0
   17.6662   40.6835  -10.4124 C   0  0  0  0  0  0  0  0  0  0  0  0
   18.7016   41.3143  -11.1460 C   0  0  0  0  0  0  0  0  0  0  0  0
   18.4546   42.4751  -11.9025 C   0  0  0  0  0  0  0  0  0  0  0  0
   17.1694   43.0398  -11.9249 C   0  0  0  0  0  0  0  0  0  0  0  0
   16.1279   42.4290  -11.2030 C   0  0  0  0  0  0  0  0  0  0  0  0
   14.4019   43.2339  -11.1769 Br  0  0  0  0  0  0  0  0  0  0  0  0
   16.3698   41.2561  -10.4612 C   0  0  0  0  0  0  0  0  0  0  0  0
   22.8586   43.5695   -4.4920 H   0  0  0  0  0  0  0  0  0  0  0  0
   18.1515   44.3265   -6.4400 H   0  0  0  0  0  0  0  0  0  0  0  0
   21.4882   41.7275   -7.5524 H   0  0  0  0  0  0  0  0  0  0  0  0
   19.6685   40.0287   -5.7688 H   0  0  0  0  0  0  0  0  0  0  0  0
   21.6808   45.5598   -4.8533 H   0  0  0  0  0  0  0  0  0  0  0  0
   20.4491   44.3605   -4.5196 H   0  0  0  0  0  0  0  0  0  0  0  0
   20.7355   44.9128   -6.1650 H   0  0  0  0  0  0  0  0  0  0  0  0
   24.0644   43.0201   -6.4786 H   0  0  0  0  0  0  0  0  0  0  0  0
   22.8007   43.5779   -7.5326 H   0  0  0  0  0  0  0  0  0  0  0  0
   24.9635   45.0804   -6.8828 H   0  0  0  0  0  0  0  0  0  0  0  0
   23.9516   45.5629   -5.5585 H   0  0  0  0  0  0  0  0  0  0  0  0
   23.5716   45.9747   -8.5454 H   0  0  0  0  0  0  0  0  0  0  0  0
   22.1476   45.8895   -7.5599 H   0  0  0  0  0  0  0  0  0  0  0  0
   24.4086   47.8555   -7.0272 H   0  0  0  0  0  0  0  0  0  0  0  0
   22.9002   47.7774   -6.1605 H   0  0  0  0  0  0  0  0  0  0  0  0
   22.8634   49.6151   -7.8173 H   0  0  0  0  0  0  0  0  0  0  0  0
   23.3112   48.5187   -9.0924 H   0  0  0  0  0  0  0  0  0  0  0  0
   21.1258   47.3236   -8.8472 H   0  0  0  0  0  0  0  0  0  0  0  0
   20.9844   48.9669   -9.3592 H   0  0  0  0  0  0  0  0  0  0  0  0
   20.6260   48.2113   -6.4301 H   0  0  0  0  0  0  0  0  0  0  0  0
   20.2619   49.7313   -7.1874 H   0  0  0  0  0  0  0  0  0  0  0  0
   18.5659   48.3296   -8.6939 H   0  0  0  0  0  0  0  0  0  0  0  0
   18.1417   48.8173   -7.0946 H   0  0  0  0  0  0  0  0  0  0  0  0
   18.3906   44.9673  -10.0234 H   0  0  0  0  0  0  0  0  0  0  0  0
   19.4101   46.3618   -9.7953 H   0  0  0  0  0  0  0  0  0  0  0  0
   17.6475   46.5269   -9.7823 H   0  0  0  0  0  0  0  0  0  0  0  0
   16.6131   42.8328   -7.5359 H   0  0  0  0  0  0  0  0  0  0  0  0
   16.7602   43.7319   -9.0392 H   0  0  0  0  0  0  0  0  0  0  0  0
   16.0478   44.4921   -7.6358 H   0  0  0  0  0  0  0  0  0  0  0  0
   19.0569   42.4982   -5.9980 H   0  0  0  0  0  0  0  0  0  0  0  0
   21.0464   41.9712   -4.5332 H   0  0  0  0  0  0  0  0  0  0  0  0
   22.5119   41.4327   -5.2799 H   0  0  0  0  0  0  0  0  0  0  0  0
   21.7929   39.5930   -5.2966 H   0  0  0  0  0  0  0  0  0  0  0  0
   20.6683   39.6433   -8.6345 H   0  0  0  0  0  0  0  0  0  0  0  0
   19.8132   38.4154   -7.7001 H   0  0  0  0  0  0  0  0  0  0  0  0
   17.9457   39.9264   -7.5309 H   0  0  0  0  0  0  0  0  0  0  0  0
   19.0755   37.5498   -9.7251 H   0  0  0  0  0  0  0  0  0  0  0  0
   19.8752   38.8641  -10.5621 H   0  0  0  0  0  0  0  0  0  0  0  0
   18.4346   38.1588  -11.2306 H   0  0  0  0  0  0  0  0  0  0  0  0
   16.9915   37.7959   -8.5249 H   0  0  0  0  0  0  0  0  0  0  0  0
   16.1623   38.3378   -9.9725 H   0  0  0  0  0  0  0  0  0  0  0  0
   16.0595   39.2671   -8.4761 H   0  0  0  0  0  0  0  0  0  0  0  0
   19.7130   40.9383  -11.1172 H   0  0  0  0  0  0  0  0  0  0  0  0
   19.2620   42.9483  -12.4394 H   0  0  0  0  0  0  0  0  0  0  0  0
   16.9889   43.9497  -12.4776 H   0  0  0  0  0  0  0  0  0  0  0  0
   15.5434   40.8357   -9.9091 H   0  0  0  0  0  0  0  0  0  0  0  0
   18.7415   41.0107   -8.4572 H   0  0  0  0  0  0  0  0  0  0  0  0
  1  2  1  0  0  0  0
  1 40  1  0  0  0  0
  1 41  1  0  0  0  0
  1 42  1  0  0  0  0
  2 36  1  1  0  0  0
  2 21  1  0  0  0  0
  2  3  1  0  0  0  0
  3  4  1  0  0  0  0
  3 43  1  0  0  0  0
  3 44  1  0  0  0  0
  4  5  1  0  0  0  0
  4 45  1  0  0  0  0
  4 46  1  0  0  0  0
  5  6  1  0  0  0  0
  5 47  1  0  0  0  0
  5 48  1  0  0  0  0
  6  7  1  0  0  0  0
  6 49  1  0  0  0  0
  6 50  1  0  0  0  0
  7  8  1  0  0  0  0
  7 51  1  0  0  0  0
  7 52  1  0  0  0  0
  8  9  1  0  0  0  0
  8 53  1  0  0  0  0
  8 54  1  0  0  0  0
  9 10  1  0  0  0  0
  9 55  1  0  0  0  0
  9 56  1  0  0  0  0
 10 11  1  0  0  0  0
 10 57  1  0  0  0  0
 10 58  1  0  0  0  0
 11 12  2  0  0  0  0
 11 13  1  0  0  0  0
 13 14  1  0  0  0  0
 13 15  1  0  0  0  0
 14 59  1  0  0  0  0
 14 60  1  0  0  0  0
 14 61  1  0  0  0  0
 15 37  1  1  0  0  0
 15 16  1  0  0  0  0
 15 17  1  0  0  0  0
 16 62  1  0  0  0  0
 16 63  1  0  0  0  0
 16 64  1  0  0  0  0
 17 18  2  0  0  0  0
 17 19  1  0  0  0  0
 19 20  1  0  0  0  0
 19 65  1  0  0  0  0
 20 38  1  6  0  0  0
 20 21  1  0  0  0  0
 20 22  1  0  0  0  0
 21 66  1  0  0  0  0
 21 67  1  0  0  0  0
 22 39  1  1  0  0  0
 22 23  1  0  0  0  0
 22 24  1  0  0  0  0
 23 68  1  0  0  0  0
 24 25  1  0  0  0  0
 24 69  1  0  0  0  0
 24 70  1  0  0  0  0
 25 26  1  0  0  0  0
 25 71  1  0  0  0  0
 25 82  1  0  0  0  0
 26 27  1  0  0  0  0
 26 28  1  0  0  0  0
 26 29  1  0  0  0  0
 27 72  1  0  0  0  0
 27 73  1  0  0  0  0
 27 74  1  0  0  0  0
 28 75  1  0  0  0  0
 28 76  1  0  0  0  0
 28 77  1  0  0  0  0
 29 35  1  0  0  0  0
 29 30  2  0  0  0  0
 30 31  1  0  0  0  0
 30 78  1  0  0  0  0
 31 32  2  0  0  0  0
 31 79  1  0  0  0  0
 32 33  1  0  0  0  0
 32 80  1  0  0  0  0
 33 34  1  0  0  0  0
 33 35  2  0  0  0  0
 35 81  1  0  0  0  0
M  CHG  1  25   1
M  END
