BACE_11.smi:1
 OpenBabel09301811243D
Structure written by MMmdl.
 81 83  0  0  1  0  0  0  0  0999 V2000
   17.0920   36.6884   -8.8399 C   0  0  0  0  0  0  0  0  0  0  0  0
   17.2121   38.1377   -8.3426 C   0  0  0  0  0  0  0  0  0  0  0  0
   16.2579   39.0699   -9.1067 C   0  0  0  0  0  0  0  0  0  0  0  0
   18.6553   38.6322   -8.3905 C   0  0  0  0  0  0  0  0  0  0  0  0
   19.3333   38.9588   -7.1946 C   0  0  0  0  0  0  0  0  0  0  0  0
   20.6619   39.4379   -7.2288 C   0  0  0  0  0  0  0  0  0  0  0  0
   21.3819   39.7848   -5.9362 C   0  0  0  0  0  0  0  0  0  0  0  0
   20.7922   40.9582   -5.2660 N   0  3  0  0  0  0  0  0  0  0  0  0
   21.1641   42.2626   -5.8377 C   0  0  0  0  0  0  0  0  0  0  0  0
   20.4543   43.3897   -5.0643 C   0  0  1  0  0  0  0  0  0  0  0  0
   20.9564   43.3499   -3.7410 O   0  0  0  0  0  0  0  0  0  0  0  0
   20.5798   44.8218   -5.6604 C   0  0  2  0  0  0  0  0  0  0  0  0
   19.3950   45.2102   -6.5831 C   0  0  0  0  0  0  0  0  0  0  0  0
   19.2686   44.4498   -7.8946 C   0  0  0  0  0  0  0  0  0  0  0  0
   19.6862   45.0528   -9.0990 C   0  0  0  0  0  0  0  0  0  0  0  0
   19.5554   44.3728  -10.3371 C   0  0  0  0  0  0  0  0  0  0  0  0
   19.0065   43.0745  -10.3397 C   0  0  0  0  0  0  0  0  0  0  0  0
   18.5620   42.4783   -9.1456 C   0  0  0  0  0  0  0  0  0  0  0  0
   18.6716   43.1716   -7.9279 C   0  0  0  0  0  0  0  0  0  0  0  0
   19.9193   44.8948  -11.5622 O   0  0  0  0  0  0  0  0  0  0  0  0
   20.4339   46.2221  -11.6402 C   0  0  0  0  0  0  0  0  0  0  0  0
   21.9012   46.2938  -11.1869 C   0  0  0  0  0  0  0  0  0  0  0  0
   22.8489   45.4220  -12.0237 C   0  0  0  0  0  0  0  0  0  0  0  0
   24.3053   45.4010  -11.5204 C   0  0  0  0  0  0  0  0  0  0  0  0
   24.5218   44.6352  -10.1926 C   0  0  0  0  0  0  0  0  0  0  0  0
   24.3216   45.4520   -8.8956 C   0  0  0  0  0  0  0  0  0  0  0  0
   24.1418   46.6661   -8.9830 O   0  0  0  0  0  0  0  0  0  0  0  0
   24.3634   44.8054   -7.6999 N   0  0  0  0  0  0  0  0  0  0  0  0
   24.3928   43.3366   -7.6531 C   0  0  0  0  0  0  0  0  0  0  0  0
   24.3277   45.4894   -6.3804 C   0  0  1  0  0  0  0  0  0  0  0  0
   25.1761   46.7788   -6.2845 C   0  0  0  0  0  0  0  0  0  0  0  0
   22.9450   45.5921   -5.7076 C   0  0  0  0  0  0  0  0  0  0  0  0
   22.8600   46.1519   -4.6145 O   0  0  0  0  0  0  0  0  0  0  0  0
   21.8822   45.0206   -6.3077 N   0  0  0  0  0  0  0  0  0  0  0  0
   21.3200   39.5777   -8.4688 C   0  0  0  0  0  0  0  0  0  0  0  0
   20.6556   39.2378   -9.6632 C   0  0  0  0  0  0  0  0  0  0  0  0
   19.3284   38.7685   -9.6248 C   0  0  0  0  0  0  0  0  0  0  0  0
   19.3931   43.1555   -4.9817 H   0  0  0  0  0  0  0  0  0  0  0  0
   20.4848   45.5298   -4.8401 H   0  0  0  0  0  0  0  0  0  0  0  0
   24.8652   44.8226   -5.7040 H   0  0  0  0  0  0  0  0  0  0  0  0
   17.6960   36.0193   -8.2282 H   0  0  0  0  0  0  0  0  0  0  0  0
   17.4133   36.5847   -9.8761 H   0  0  0  0  0  0  0  0  0  0  0  0
   16.0602   36.3428   -8.7734 H   0  0  0  0  0  0  0  0  0  0  0  0
   16.8905   38.1483   -7.2993 H   0  0  0  0  0  0  0  0  0  0  0  0
   16.2891   40.0801   -8.6999 H   0  0  0  0  0  0  0  0  0  0  0  0
   15.2275   38.7221   -9.0244 H   0  0  0  0  0  0  0  0  0  0  0  0
   16.5043   39.1227  -10.1667 H   0  0  0  0  0  0  0  0  0  0  0  0
   18.8253   38.8425   -6.2469 H   0  0  0  0  0  0  0  0  0  0  0  0
   21.2990   38.9500   -5.2496 H   0  0  0  0  0  0  0  0  0  0  0  0
   22.4496   39.9377   -6.1086 H   0  0  0  0  0  0  0  0  0  0  0  0
   19.7803   40.8756   -5.2765 H   0  0  0  0  0  0  0  0  0  0  0  0
   22.2467   42.3772   -5.7704 H   0  0  0  0  0  0  0  0  0  0  0  0
   20.9134   42.2818   -6.8973 H   0  0  0  0  0  0  0  0  0  0  0  0
   20.8604   44.2146   -3.3353 H   0  0  0  0  0  0  0  0  0  0  0  0
   18.4565   45.0974   -6.0402 H   0  0  0  0  0  0  0  0  0  0  0  0
   19.4637   46.2754   -6.8089 H   0  0  0  0  0  0  0  0  0  0  0  0
   20.0928   46.0506   -9.0473 H   0  0  0  0  0  0  0  0  0  0  0  0
   18.9101   42.5363  -11.2710 H   0  0  0  0  0  0  0  0  0  0  0  0
   18.1291   41.4896   -9.1661 H   0  0  0  0  0  0  0  0  0  0  0  0
   18.3044   42.7078   -7.0238 H   0  0  0  0  0  0  0  0  0  0  0  0
   20.3619   46.5504  -12.6758 H   0  0  0  0  0  0  0  0  0  0  0  0
   19.8091   46.9165  -11.0770 H   0  0  0  0  0  0  0  0  0  0  0  0
   22.2393   47.3294  -11.2187 H   0  0  0  0  0  0  0  0  0  0  0  0
   21.9609   45.9906  -10.1476 H   0  0  0  0  0  0  0  0  0  0  0  0
   22.4700   44.3993  -12.0650 H   0  0  0  0  0  0  0  0  0  0  0  0
   22.8430   45.7872  -13.0502 H   0  0  0  0  0  0  0  0  0  0  0  0
   24.9055   44.9049  -12.2835 H   0  0  0  0  0  0  0  0  0  0  0  0
   24.7021   46.4147  -11.4649 H   0  0  0  0  0  0  0  0  0  0  0  0
   23.8841   43.7515  -10.1963 H   0  0  0  0  0  0  0  0  0  0  0  0
   25.5505   44.2727  -10.1750 H   0  0  0  0  0  0  0  0  0  0  0  0
   25.2631   42.9489   -8.1810 H   0  0  0  0  0  0  0  0  0  0  0  0
   23.4955   42.9124   -8.1065 H   0  0  0  0  0  0  0  0  0  0  0  0
   24.4430   42.9500   -6.6359 H   0  0  0  0  0  0  0  0  0  0  0  0
   25.3491   47.0511   -5.2425 H   0  0  0  0  0  0  0  0  0  0  0  0
   24.6900   47.6333   -6.7543 H   0  0  0  0  0  0  0  0  0  0  0  0
   26.1537   46.6446   -6.7474 H   0  0  0  0  0  0  0  0  0  0  0  0
   22.0107   44.6253   -7.2282 H   0  0  0  0  0  0  0  0  0  0  0  0
   22.3393   39.9323   -8.5129 H   0  0  0  0  0  0  0  0  0  0  0  0
   21.1640   39.3397  -10.6104 H   0  0  0  0  0  0  0  0  0  0  0  0
   18.8268   38.5166  -10.5480 H   0  0  0  0  0  0  0  0  0  0  0  0
   21.0894   40.9768   -4.3001 H   0  0  0  0  0  0  0  0  0  0  0  0
  1  2  1  0  0  0  0
  1 41  1  0  0  0  0
  1 42  1  0  0  0  0
  1 43  1  0  0  0  0
  2  3  1  0  0  0  0
  2  4  1  0  0  0  0
  2 44  1  0  0  0  0
  3 45  1  0  0  0  0
  3 46  1  0  0  0  0
  3 47  1  0  0  0  0
  4 37  1  0  0  0  0
  4  5  2  0  0  0  0
  5  6  1  0  0  0  0
  5 48  1  0  0  0  0
  6  7  1  0  0  0  0
  6 35  2  0  0  0  0
  7  8  1  0  0  0  0
  7 49  1  0  0  0  0
  7 50  1  0  0  0  0
  8  9  1  0  0  0  0
  8 51  1  0  0  0  0
  8 81  1  0  0  0  0
  9 10  1  0  0  0  0
  9 52  1  0  0  0  0
  9 53  1  0  0  0  0
 10 38  1  1  0  0  0
 10 11  1  0  0  0  0
 10 12  1  0  0  0  0
 11 54  1  0  0  0  0
 12 39  1  1  0  0  0
 12 34  1  0  0  0  0
 12 13  1  0  0  0  0
 13 14  1  0  0  0  0
 13 55  1  0  0  0  0
 13 56  1  0  0  0  0
 14 19  1  0  0  0  0
 14 15  2  0  0  0  0
 15 16  1  0  0  0  0
 15 57  1  0  0  0  0
 16 17  2  0  0  0  0
 16 20  1  0  0  0  0
 17 18  1  0  0  0  0
 17 58  1  0  0  0  0
 18 19  2  0  0  0  0
 18 59  1  0  0  0  0
 19 60  1  0  0  0  0
 20 21  1  0  0  0  0
 21 22  1  0  0  0  0
 21 61  1  0  0  0  0
 21 62  1  0  0  0  0
 22 23  1  0  0  0  0
 22 63  1  0  0  0  0
 22 64  1  0  0  0  0
 23 24  1  0  0  0  0
 23 65  1  0  0  0  0
 23 66  1  0  0  0  0
 24 25  1  0  0  0  0
 24 67  1  0  0  0  0
 24 68  1  0  0  0  0
 25 26  1  0  0  0  0
 25 69  1  0  0  0  0
 25 70  1  0  0  0  0
 26 27  2  0  0  0  0
 26 28  1  0  0  0  0
 28 29  1  0  0  0  0
 28 30  1  0  0  0  0
 29 71  1  0  0  0  0
 29 72  1  0  0  0  0
 29 73  1  0  0  0  0
 30 40  1  1  0  0  0
 30 31  1  0  0  0  0
 30 32  1  0  0  0  0
 31 74  1  0  0  0  0
 31 75  1  0  0  0  0
 31 76  1  0  0  0  0
 32 33  2  0  0  0  0
 32 34  1  0  0  0  0
 34 77  1  0  0  0  0
 35 36  1  0  0  0  0
 35 78  1  0  0  0  0
 36 37  2  0  0  0  0
 36 79  1  0  0  0  0
 37 80  1  0  0  0  0
M  CHG  1   8   1
M  END
