BACE_101.smi:1
 OpenBabel09301811243D
Structure written by MMmdl.
 83 86  0  0  1  0  0  0  0  0999 V2000
   21.5765   40.8917  -10.9407 C   0  0  0  0  0  0  0  0  0  0  0  0
   21.1868   39.5237  -10.3468 C   0  0  0  0  0  0  0  0  0  0  0  0
   20.0251   38.9266  -11.1640 C   0  0  0  0  0  0  0  0  0  0  0  0
   20.9224   39.5999   -8.8394 C   0  0  0  0  0  0  0  0  0  0  0  0
   19.7729   39.0357   -8.2329 C   0  0  0  0  0  0  0  0  0  0  0  0
   19.6122   39.1522   -6.8343 C   0  0  0  0  0  0  0  0  0  0  0  0
   18.4444   38.5104   -6.1017 C   0  0  0  0  0  0  0  0  0  0  0  0
   17.1707   38.5498   -6.8410 N   0  3  0  0  0  0  0  0  0  0  0  0
   16.4586   39.8304   -6.9346 C   0  0  0  0  0  0  0  0  0  0  0  0
   15.7923   39.8946   -8.3233 C   0  0  1  0  0  0  0  0  0  0  0  0
   14.7526   38.9349   -8.3629 O   0  0  0  0  0  0  0  0  0  0  0  0
   15.2454   41.2739   -8.7642 C   0  0  2  0  0  0  0  0  0  0  0  0
   14.9328   41.2905  -10.2789 C   0  0  0  0  0  0  0  0  0  0  0  0
   14.2406   42.5559  -10.7491 C   0  0  0  0  0  0  0  0  0  0  0  0
   14.9919   43.6623  -11.2028 C   0  0  0  0  0  0  0  0  0  0  0  0
   14.3383   44.8434  -11.6367 C   0  0  0  0  0  0  0  0  0  0  0  0
   12.9283   44.8683  -11.6530 C   0  0  0  0  0  0  0  0  0  0  0  0
   12.1787   43.7663  -11.1984 C   0  0  0  0  0  0  0  0  0  0  0  0
   12.8341   42.6162  -10.7350 C   0  0  0  0  0  0  0  0  0  0  0  0
   14.9697   45.9984  -12.0497 O   0  0  0  0  0  0  0  0  0  0  0  0
   16.3923   46.0853  -12.0508 C   0  0  0  0  0  0  0  0  0  0  0  0
   16.7673   47.5446  -11.7451 C   0  0  0  0  0  0  0  0  0  0  0  0
   16.7469   47.8581  -10.2362 C   0  0  0  0  0  0  0  0  0  0  0  0
   18.1158   47.6083   -9.5601 C   0  0  0  0  0  0  0  0  0  0  0  0
   18.0424   47.3731   -8.1026 N   0  0  0  0  0  0  0  0  0  0  0  0
   17.7914   48.3607   -7.2057 C   0  0  0  0  0  0  0  0  0  0  0  0
   17.6078   49.8006   -7.6902 C   0  0  0  0  0  0  0  0  0  0  0  0
   17.6632   48.1504   -5.9986 O   0  0  0  0  0  0  0  0  0  0  0  0
   18.3699   46.0580   -7.6568 C   0  0  0  0  0  0  0  0  0  0  0  0
   17.6831   44.9883   -8.2730 C   0  0  0  0  0  0  0  0  0  0  0  0
   18.0823   43.6664   -8.0046 C   0  0  0  0  0  0  0  0  0  0  0  0
   19.1373   43.4423   -7.1027 C   0  0  0  0  0  0  0  0  0  0  0  0
   19.7225   44.5573   -6.4784 C   0  0  0  0  0  0  0  0  0  0  0  0
   20.8232   44.3695   -5.4571 C   0  0  0  0  0  0  0  0  0  0  0  0
   19.3565   45.8295   -6.7519 N   0  0  0  0  0  0  0  0  0  0  0  0
   17.4117   42.5252   -8.6848 C   0  0  0  0  0  0  0  0  0  0  0  0
   18.0357   41.7700   -9.4280 O   0  0  0  0  0  0  0  0  0  0  0  0
   16.1153   42.3812   -8.3664 N   0  0  0  0  0  0  0  0  0  0  0  0
   20.5148   39.7671   -6.0420 N   0  0  0  0  0  0  0  0  0  0  0  0
   21.6200   40.2820   -6.6139 C   0  0  0  0  0  0  0  0  0  0  0  0
   21.8698   40.2172   -7.9938 C   0  0  0  0  0  0  0  0  0  0  0  0
   16.5328   39.5867   -9.0635 H   0  0  0  0  0  0  0  0  0  0  0  0
   14.3202   41.4538   -8.2237 H   0  0  0  0  0  0  0  0  0  0  0  0
   22.4941   41.2807  -10.4994 H   0  0  0  0  0  0  0  0  0  0  0  0
   20.7911   41.6312  -10.7789 H   0  0  0  0  0  0  0  0  0  0  0  0
   21.7594   40.8183  -12.0150 H   0  0  0  0  0  0  0  0  0  0  0  0
   22.0400   38.8535  -10.4642 H   0  0  0  0  0  0  0  0  0  0  0  0
   19.8160   37.8981  -10.8663 H   0  0  0  0  0  0  0  0  0  0  0  0
   20.2666   38.9127  -12.2270 H   0  0  0  0  0  0  0  0  0  0  0  0
   19.1088   39.5111  -11.0491 H   0  0  0  0  0  0  0  0  0  0  0  0
   19.0371   38.5112   -8.8201 H   0  0  0  0  0  0  0  0  0  0  0  0
   18.6849   37.4592   -5.9572 H   0  0  0  0  0  0  0  0  0  0  0  0
   18.3312   38.9511   -5.1183 H   0  0  0  0  0  0  0  0  0  0  0  0
   17.3614   38.2397   -7.7799 H   0  0  0  0  0  0  0  0  0  0  0  0
   15.7506   39.9476   -6.1091 H   0  0  0  0  0  0  0  0  0  0  0  0
   17.1979   40.6140   -6.8398 H   0  0  0  0  0  0  0  0  0  0  0  0
   14.0125   39.2478   -7.8590 H   0  0  0  0  0  0  0  0  0  0  0  0
   15.8425   41.1460  -10.8618 H   0  0  0  0  0  0  0  0  0  0  0  0
   14.2909   40.4437  -10.5247 H   0  0  0  0  0  0  0  0  0  0  0  0
   16.0661   43.5699  -11.1985 H   0  0  0  0  0  0  0  0  0  0  0  0
   12.4189   45.7454  -12.0236 H   0  0  0  0  0  0  0  0  0  0  0  0
   11.1014   43.7965  -11.2053 H   0  0  0  0  0  0  0  0  0  0  0  0
   12.2644   41.7728  -10.3701 H   0  0  0  0  0  0  0  0  0  0  0  0
   16.8989   45.4450  -11.3285 H   0  0  0  0  0  0  0  0  0  0  0  0
   16.7457   45.7997  -13.0424 H   0  0  0  0  0  0  0  0  0  0  0  0
   17.7558   47.7603  -12.1495 H   0  0  0  0  0  0  0  0  0  0  0  0
   16.0793   48.2077  -12.2705 H   0  0  0  0  0  0  0  0  0  0  0  0
   16.4744   48.9046  -10.1176 H   0  0  0  0  0  0  0  0  0  0  0  0
   15.9571   47.2827   -9.7491 H   0  0  0  0  0  0  0  0  0  0  0  0
   18.5916   46.7472  -10.0322 H   0  0  0  0  0  0  0  0  0  0  0  0
   18.7991   48.4287   -9.7803 H   0  0  0  0  0  0  0  0  0  0  0  0
   18.4142   50.1097   -8.3528 H   0  0  0  0  0  0  0  0  0  0  0  0
   17.6107   50.4749   -6.8411 H   0  0  0  0  0  0  0  0  0  0  0  0
   16.6556   49.9330   -8.1956 H   0  0  0  0  0  0  0  0  0  0  0  0
   16.8894   45.1752   -8.9823 H   0  0  0  0  0  0  0  0  0  0  0  0
   19.4611   42.4371   -6.8648 H   0  0  0  0  0  0  0  0  0  0  0  0
   20.5617   43.5684   -4.7657 H   0  0  0  0  0  0  0  0  0  0  0  0
   20.9869   45.2793   -4.8768 H   0  0  0  0  0  0  0  0  0  0  0  0
   21.7572   44.0994   -5.9565 H   0  0  0  0  0  0  0  0  0  0  0  0
   15.7387   43.0158   -7.6718 H   0  0  0  0  0  0  0  0  0  0  0  0
   22.3281   40.7548   -5.9499 H   0  0  0  0  0  0  0  0  0  0  0  0
   22.7871   40.6352   -8.3846 H   0  0  0  0  0  0  0  0  0  0  0  0
   16.5281   37.8638   -6.4410 H   0  0  0  0  0  0  0  0  0  0  0  0
  1  2  1  0  0  0  0
  1 44  1  0  0  0  0
  1 45  1  0  0  0  0
  1 46  1  0  0  0  0
  2  3  1  0  0  0  0
  2  4  1  0  0  0  0
  2 47  1  0  0  0  0
  3 48  1  0  0  0  0
  3 49  1  0  0  0  0
  3 50  1  0  0  0  0
  4 41  1  0  0  0  0
  4  5  2  0  0  0  0
  5  6  1  0  0  0  0
  5 51  1  0  0  0  0
  6  7  1  0  0  0  0
  6 39  2  0  0  0  0
  7  8  1  0  0  0  0
  7 52  1  0  0  0  0
  7 53  1  0  0  0  0
  8  9  1  0  0  0  0
  8 54  1  0  0  0  0
  8 83  1  0  0  0  0
  9 10  1  0  0  0  0
  9 55  1  0  0  0  0
  9 56  1  0  0  0  0
 10 42  1  6  0  0  0
 10 11  1  0  0  0  0
 10 12  1  0  0  0  0
 11 57  1  0  0  0  0
 12 43  1  1  0  0  0
 12 38  1  0  0  0  0
 12 13  1  0  0  0  0
 13 14  1  0  0  0  0
 13 58  1  0  0  0  0
 13 59  1  0  0  0  0
 14 19  1  0  0  0  0
 14 15  2  0  0  0  0
 15 16  1  0  0  0  0
 15 60  1  0  0  0  0
 16 17  2  0  0  0  0
 16 20  1  0  0  0  0
 17 18  1  0  0  0  0
 17 61  1  0  0  0  0
 18 19  2  0  0  0  0
 18 62  1  0  0  0  0
 19 63  1  0  0  0  0
 20 21  1  0  0  0  0
 21 22  1  0  0  0  0
 21 64  1  0  0  0  0
 21 65  1  0  0  0  0
 22 23  1  0  0  0  0
 22 66  1  0  0  0  0
 22 67  1  0  0  0  0
 23 24  1  0  0  0  0
 23 68  1  0  0  0  0
 23 69  1  0  0  0  0
 24 25  1  0  0  0  0
 24 70  1  0  0  0  0
 24 71  1  0  0  0  0
 25 26  1  0  0  0  0
 25 29  1  0  0  0  0
 26 27  1  0  0  0  0
 26 28  2  0  0  0  0
 27 72  1  0  0  0  0
 27 73  1  0  0  0  0
 27 74  1  0  0  0  0
 29 35  1  0  0  0  0
 29 30  2  0  0  0  0
 30 31  1  0  0  0  0
 30 75  1  0  0  0  0
 31 32  2  0  0  0  0
 31 36  1  0  0  0  0
 32 33  1  0  0  0  0
 32 76  1  0  0  0  0
 33 34  1  0  0  0  0
 33 35  2  0  0  0  0
 34 77  1  0  0  0  0
 34 78  1  0  0  0  0
 34 79  1  0  0  0  0
 36 37  2  0  0  0  0
 36 38  1  0  0  0  0
 38 80  1  0  0  0  0
 39 40  1  0  0  0  0
 40 41  2  0  0  0  0
 40 81  1  0  0  0  0
 41 82  1  0  0  0  0
M  CHG  1   8   1
M  END
