BACE_112.smi:1
 OpenBabel09301811243D
Structure written by MMmdl.
 86 91  0  0  1  0  0  0  0  0999 V2000
   20.0949   39.0853  -11.6551 C   0  0  0  0  0  0  0  0  0  0  0  0
   20.9290   39.0803  -10.3699 C   0  0  0  0  0  0  0  0  0  0  0  0
   21.9620   40.2197  -10.3794 C   0  0  0  0  0  0  0  0  0  0  0  0
   20.0918   39.1000   -9.0949 C   0  0  0  0  0  0  0  0  0  0  0  0
   18.7009   39.3857   -9.0823 C   0  0  0  0  0  0  0  0  0  0  0  0
   17.9973   39.5428   -7.8644 C   0  0  0  0  0  0  0  0  0  0  0  0
   18.6851   39.2624   -6.6687 C   0  0  0  0  0  0  0  0  0  0  0  0
   20.0535   38.9500   -6.6694 C   0  0  0  0  0  0  0  0  0  0  0  0
   20.7568   38.8703   -7.8765 C   0  0  0  0  0  0  0  0  0  0  0  0
   16.5744   40.0657   -7.7945 C   0  0  0  0  0  0  0  0  0  0  0  0
   15.4791   39.1920   -7.2261 C   0  0  0  0  0  0  0  0  0  0  0  0
   15.4355   39.5950   -8.6777 C   0  0  0  0  0  0  0  0  0  0  0  0
   16.4604   41.4689   -7.2967 N   0  3  0  0  0  0  0  0  0  0  0  0
   16.4527   42.6027   -8.2832 C   0  0  0  0  0  0  0  0  0  0  0  0
   17.2576   42.3828   -9.6011 C   0  0  1  0  0  0  0  0  0  0  0  0
   16.4508   41.7418  -10.5778 O   0  0  0  0  0  0  0  0  0  0  0  0
   17.9549   43.5832  -10.3064 C   0  0  2  0  0  0  0  0  0  0  0  0
   19.4379   43.7415   -9.9002 C   0  0  0  0  0  0  0  0  0  0  0  0
   19.6677   43.8640   -8.4048 C   0  0  0  0  0  0  0  0  0  0  0  0
   19.3803   45.0748   -7.7444 C   0  0  0  0  0  0  0  0  0  0  0  0
   19.5556   45.1882   -6.3459 C   0  0  0  0  0  0  0  0  0  0  0  0
   20.0590   44.0855   -5.6286 C   0  0  0  0  0  0  0  0  0  0  0  0
   20.3692   42.8814   -6.2851 C   0  0  0  0  0  0  0  0  0  0  0  0
   20.1686   42.7681   -7.6728 C   0  0  0  0  0  0  0  0  0  0  0  0
   19.2596   46.3224   -5.6244 O   0  0  0  0  0  0  0  0  0  0  0  0
   18.6053   47.4150   -6.2555 C   0  0  0  0  0  0  0  0  0  0  0  0
   19.5158   48.3035   -7.1000 C   0  0  0  0  0  0  0  0  0  0  0  0
   20.9169   48.1174   -7.0593 C   0  0  0  0  0  0  0  0  0  0  0  0
   21.7736   48.9210   -7.8324 C   0  0  0  0  0  0  0  0  0  0  0  0
   21.2383   49.9342   -8.6460 C   0  0  0  0  0  0  0  0  0  0  0  0
   19.8472   50.1445   -8.6781 C   0  0  0  0  0  0  0  0  0  0  0  0
   18.9777   49.3342   -7.9133 C   0  0  0  0  0  0  0  0  0  0  0  0
   17.4852   49.6447   -7.9409 C   0  0  0  0  0  0  0  0  0  0  0  0
   17.0277   50.0768   -9.2120 O   0  0  0  0  0  0  0  0  0  0  0  0
   16.9349   49.1608  -10.2386 C   0  0  0  0  0  0  0  0  0  0  0  0
   16.8561   47.7527  -10.0730 C   0  0  0  0  0  0  0  0  0  0  0  0
   16.6682   46.9440  -11.2211 C   0  0  0  0  0  0  0  0  0  0  0  0
   16.5794   47.5799  -12.4771 C   0  0  0  0  0  0  0  0  0  0  0  0
   16.6965   48.9794  -12.5388 C   0  0  0  0  0  0  0  0  0  0  0  0
   16.6278   49.6972  -13.8686 C   0  0  0  0  0  0  0  0  0  0  0  0
   16.8601   49.7523  -11.4470 N   0  0  0  0  0  0  0  0  0  0  0  0
   16.5729   45.4443  -11.1442 C   0  0  0  0  0  0  0  0  0  0  0  0
   16.0004   44.7991  -12.0240 O   0  0  0  0  0  0  0  0  0  0  0  0
   17.2898   44.8764  -10.1611 N   0  0  0  0  0  0  0  0  0  0  0  0
   18.0820   41.7213   -9.3866 H   0  0  0  0  0  0  0  0  0  0  0  0
   18.0137   43.3522  -11.3737 H   0  0  0  0  0  0  0  0  0  0  0  0
   19.3770   38.2670  -11.6391 H   0  0  0  0  0  0  0  0  0  0  0  0
   20.7292   38.9598  -12.5317 H   0  0  0  0  0  0  0  0  0  0  0  0
   19.5453   40.0187  -11.7832 H   0  0  0  0  0  0  0  0  0  0  0  0
   21.4937   38.1501  -10.3471 H   0  0  0  0  0  0  0  0  0  0  0  0
   22.6081   40.1895   -9.5003 H   0  0  0  0  0  0  0  0  0  0  0  0
   21.4813   41.1951  -10.4060 H   0  0  0  0  0  0  0  0  0  0  0  0
   22.6133   40.1569  -11.2492 H   0  0  0  0  0  0  0  0  0  0  0  0
   18.1742   39.5647  -10.0060 H   0  0  0  0  0  0  0  0  0  0  0  0
   18.1729   39.3483   -5.7230 H   0  0  0  0  0  0  0  0  0  0  0  0
   20.5765   38.8016   -5.7401 H   0  0  0  0  0  0  0  0  0  0  0  0
   21.8146   38.6465   -7.8619 H   0  0  0  0  0  0  0  0  0  0  0  0
   15.7058   38.1502   -7.0375 H   0  0  0  0  0  0  0  0  0  0  0  0
   14.7326   39.6313   -6.5650 H   0  0  0  0  0  0  0  0  0  0  0  0
   14.6424   40.2886   -8.9490 H   0  0  0  0  0  0  0  0  0  0  0  0
   15.6371   38.8098   -9.4052 H   0  0  0  0  0  0  0  0  0  0  0  0
   15.6169   41.5419   -6.7399 H   0  0  0  0  0  0  0  0  0  0  0  0
   15.4157   42.8503   -8.5231 H   0  0  0  0  0  0  0  0  0  0  0  0
   16.8451   43.4683   -7.7480 H   0  0  0  0  0  0  0  0  0  0  0  0
   16.2045   40.8829  -10.2658 H   0  0  0  0  0  0  0  0  0  0  0  0
   20.0025   42.8862  -10.2715 H   0  0  0  0  0  0  0  0  0  0  0  0
   19.8750   44.6090  -10.3968 H   0  0  0  0  0  0  0  0  0  0  0  0
   19.0283   45.9090   -8.3302 H   0  0  0  0  0  0  0  0  0  0  0  0
   20.2055   44.1560   -4.5600 H   0  0  0  0  0  0  0  0  0  0  0  0
   20.7485   42.0424   -5.7223 H   0  0  0  0  0  0  0  0  0  0  0  0
   20.4003   41.8355   -8.1658 H   0  0  0  0  0  0  0  0  0  0  0  0
   17.7646   47.0360   -6.8367 H   0  0  0  0  0  0  0  0  0  0  0  0
   18.1751   48.0336   -5.4673 H   0  0  0  0  0  0  0  0  0  0  0  0
   21.3518   47.3485   -6.4389 H   0  0  0  0  0  0  0  0  0  0  0  0
   22.8410   48.7555   -7.8021 H   0  0  0  0  0  0  0  0  0  0  0  0
   21.8927   50.5490   -9.2451 H   0  0  0  0  0  0  0  0  0  0  0  0
   19.4479   50.9350   -9.2966 H   0  0  0  0  0  0  0  0  0  0  0  0
   16.8597   48.8383   -7.5720 H   0  0  0  0  0  0  0  0  0  0  0  0
   17.3215   50.4655   -7.2444 H   0  0  0  0  0  0  0  0  0  0  0  0
   16.8997   47.3007   -9.0972 H   0  0  0  0  0  0  0  0  0  0  0  0
   16.4474   47.0040  -13.3818 H   0  0  0  0  0  0  0  0  0  0  0  0
   16.6362   50.7802  -13.7411 H   0  0  0  0  0  0  0  0  0  0  0  0
   15.7171   49.4217  -14.4011 H   0  0  0  0  0  0  0  0  0  0  0  0
   17.4834   49.4222  -14.4849 H   0  0  0  0  0  0  0  0  0  0  0  0
   17.6957   45.5033   -9.4861 H   0  0  0  0  0  0  0  0  0  0  0  0
   17.2284   41.5969   -6.6449 H   0  0  0  0  0  0  0  0  0  0  0  0
  1  2  1  0  0  0  0
  1 47  1  0  0  0  0
  1 48  1  0  0  0  0
  1 49  1  0  0  0  0
  2  3  1  0  0  0  0
  2  4  1  0  0  0  0
  2 50  1  0  0  0  0
  3 51  1  0  0  0  0
  3 52  1  0  0  0  0
  3 53  1  0  0  0  0
  4  9  1  0  0  0  0
  4  5  2  0  0  0  0
  5  6  1  0  0  0  0
  5 54  1  0  0  0  0
  6  7  2  0  0  0  0
  6 10  1  0  0  0  0
  7  8  1  0  0  0  0
  7 55  1  0  0  0  0
  8  9  2  0  0  0  0
  8 56  1  0  0  0  0
  9 57  1  0  0  0  0
 10 12  1  0  0  0  0
 10 11  1  0  0  0  0
 10 13  1  0  0  0  0
 11 12  1  0  0  0  0
 11 58  1  0  0  0  0
 11 59  1  0  0  0  0
 12 60  1  0  0  0  0
 12 61  1  0  0  0  0
 13 14  1  0  0  0  0
 13 62  1  0  0  0  0
 13 86  1  0  0  0  0
 14 15  1  0  0  0  0
 14 63  1  0  0  0  0
 14 64  1  0  0  0  0
 15 45  1  1  0  0  0
 15 16  1  0  0  0  0
 15 17  1  0  0  0  0
 16 65  1  0  0  0  0
 17 46  1  6  0  0  0
 17 44  1  0  0  0  0
 17 18  1  0  0  0  0
 18 19  1  0  0  0  0
 18 66  1  0  0  0  0
 18 67  1  0  0  0  0
 19 24  1  0  0  0  0
 19 20  2  0  0  0  0
 20 21  1  0  0  0  0
 20 68  1  0  0  0  0
 21 22  2  0  0  0  0
 21 25  1  0  0  0  0
 22 23  1  0  0  0  0
 22 69  1  0  0  0  0
 23 24  2  0  0  0  0
 23 70  1  0  0  0  0
 24 71  1  0  0  0  0
 25 26  1  0  0  0  0
 26 27  1  0  0  0  0
 26 72  1  0  0  0  0
 26 73  1  0  0  0  0
 27 32  2  0  0  0  0
 27 28  1  0  0  0  0
 28 29  2  0  0  0  0
 28 74  1  0  0  0  0
 29 30  1  0  0  0  0
 29 75  1  0  0  0  0
 30 31  2  0  0  0  0
 30 76  1  0  0  0  0
 31 32  1  0  0  0  0
 31 77  1  0  0  0  0
 32 33  1  0  0  0  0
 33 34  1  0  0  0  0
 33 78  1  0  0  0  0
 33 79  1  0  0  0  0
 34 35  1  0  0  0  0
 35 41  1  0  0  0  0
 35 36  2  0  0  0  0
 36 37  1  0  0  0  0
 36 80  1  0  0  0  0
 37 38  2  0  0  0  0
 37 42  1  0  0  0  0
 38 39  1  0  0  0  0
 38 81  1  0  0  0  0
 39 40  1  0  0  0  0
 39 41  2  0  0  0  0
 40 82  1  0  0  0  0
 40 83  1  0  0  0  0
 40 84  1  0  0  0  0
 42 43  2  0  0  0  0
 42 44  1  0  0  0  0
 44 85  1  0  0  0  0
M  CHG  1  13   1
M  END
