BACE_113.smi:1
 OpenBabel09301811243D
Structure written by MMmdl.
 79 82  0  0  1  0  0  0  0  0999 V2000
   20.8588   39.8953   -6.9637 C   0  0  0  0  0  0  0  0  0  0  0  0
   20.5230   38.5512   -7.6408 C   0  0  0  0  0  0  0  0  0  0  0  0
   21.4927   38.3510   -8.8233 C   0  0  0  0  0  0  0  0  0  0  0  0
   19.0364   38.4178   -8.0151 C   0  0  0  0  0  0  0  0  0  0  0  0
   18.6220   37.7780   -9.2086 C   0  0  0  0  0  0  0  0  0  0  0  0
   17.2552   37.6753   -9.5317 C   0  0  0  0  0  0  0  0  0  0  0  0
   16.2791   38.2373   -8.6917 C   0  0  0  0  0  0  0  0  0  0  0  0
   16.6731   38.8803   -7.5031 C   0  0  0  0  0  0  0  0  0  0  0  0
   15.6456   39.6059   -6.6473 C   0  0  0  0  0  0  0  0  0  0  0  0
   15.2595   40.9147   -7.2397 N   0  3  0  0  0  0  0  0  0  0  0  0
   16.3740   41.7831   -7.7091 C   0  0  0  0  0  0  0  0  0  0  0  0
   15.9553   42.8842   -8.7162 C   0  0  1  0  0  0  0  0  0  0  0  0
   15.5810   44.0701   -8.0400 O   0  0  0  0  0  0  0  0  0  0  0  0
   17.0102   43.2297   -9.8189 C   0  0  2  0  0  0  0  0  0  0  0  0
   18.5162   43.1249   -9.4243 C   0  0  0  0  0  0  0  0  0  0  0  0
   18.9922   44.0040   -8.2711 C   0  0  0  0  0  0  0  0  0  0  0  0
   19.2729   43.4370   -7.0097 C   0  0  0  0  0  0  0  0  0  0  0  0
   19.7611   44.2369   -5.9584 C   0  0  0  0  0  0  0  0  0  0  0  0
   19.9828   45.6128   -6.1602 C   0  0  0  0  0  0  0  0  0  0  0  0
   19.7238   46.1858   -7.4211 C   0  0  0  0  0  0  0  0  0  0  0  0
   19.9828   47.6590   -7.6625 C   0  0  0  0  0  0  0  0  0  0  0  0
   18.8088   48.5389   -7.1987 C   0  0  0  0  0  0  0  0  0  0  0  0
   18.8356   49.9654   -7.7858 C   0  0  0  0  0  0  0  0  0  0  0  0
   18.4870   50.0463   -9.2842 C   0  0  0  0  0  0  0  0  0  0  0  0
   17.0135   49.7220   -9.5917 C   0  0  0  0  0  0  0  0  0  0  0  0
   16.8600   48.7870  -10.7739 C   0  0  0  0  0  0  0  0  0  0  0  0
   16.8954   47.3934  -10.5798 C   0  0  0  0  0  0  0  0  0  0  0  0
   16.7665   46.5401  -11.7026 C   0  0  0  0  0  0  0  0  0  0  0  0
   16.5859   47.1492  -12.9638 C   0  0  0  0  0  0  0  0  0  0  0  0
   16.5784   48.5564  -13.0538 C   0  0  0  0  0  0  0  0  0  0  0  0
   16.4311   49.2535  -14.3883 C   0  0  0  0  0  0  0  0  0  0  0  0
   16.7161   49.3647  -11.9835 N   0  0  0  0  0  0  0  0  0  0  0  0
   16.8843   45.0415  -11.5749 C   0  0  0  0  0  0  0  0  0  0  0  0
   17.1003   44.3178  -12.5500 O   0  0  0  0  0  0  0  0  0  0  0  0
   16.7306   44.5709  -10.3317 N   0  0  0  0  0  0  0  0  0  0  0  0
   19.2352   45.3792   -8.4719 C   0  0  0  0  0  0  0  0  0  0  0  0
   18.0391   38.9208   -7.1490 C   0  0  0  0  0  0  0  0  0  0  0  0
   15.0615   42.5441   -9.2404 H   0  0  0  0  0  0  0  0  0  0  0  0
   16.8602   42.5167  -10.6329 H   0  0  0  0  0  0  0  0  0  0  0  0
   20.3361   40.0311   -6.0172 H   0  0  0  0  0  0  0  0  0  0  0  0
   20.6076   40.7320   -7.6161 H   0  0  0  0  0  0  0  0  0  0  0  0
   21.9233   39.9629   -6.7357 H   0  0  0  0  0  0  0  0  0  0  0  0
   20.7251   37.7636   -6.9139 H   0  0  0  0  0  0  0  0  0  0  0  0
   21.4298   37.3485   -9.2404 H   0  0  0  0  0  0  0  0  0  0  0  0
   22.5292   38.4892   -8.5113 H   0  0  0  0  0  0  0  0  0  0  0  0
   21.2991   39.0646   -9.6231 H   0  0  0  0  0  0  0  0  0  0  0  0
   19.3359   37.3500   -9.8944 H   0  0  0  0  0  0  0  0  0  0  0  0
   16.9555   37.1763  -10.4398 H   0  0  0  0  0  0  0  0  0  0  0  0
   15.2344   38.1816   -8.9640 H   0  0  0  0  0  0  0  0  0  0  0  0
   14.7555   38.9859   -6.5336 H   0  0  0  0  0  0  0  0  0  0  0  0
   16.0309   39.7517   -5.6410 H   0  0  0  0  0  0  0  0  0  0  0  0
   14.6569   40.7056   -8.0207 H   0  0  0  0  0  0  0  0  0  0  0  0
   16.8708   42.2072   -6.8407 H   0  0  0  0  0  0  0  0  0  0  0  0
   17.1063   41.1721   -8.2214 H   0  0  0  0  0  0  0  0  0  0  0  0
   15.6578   43.9272   -7.0956 H   0  0  0  0  0  0  0  0  0  0  0  0
   18.7904   42.0918   -9.2130 H   0  0  0  0  0  0  0  0  0  0  0  0
   19.1245   43.3814  -10.2922 H   0  0  0  0  0  0  0  0  0  0  0  0
   19.1292   42.3799   -6.8391 H   0  0  0  0  0  0  0  0  0  0  0  0
   19.9725   43.7890   -4.9985 H   0  0  0  0  0  0  0  0  0  0  0  0
   20.3731   46.2169   -5.3522 H   0  0  0  0  0  0  0  0  0  0  0  0
   20.8998   47.9566   -7.1545 H   0  0  0  0  0  0  0  0  0  0  0  0
   20.1742   47.7918   -8.7264 H   0  0  0  0  0  0  0  0  0  0  0  0
   17.8692   48.0540   -7.4630 H   0  0  0  0  0  0  0  0  0  0  0  0
   18.8150   48.5899   -6.1088 H   0  0  0  0  0  0  0  0  0  0  0  0
   18.1313   50.5921   -7.2402 H   0  0  0  0  0  0  0  0  0  0  0  0
   19.8214   50.4006   -7.6166 H   0  0  0  0  0  0  0  0  0  0  0  0
   18.7150   51.0430   -9.6636 H   0  0  0  0  0  0  0  0  0  0  0  0
   19.1421   49.3822   -9.8485 H   0  0  0  0  0  0  0  0  0  0  0  0
   16.5185   49.2629   -8.7367 H   0  0  0  0  0  0  0  0  0  0  0  0
   16.4671   50.6457   -9.7832 H   0  0  0  0  0  0  0  0  0  0  0  0
   17.0463   47.0093   -9.5827 H   0  0  0  0  0  0  0  0  0  0  0  0
   16.4826   46.5504  -13.8516 H   0  0  0  0  0  0  0  0  0  0  0  0
   16.1722   48.5508  -15.1800 H   0  0  0  0  0  0  0  0  0  0  0  0
   17.3688   49.7376  -14.6628 H   0  0  0  0  0  0  0  0  0  0  0  0
   15.6524   50.0140  -14.3342 H   0  0  0  0  0  0  0  0  0  0  0  0
   16.4599   45.2318   -9.6176 H   0  0  0  0  0  0  0  0  0  0  0  0
   19.0640   45.8172   -9.4441 H   0  0  0  0  0  0  0  0  0  0  0  0
   18.3130   39.3779   -6.2113 H   0  0  0  0  0  0  0  0  0  0  0  0
   14.7125   41.4051   -6.5352 H   0  0  0  0  0  0  0  0  0  0  0  0
  1  2  1  0  0  0  0
  1 40  1  0  0  0  0
  1 41  1  0  0  0  0
  1 42  1  0  0  0  0
  2  3  1  0  0  0  0
  2  4  1  0  0  0  0
  2 43  1  0  0  0  0
  3 44  1  0  0  0  0
  3 45  1  0  0  0  0
  3 46  1  0  0  0  0
  4 37  1  0  0  0  0
  4  5  2  0  0  0  0
  5  6  1  0  0  0  0
  5 47  1  0  0  0  0
  6  7  2  0  0  0  0
  6 48  1  0  0  0  0
  7  8  1  0  0  0  0
  7 49  1  0  0  0  0
  8  9  1  0  0  0  0
  8 37  2  0  0  0  0
  9 10  1  0  0  0  0
  9 50  1  0  0  0  0
  9 51  1  0  0  0  0
 10 11  1  0  0  0  0
 10 52  1  0  0  0  0
 10 79  1  0  0  0  0
 11 12  1  0  0  0  0
 11 53  1  0  0  0  0
 11 54  1  0  0  0  0
 12 38  1  6  0  0  0
 12 13  1  0  0  0  0
 12 14  1  0  0  0  0
 13 55  1  0  0  0  0
 14 39  1  6  0  0  0
 14 35  1  0  0  0  0
 14 15  1  0  0  0  0
 15 16  1  0  0  0  0
 15 56  1  0  0  0  0
 15 57  1  0  0  0  0
 16 36  1  0  0  0  0
 16 17  2  0  0  0  0
 17 18  1  0  0  0  0
 17 58  1  0  0  0  0
 18 19  2  0  0  0  0
 18 59  1  0  0  0  0
 19 20  1  0  0  0  0
 19 60  1  0  0  0  0
 20 21  1  0  0  0  0
 20 36  2  0  0  0  0
 21 22  1  0  0  0  0
 21 61  1  0  0  0  0
 21 62  1  0  0  0  0
 22 23  1  0  0  0  0
 22 63  1  0  0  0  0
 22 64  1  0  0  0  0
 23 24  1  0  0  0  0
 23 65  1  0  0  0  0
 23 66  1  0  0  0  0
 24 25  1  0  0  0  0
 24 67  1  0  0  0  0
 24 68  1  0  0  0  0
 25 26  1  0  0  0  0
 25 69  1  0  0  0  0
 25 70  1  0  0  0  0
 26 32  1  0  0  0  0
 26 27  2  0  0  0  0
 27 28  1  0  0  0  0
 27 71  1  0  0  0  0
 28 29  2  0  0  0  0
 28 33  1  0  0  0  0
 29 30  1  0  0  0  0
 29 72  1  0  0  0  0
 30 31  1  0  0  0  0
 30 32  2  0  0  0  0
 31 73  1  0  0  0  0
 31 74  1  0  0  0  0
 31 75  1  0  0  0  0
 33 34  2  0  0  0  0
 33 35  1  0  0  0  0
 35 76  1  0  0  0  0
 36 77  1  0  0  0  0
 37 78  1  0  0  0  0
M  CHG  1  10   1
M  END
