BACE_128.smi:1
 OpenBabel09301811243D
Structure written by MMmdl.
 94 98  0  0  1  0  0  0  0  0999 V2000
   16.1724   45.1276  -12.3714 C   0  0  0  0  0  0  0  0  0  0  0  0
   16.5333   43.8348  -12.8396 O   0  0  0  0  0  0  0  0  0  0  0  0
   17.8403   43.4343  -12.4646 C   0  0  0  0  0  0  0  0  0  0  0  0
   18.0353   43.1792  -10.9774 C   0  0  0  0  0  0  0  0  0  0  0  0
   16.9803   42.7525  -10.1451 C   0  0  0  0  0  0  0  0  0  0  0  0
   17.2102   42.4938   -8.7745 C   0  0  0  0  0  0  0  0  0  0  0  0
   18.5118   42.6294   -8.2454 C   0  0  0  0  0  0  0  0  0  0  0  0
   19.5847   42.9983   -9.0860 C   0  0  0  0  0  0  0  0  0  0  0  0
   19.3277   43.3113  -10.4411 C   0  0  0  0  0  0  0  0  0  0  0  0
   20.9946   42.9749   -8.5774 C   0  0  0  0  0  0  0  0  0  0  0  0
   21.2872   43.2511   -7.4152 O   0  0  0  0  0  0  0  0  0  0  0  0
   21.8508   42.5041   -9.4929 N   0  0  0  0  0  0  0  0  0  0  0  0
   23.2383   42.0670   -9.3735 C   0  0  1  0  0  0  0  0  0  0  0  0
   23.2855   40.5203   -9.2264 C   0  0  0  0  0  0  0  0  0  0  0  0
   22.2306   39.9579   -8.2802 C   0  0  0  0  0  0  0  0  0  0  0  0
   21.0724   39.3215   -8.7831 C   0  0  0  0  0  0  0  0  0  0  0  0
   20.0330   38.9149   -7.9186 C   0  0  0  0  0  0  0  0  0  0  0  0
   20.1747   39.1546   -6.5300 C   0  0  0  0  0  0  0  0  0  0  0  0
   21.3456   39.7475   -6.0223 C   0  0  0  0  0  0  0  0  0  0  0  0
   22.3774   40.1413   -6.8935 C   0  0  0  0  0  0  0  0  0  0  0  0
   18.9393   38.3045   -8.4974 O   0  0  0  0  0  0  0  0  0  0  0  0
   17.8334   37.9063   -7.6838 C   0  0  0  0  0  0  0  0  0  0  0  0
   16.9033   39.0918   -7.3661 C   0  0  0  0  0  0  0  0  0  0  0  0
   16.2186   39.6565   -8.6250 C   0  0  0  0  0  0  0  0  0  0  0  0
   15.3773   40.9214   -8.3677 C   0  0  0  0  0  0  0  0  0  0  0  0
   16.1793   42.0621   -7.9351 N   0  0  0  0  0  0  0  0  0  0  0  0
   23.9935   42.6279  -10.6194 C   0  0  2  0  0  0  0  0  0  0  0  0
   23.1599   42.5506  -11.7632 O   0  0  0  0  0  0  0  0  0  0  0  0
   25.3365   41.9516  -10.9911 C   0  0  0  0  0  0  0  0  0  0  0  0
   26.4246   42.1544  -10.0401 N   0  0  0  0  0  0  0  0  0  0  0  0
   26.8667   43.5373   -9.8311 C   0  0  1  0  0  0  0  0  0  0  0  0
   26.2924   44.0988   -8.5173 C   0  0  0  0  0  0  0  0  0  0  0  0
   27.0097   45.3804   -8.0512 C   0  0  0  0  0  0  0  0  0  0  0  0
   26.7973   46.5548   -9.0258 C   0  0  0  0  0  0  0  0  0  0  0  0
   26.5154   45.7753   -6.6504 C   0  0  0  0  0  0  0  0  0  0  0  0
   28.4079   45.1430   -7.9060 O   0  0  0  0  0  0  0  0  0  0  0  0
   29.0610   44.4637   -8.9105 C   0  0  0  0  0  0  0  0  0  0  0  0
   30.4639   44.5647   -8.9644 C   0  0  0  0  0  0  0  0  0  0  0  0
   31.1930   43.9196   -9.9795 C   0  0  0  0  0  0  0  0  0  0  0  0
   30.5341   43.1335  -10.9539 C   0  0  0  0  0  0  0  0  0  0  0  0
   29.1287   43.0024  -10.8703 C   0  0  0  0  0  0  0  0  0  0  0  0
   28.3848   43.6597   -9.8641 C   0  0  0  0  0  0  0  0  0  0  0  0
   31.3003   42.4024  -12.0670 C   0  0  0  0  0  0  0  0  0  0  0  0
   30.6484   42.5739  -13.4527 C   0  0  0  0  0  0  0  0  0  0  0  0
   32.7951   42.7593  -12.1634 C   0  0  0  0  0  0  0  0  0  0  0  0
   23.6700   42.4998   -8.4691 H   0  0  0  0  0  0  0  0  0  0  0  0
   24.1445   43.6991  -10.4770 H   0  0  0  0  0  0  0  0  0  0  0  0
   26.5217   44.1645  -10.6563 H   0  0  0  0  0  0  0  0  0  0  0  0
   15.2372   45.4399  -12.8389 H   0  0  0  0  0  0  0  0  0  0  0  0
   16.9339   45.8786  -12.6067 H   0  0  0  0  0  0  0  0  0  0  0  0
   16.0096   45.1264  -11.2885 H   0  0  0  0  0  0  0  0  0  0  0  0
   18.5663   44.1729  -12.8167 H   0  0  0  0  0  0  0  0  0  0  0  0
   18.0732   42.5070  -12.9865 H   0  0  0  0  0  0  0  0  0  0  0  0
   15.9909   42.6278  -10.5571 H   0  0  0  0  0  0  0  0  0  0  0  0
   18.6973   42.3794   -7.2095 H   0  0  0  0  0  0  0  0  0  0  0  0
   20.1359   43.6125  -11.0969 H   0  0  0  0  0  0  0  0  0  0  0  0
   21.4775   42.3517  -10.4177 H   0  0  0  0  0  0  0  0  0  0  0  0
   23.1500   40.0577  -10.2044 H   0  0  0  0  0  0  0  0  0  0  0  0
   24.2707   40.2122   -8.8733 H   0  0  0  0  0  0  0  0  0  0  0  0
   20.9602   39.1677   -9.8458 H   0  0  0  0  0  0  0  0  0  0  0  0
   19.4005   38.8918   -5.8274 H   0  0  0  0  0  0  0  0  0  0  0  0
   21.4463   39.9151   -4.9624 H   0  0  0  0  0  0  0  0  0  0  0  0
   23.2587   40.6254   -6.5033 H   0  0  0  0  0  0  0  0  0  0  0  0
   17.2689   37.1552   -8.2374 H   0  0  0  0  0  0  0  0  0  0  0  0
   18.1562   37.3987   -6.7767 H   0  0  0  0  0  0  0  0  0  0  0  0
   16.1336   38.7625   -6.6681 H   0  0  0  0  0  0  0  0  0  0  0  0
   17.4564   39.8676   -6.8404 H   0  0  0  0  0  0  0  0  0  0  0  0
   16.9646   39.8559   -9.3940 H   0  0  0  0  0  0  0  0  0  0  0  0
   15.5694   38.8888   -9.0448 H   0  0  0  0  0  0  0  0  0  0  0  0
   14.8127   41.1844   -9.2612 H   0  0  0  0  0  0  0  0  0  0  0  0
   14.6388   40.7136   -7.5943 H   0  0  0  0  0  0  0  0  0  0  0  0
   16.3707   42.0645   -6.9390 H   0  0  0  0  0  0  0  0  0  0  0  0
   23.4469   41.8084  -12.2886 H   0  0  0  0  0  0  0  0  0  0  0  0
   25.6597   42.3205  -11.9683 H   0  0  0  0  0  0  0  0  0  0  0  0
   25.1843   40.8800  -11.1256 H   0  0  0  0  0  0  0  0  0  0  0  0
   27.2186   41.5797  -10.3047 H   0  0  0  0  0  0  0  0  0  0  0  0
   25.2216   44.2810   -8.5988 H   0  0  0  0  0  0  0  0  0  0  0  0
   26.4114   43.3503   -7.7339 H   0  0  0  0  0  0  0  0  0  0  0  0
   25.7405   46.7865   -9.1392 H   0  0  0  0  0  0  0  0  0  0  0  0
   27.1954   46.3441  -10.0179 H   0  0  0  0  0  0  0  0  0  0  0  0
   27.2990   47.4554   -8.6664 H   0  0  0  0  0  0  0  0  0  0  0  0
   25.4453   45.9787   -6.6499 H   0  0  0  0  0  0  0  0  0  0  0  0
   27.0253   46.6707   -6.2910 H   0  0  0  0  0  0  0  0  0  0  0  0
   26.7032   44.9818   -5.9279 H   0  0  0  0  0  0  0  0  0  0  0  0
   30.9867   45.1631   -8.2293 H   0  0  0  0  0  0  0  0  0  0  0  0
   32.2631   44.0437   -9.9833 H   0  0  0  0  0  0  0  0  0  0  0  0
   28.6020   42.3995  -11.5937 H   0  0  0  0  0  0  0  0  0  0  0  0
   31.2444   41.3489  -11.8057 H   0  0  0  0  0  0  0  0  0  0  0  0
   29.6422   42.1617  -13.4918 H   0  0  0  0  0  0  0  0  0  0  0  0
   31.2242   42.0514  -14.2173 H   0  0  0  0  0  0  0  0  0  0  0  0
   30.5993   43.6259  -13.7351 H   0  0  0  0  0  0  0  0  0  0  0  0
   33.3281   42.5508  -11.2394 H   0  0  0  0  0  0  0  0  0  0  0  0
   32.9363   43.8139  -12.4012 H   0  0  0  0  0  0  0  0  0  0  0  0
   33.2827   42.1632  -12.9362 H   0  0  0  0  0  0  0  0  0  0  0  0
  1  2  1  0  0  0  0
  1 49  1  0  0  0  0
  1 50  1  0  0  0  0
  1 51  1  0  0  0  0
  2  3  1  0  0  0  0
  3  4  1  0  0  0  0
  3 52  1  0  0  0  0
  3 53  1  0  0  0  0
  4  9  1  0  0  0  0
  4  5  2  0  0  0  0
  5  6  1  0  0  0  0
  5 54  1  0  0  0  0
  6 26  1  0  0  0  0
  6  7  2  0  0  0  0
  7  8  1  0  0  0  0
  7 55  1  0  0  0  0
  8  9  2  0  0  0  0
  8 10  1  0  0  0  0
  9 56  1  0  0  0  0
 10 11  2  0  0  0  0
 10 12  1  0  0  0  0
 12 13  1  0  0  0  0
 12 57  1  0  0  0  0
 13 46  1  1  0  0  0
 13 14  1  0  0  0  0
 13 27  1  0  0  0  0
 14 15  1  0  0  0  0
 14 58  1  0  0  0  0
 14 59  1  0  0  0  0
 15 20  1  0  0  0  0
 15 16  2  0  0  0  0
 16 17  1  0  0  0  0
 16 60  1  0  0  0  0
 17 18  2  0  0  0  0
 17 21  1  0  0  0  0
 18 19  1  0  0  0  0
 18 61  1  0  0  0  0
 19 20  2  0  0  0  0
 19 62  1  0  0  0  0
 20 63  1  0  0  0  0
 21 22  1  0  0  0  0
 22 23  1  0  0  0  0
 22 64  1  0  0  0  0
 22 65  1  0  0  0  0
 23 24  1  0  0  0  0
 23 66  1  0  0  0  0
 23 67  1  0  0  0  0
 24 25  1  0  0  0  0
 24 68  1  0  0  0  0
 24 69  1  0  0  0  0
 25 26  1  0  0  0  0
 25 70  1  0  0  0  0
 25 71  1  0  0  0  0
 26 72  1  0  0  0  0
 27 47  1  1  0  0  0
 27 28  1  0  0  0  0
 27 29  1  0  0  0  0
 28 73  1  0  0  0  0
 29 30  1  0  0  0  0
 29 74  1  0  0  0  0
 29 75  1  0  0  0  0
 30 31  1  0  0  0  0
 30 76  1  0  0  0  0
 31 48  1  6  0  0  0
 31 42  1  0  0  0  0
 31 32  1  0  0  0  0
 32 33  1  0  0  0  0
 32 77  1  0  0  0  0
 32 78  1  0  0  0  0
 33 34  1  0  0  0  0
 33 35  1  0  0  0  0
 33 36  1  0  0  0  0
 34 79  1  0  0  0  0
 34 80  1  0  0  0  0
 34 81  1  0  0  0  0
 35 82  1  0  0  0  0
 35 83  1  0  0  0  0
 35 84  1  0  0  0  0
 36 37  1  0  0  0  0
 37 42  2  0  0  0  0
 37 38  1  0  0  0  0
 38 39  2  0  0  0  0
 38 85  1  0  0  0  0
 39 40  1  0  0  0  0
 39 86  1  0  0  0  0
 40 41  2  0  0  0  0
 40 43  1  0  0  0  0
 41 42  1  0  0  0  0
 41 87  1  0  0  0  0
 43 44  1  0  0  0  0
 43 45  1  0  0  0  0
 43 88  1  0  0  0  0
 44 89  1  0  0  0  0
 44 90  1  0  0  0  0
 44 91  1  0  0  0  0
 45 92  1  0  0  0  0
 45 93  1  0  0  0  0
 45 94  1  0  0  0  0
M  END
