BACE_103.smi:1
 OpenBabel09301811243D
Structure written by MMmdl.
 76 79  0  0  1  0  0  0  0  0999 V2000
   19.8709   47.2309   -7.9706 C   0  0  0  0  0  0  0  0  0  0  0  0
   20.4676   48.3217   -7.0600 C   0  0  0  0  0  0  0  0  0  0  0  0
   21.1312   49.3892   -7.9519 C   0  0  0  0  0  0  0  0  0  0  0  0
   19.3024   48.9499   -6.2801 C   0  0  0  0  0  0  0  0  0  0  0  0
   21.4992   47.7708   -6.0657 C   0  0  0  0  0  0  0  0  0  0  0  0
   22.0596   48.6191   -5.0819 C   0  0  0  0  0  0  0  0  0  0  0  0
   22.9740   48.0874   -4.1566 C   0  0  0  0  0  0  0  0  0  0  0  0
   23.3441   46.7919   -4.1505 N   0  0  0  0  0  0  0  0  0  0  0  0
   22.8613   45.9921   -5.1234 C   0  0  0  0  0  0  0  0  0  0  0  0
   23.3660   44.5654   -5.1241 C   0  0  0  0  0  0  0  0  0  0  0  0
   22.6145   43.7254   -4.1634 N   0  3  0  0  0  0  0  0  0  0  0  0
   21.5678   42.8682   -4.7548 C   0  0  0  0  0  0  0  0  0  0  0  0
   22.2029   41.6687   -5.4989 C   0  0  1  0  0  0  0  0  0  0  0  0
   22.8595   40.8916   -4.5133 O   0  0  0  0  0  0  0  0  0  0  0  0
   21.2360   40.7526   -6.2929 C   0  0  2  0  0  0  0  0  0  0  0  0
   21.9684   39.9036   -7.3732 C   0  0  0  0  0  0  0  0  0  0  0  0
   21.0611   39.3771   -8.4760 C   0  0  0  0  0  0  0  0  0  0  0  0
   21.2228   39.8218   -9.8051 C   0  0  0  0  0  0  0  0  0  0  0  0
   20.3153   39.4077  -10.7983 C   0  0  0  0  0  0  0  0  0  0  0  0
   19.2528   38.5469  -10.4650 C   0  0  0  0  0  0  0  0  0  0  0  0
   19.1015   38.0693   -9.1447 C   0  0  0  0  0  0  0  0  0  0  0  0
   20.0160   38.4865   -8.1592 C   0  0  0  0  0  0  0  0  0  0  0  0
   18.1039   37.1996   -8.7659 O   0  0  0  0  0  0  0  0  0  0  0  0
   16.8141   37.3633   -9.3455 C   0  0  0  0  0  0  0  0  0  0  0  0
   16.2287   38.7112   -8.9789 C   0  0  0  0  0  0  0  0  0  0  0  0
   15.6002   38.9595   -7.8178 C   0  0  0  0  0  0  0  0  0  0  0  0
   15.0881   40.3086   -7.3429 C   0  0  0  0  0  0  0  0  0  0  0  0
   15.1156   41.3706   -8.3465 N   0  0  0  0  0  0  0  0  0  0  0  0
   16.2088   42.2403   -8.4223 C   0  0  0  0  0  0  0  0  0  0  0  0
   17.5106   41.8489   -8.0400 C   0  0  0  0  0  0  0  0  0  0  0  0
   18.5718   42.7763   -8.1468 C   0  0  0  0  0  0  0  0  0  0  0  0
   18.2783   44.0533   -8.6699 C   0  0  0  0  0  0  0  0  0  0  0  0
   16.9492   44.3572   -9.0208 C   0  0  0  0  0  0  0  0  0  0  0  0
   16.5900   45.9369   -9.6131 Cl  0  0  0  0  0  0  0  0  0  0  0  0
   15.9375   43.4704   -8.9073 N   0  0  0  0  0  0  0  0  0  0  0  0
   19.9762   42.4107   -7.7462 C   0  0  0  0  0  0  0  0  0  0  0  0
   20.9566   42.9957   -8.2064 O   0  0  0  0  0  0  0  0  0  0  0  0
   20.0562   41.4496   -6.8120 N   0  0  0  0  0  0  0  0  0  0  0  0
   21.9266   46.4220   -6.0835 C   0  0  0  0  0  0  0  0  0  0  0  0
   22.9516   42.0439   -6.1954 H   0  0  0  0  0  0  0  0  0  0  0  0
   20.7844   40.0500   -5.5896 H   0  0  0  0  0  0  0  0  0  0  0  0
   19.1202   47.6447   -8.6444 H   0  0  0  0  0  0  0  0  0  0  0  0
   19.3826   46.4516   -7.3830 H   0  0  0  0  0  0  0  0  0  0  0  0
   20.6318   46.7610   -8.5927 H   0  0  0  0  0  0  0  0  0  0  0  0
   21.9669   48.9677   -8.5136 H   0  0  0  0  0  0  0  0  0  0  0  0
   21.5171   50.2245   -7.3668 H   0  0  0  0  0  0  0  0  0  0  0  0
   20.4254   49.7993   -8.6769 H   0  0  0  0  0  0  0  0  0  0  0  0
   18.5478   49.3668   -6.9475 H   0  0  0  0  0  0  0  0  0  0  0  0
   19.6585   49.7527   -5.6385 H   0  0  0  0  0  0  0  0  0  0  0  0
   18.8116   48.2161   -5.6399 H   0  0  0  0  0  0  0  0  0  0  0  0
   21.7910   49.6621   -5.0160 H   0  0  0  0  0  0  0  0  0  0  0  0
   23.4012   48.7139   -3.3882 H   0  0  0  0  0  0  0  0  0  0  0  0
   23.3375   44.1680   -6.1380 H   0  0  0  0  0  0  0  0  0  0  0  0
   24.4170   44.5730   -4.8412 H   0  0  0  0  0  0  0  0  0  0  0  0
   23.2740   43.1137   -3.7012 H   0  0  0  0  0  0  0  0  0  0  0  0
   20.9091   42.5116   -3.9620 H   0  0  0  0  0  0  0  0  0  0  0  0
   20.9567   43.4942   -5.4030 H   0  0  0  0  0  0  0  0  0  0  0  0
   22.2198   40.3719   -4.0453 H   0  0  0  0  0  0  0  0  0  0  0  0
   22.7535   40.4983   -7.8443 H   0  0  0  0  0  0  0  0  0  0  0  0
   22.4775   39.0617   -6.9018 H   0  0  0  0  0  0  0  0  0  0  0  0
   22.0201   40.5028  -10.0631 H   0  0  0  0  0  0  0  0  0  0  0  0
   20.4257   39.7570  -11.8159 H   0  0  0  0  0  0  0  0  0  0  0  0
   18.5715   38.2426  -11.2410 H   0  0  0  0  0  0  0  0  0  0  0  0
   19.8889   38.1406   -7.1439 H   0  0  0  0  0  0  0  0  0  0  0  0
   16.8160   37.2266  -10.4278 H   0  0  0  0  0  0  0  0  0  0  0  0
   16.1710   36.5815   -8.9375 H   0  0  0  0  0  0  0  0  0  0  0  0
   16.4160   39.5118   -9.6771 H   0  0  0  0  0  0  0  0  0  0  0  0
   15.4659   38.1502   -7.1146 H   0  0  0  0  0  0  0  0  0  0  0  0
   14.0600   40.1656   -7.0162 H   0  0  0  0  0  0  0  0  0  0  0  0
   15.6399   40.6116   -6.4505 H   0  0  0  0  0  0  0  0  0  0  0  0
   14.2172   41.7178   -8.6482 H   0  0  0  0  0  0  0  0  0  0  0  0
   17.6859   40.8476   -7.6752 H   0  0  0  0  0  0  0  0  0  0  0  0
   19.0573   44.7888   -8.8033 H   0  0  0  0  0  0  0  0  0  0  0  0
   19.1637   41.1185   -6.4624 H   0  0  0  0  0  0  0  0  0  0  0  0
   21.5661   45.7148   -6.8161 H   0  0  0  0  0  0  0  0  0  0  0  0
   22.1920   44.3331   -3.4720 H   0  0  0  0  0  0  0  0  0  0  0  0
  1  2  1  0  0  0  0
  1 42  1  0  0  0  0
  1 43  1  0  0  0  0
  1 44  1  0  0  0  0
  2  3  1  0  0  0  0
  2  4  1  0  0  0  0
  2  5  1  0  0  0  0
  3 45  1  0  0  0  0
  3 46  1  0  0  0  0
  3 47  1  0  0  0  0
  4 48  1  0  0  0  0
  4 49  1  0  0  0  0
  4 50  1  0  0  0  0
  5 39  1  0  0  0  0
  5  6  2  0  0  0  0
  6  7  1  0  0  0  0
  6 51  1  0  0  0  0
  7  8  2  0  0  0  0
  7 52  1  0  0  0  0
  8  9  1  0  0  0  0
  9 10  1  0  0  0  0
  9 39  2  0  0  0  0
 10 11  1  0  0  0  0
 10 53  1  0  0  0  0
 10 54  1  0  0  0  0
 11 12  1  0  0  0  0
 11 55  1  0  0  0  0
 11 76  1  0  0  0  0
 12 13  1  0  0  0  0
 12 56  1  0  0  0  0
 12 57  1  0  0  0  0
 13 40  1  6  0  0  0
 13 14  1  0  0  0  0
 13 15  1  0  0  0  0
 14 58  1  0  0  0  0
 15 41  1  1  0  0  0
 15 38  1  0  0  0  0
 15 16  1  0  0  0  0
 16 17  1  0  0  0  0
 16 59  1  0  0  0  0
 16 60  1  0  0  0  0
 17 22  1  0  0  0  0
 17 18  2  0  0  0  0
 18 19  1  0  0  0  0
 18 61  1  0  0  0  0
 19 20  2  0  0  0  0
 19 62  1  0  0  0  0
 20 21  1  0  0  0  0
 20 63  1  0  0  0  0
 21 22  2  0  0  0  0
 21 23  1  0  0  0  0
 22 64  1  0  0  0  0
 23 24  1  0  0  0  0
 24 25  1  0  0  0  0
 24 65  1  0  0  0  0
 24 66  1  0  0  0  0
 25 26  2  0  0  0  0
 25 67  1  0  0  0  0
 26 27  1  0  0  0  0
 26 68  1  0  0  0  0
 27 28  1  0  0  0  0
 27 69  1  0  0  0  0
 27 70  1  0  0  0  0
 28 29  1  0  0  0  0
 28 71  1  0  0  0  0
 29 35  1  0  0  0  0
 29 30  2  0  0  0  0
 30 31  1  0  0  0  0
 30 72  1  0  0  0  0
 31 32  2  0  0  0  0
 31 36  1  0  0  0  0
 32 33  1  0  0  0  0
 32 73  1  0  0  0  0
 33 34  1  0  0  0  0
 33 35  2  0  0  0  0
 36 37  2  0  0  0  0
 36 38  1  0  0  0  0
 38 74  1  0  0  0  0
 39 75  1  0  0  0  0
M  CHG  1  11   1
M  END
