BACE_67.smi:1
 OpenBabel09301811243D
Structure written by MMmdl.
 84 86  0  0  1  0  0  0  0  0999 V2000
   20.2979   45.9443   -9.9449 C   0  0  0  0  0  0  0  0  0  0  0  0
   19.6592   44.5452   -9.8765 C   0  0  2  0  0  0  0  0  0  0  0  0
   20.1472   43.7548   -8.6430 C   0  0  0  0  0  0  0  0  0  0  0  0
   21.6604   43.4617   -8.5942 C   0  0  0  0  0  0  0  0  0  0  0  0
   22.1006   42.6168   -7.4115 C   0  0  0  0  0  0  0  0  0  0  0  0
   21.3005   42.0987   -6.4662 C   0  0  0  0  0  0  0  0  0  0  0  0
   21.7731   41.1955   -5.3509 C   0  0  0  0  0  0  0  0  0  0  0  0
   21.1559   39.7935   -5.4511 C   0  0  0  0  0  0  0  0  0  0  0  0
   21.8469   38.8325   -6.4385 C   0  0  0  0  0  0  0  0  0  0  0  0
   21.9306   39.2953   -7.8065 N   0  0  0  0  0  0  0  0  0  0  0  0
   20.8452   39.2000   -8.6751 C   0  0  0  0  0  0  0  0  0  0  0  0
   21.0289   39.7239   -9.9611 C   0  0  0  0  0  0  0  0  0  0  0  0
   19.9665   39.7450  -10.8731 C   0  0  0  0  0  0  0  0  0  0  0  0
   18.7149   39.1890  -10.5199 C   0  0  0  0  0  0  0  0  0  0  0  0
   18.5282   38.6249   -9.2377 C   0  0  0  0  0  0  0  0  0  0  0  0
   17.1861   38.0433   -8.8158 C   0  0  0  0  0  0  0  0  0  0  0  0
   17.2600   36.6820   -8.4401 O   0  0  0  0  0  0  0  0  0  0  0  0
   19.5952   38.6414   -8.3163 C   0  0  0  0  0  0  0  0  0  0  0  0
   20.1890   40.4109  -12.1897 C   0  0  0  0  0  0  0  0  0  0  0  0
   20.8601   39.8666  -13.0602 O   0  0  0  0  0  0  0  0  0  0  0  0
   19.6637   41.6296  -12.3690 N   0  0  0  0  0  0  0  0  0  0  0  0
   18.9771   42.4997  -11.4162 C   0  0  1  0  0  0  0  0  0  0  0  0
   19.8329   43.7864  -11.2176 C   0  0  0  0  0  0  0  0  0  0  0  0
   17.5552   42.7132  -11.9793 C   0  0  2  0  0  0  0  0  0  0  0  0
   17.6533   43.3509  -13.2410 O   0  0  0  0  0  0  0  0  0  0  0  0
   16.6479   43.5849  -11.1040 C   0  0  0  0  0  0  0  0  0  0  0  0
   15.2724   43.5823  -11.5964 N   0  0  0  0  0  0  0  0  0  0  0  0
   14.4895   44.7454  -11.1865 C   0  0  0  0  0  0  0  0  0  0  0  0
   14.7630   45.9624  -12.0407 C   0  0  0  0  0  0  0  0  0  0  0  0
   15.9327   46.7695  -12.0991 C   0  0  0  0  0  0  0  0  0  0  0  0
   15.6368   47.7392  -13.0174 C   0  0  0  0  0  0  0  0  0  0  0  0
   16.3659   48.9166  -13.6058 C   0  0  0  0  0  0  0  0  0  0  0  0
   17.6959   49.3764  -12.9449 C   0  0  0  0  0  0  0  0  0  0  0  0
   17.5236   49.6684  -11.4378 C   0  0  0  0  0  0  0  0  0  0  0  0
   18.1398   50.6894  -13.6256 C   0  0  0  0  0  0  0  0  0  0  0  0
   18.8102   48.3323  -13.1685 C   0  0  0  0  0  0  0  0  0  0  0  0
   14.3725   47.5417  -13.4813 O   0  0  0  0  0  0  0  0  0  0  0  0
   13.8190   46.4274  -12.8407 N   0  0  0  0  0  0  0  0  0  0  0  0
   18.6029   44.7209   -9.7054 H   0  0  0  0  0  0  0  0  0  0  0  0
   18.8754   41.9967  -10.4570 H   0  0  0  0  0  0  0  0  0  0  0  0
   17.0901   41.7311  -12.1114 H   0  0  0  0  0  0  0  0  0  0  0  0
   21.3662   45.8932  -10.1608 H   0  0  0  0  0  0  0  0  0  0  0  0
   20.1720   46.4802   -9.0034 H   0  0  0  0  0  0  0  0  0  0  0  0
   19.8351   46.5462  -10.7247 H   0  0  0  0  0  0  0  0  0  0  0  0
   19.8695   44.3110   -7.7455 H   0  0  0  0  0  0  0  0  0  0  0  0
   19.5936   42.8174   -8.5812 H   0  0  0  0  0  0  0  0  0  0  0  0
   21.9722   42.9267   -9.4913 H   0  0  0  0  0  0  0  0  0  0  0  0
   22.2272   44.3910   -8.5659 H   0  0  0  0  0  0  0  0  0  0  0  0
   23.1557   42.3941   -7.3744 H   0  0  0  0  0  0  0  0  0  0  0  0
   20.2364   42.2784   -6.4777 H   0  0  0  0  0  0  0  0  0  0  0  0
   22.8576   41.1372   -5.3317 H   0  0  0  0  0  0  0  0  0  0  0  0
   21.4711   41.6580   -4.4111 H   0  0  0  0  0  0  0  0  0  0  0  0
   21.2598   39.3500   -4.4617 H   0  0  0  0  0  0  0  0  0  0  0  0
   20.0852   39.8612   -5.6454 H   0  0  0  0  0  0  0  0  0  0  0  0
   22.8595   38.6894   -6.1090 H   0  0  0  0  0  0  0  0  0  0  0  0
   21.3818   37.8475   -6.4410 H   0  0  0  0  0  0  0  0  0  0  0  0
   22.8130   39.6509   -8.1469 H   0  0  0  0  0  0  0  0  0  0  0  0
   21.9792   40.1573  -10.2374 H   0  0  0  0  0  0  0  0  0  0  0  0
   17.8973   39.2058  -11.2283 H   0  0  0  0  0  0  0  0  0  0  0  0
   16.8153   38.6155   -7.9640 H   0  0  0  0  0  0  0  0  0  0  0  0
   16.4525   38.1543   -9.6159 H   0  0  0  0  0  0  0  0  0  0  0  0
   16.7140   36.5501   -7.6621 H   0  0  0  0  0  0  0  0  0  0  0  0
   19.4276   38.2292   -7.3335 H   0  0  0  0  0  0  0  0  0  0  0  0
   19.8024   42.0381  -13.2788 H   0  0  0  0  0  0  0  0  0  0  0  0
   19.6433   44.4749  -12.0384 H   0  0  0  0  0  0  0  0  0  0  0  0
   20.8884   43.5344  -11.3264 H   0  0  0  0  0  0  0  0  0  0  0  0
   17.8076   44.2706  -13.0855 H   0  0  0  0  0  0  0  0  0  0  0  0
   16.6673   43.2312  -10.0726 H   0  0  0  0  0  0  0  0  0  0  0  0
   17.0421   44.5933  -11.0922 H   0  0  0  0  0  0  0  0  0  0  0  0
   14.8021   42.7405  -11.2722 H   0  0  0  0  0  0  0  0  0  0  0  0
   13.4309   44.4930  -11.2514 H   0  0  0  0  0  0  0  0  0  0  0  0
   14.6726   44.9691  -10.1340 H   0  0  0  0  0  0  0  0  0  0  0  0
   16.8479   46.6561  -11.5390 H   0  0  0  0  0  0  0  0  0  0  0  0
   16.5505   48.7102  -14.6608 H   0  0  0  0  0  0  0  0  0  0  0  0
   15.6737   49.7592  -13.6018 H   0  0  0  0  0  0  0  0  0  0  0  0
   18.4332   50.0965  -11.0120 H   0  0  0  0  0  0  0  0  0  0  0  0
   17.2975   48.7755  -10.8564 H   0  0  0  0  0  0  0  0  0  0  0  0
   16.7205   50.3858  -11.2639 H   0  0  0  0  0  0  0  0  0  0  0  0
   17.4002   51.4800  -13.4941 H   0  0  0  0  0  0  0  0  0  0  0  0
   18.2850   50.5538  -14.6994 H   0  0  0  0  0  0  0  0  0  0  0  0
   19.0823   51.0548  -13.2153 H   0  0  0  0  0  0  0  0  0  0  0  0
   19.7607   48.6680  -12.7446 H   0  0  0  0  0  0  0  0  0  0  0  0
   18.9758   48.1543  -14.2330 H   0  0  0  0  0  0  0  0  0  0  0  0
   18.5821   47.3690  -12.7136 H   0  0  0  0  0  0  0  0  0  0  0  0
  1  2  1  0  0  0  0
  1 42  1  0  0  0  0
  1 43  1  0  0  0  0
  1 44  1  0  0  0  0
  2 39  1  1  0  0  0
  2 23  1  0  0  0  0
  2  3  1  0  0  0  0
  3  4  1  0  0  0  0
  3 45  1  0  0  0  0
  3 46  1  0  0  0  0
  4  5  1  0  0  0  0
  4 47  1  0  0  0  0
  4 48  1  0  0  0  0
  5  6  2  0  0  0  0
  5 49  1  0  0  0  0
  6  7  1  0  0  0  0
  6 50  1  0  0  0  0
  7  8  1  0  0  0  0
  7 51  1  0  0  0  0
  7 52  1  0  0  0  0
  8  9  1  0  0  0  0
  8 53  1  0  0  0  0
  8 54  1  0  0  0  0
  9 10  1  0  0  0  0
  9 55  1  0  0  0  0
  9 56  1  0  0  0  0
 10 11  1  0  0  0  0
 10 57  1  0  0  0  0
 11 18  1  0  0  0  0
 11 12  2  0  0  0  0
 12 13  1  0  0  0  0
 12 58  1  0  0  0  0
 13 14  2  0  0  0  0
 13 19  1  0  0  0  0
 14 15  1  0  0  0  0
 14 59  1  0  0  0  0
 15 16  1  0  0  0  0
 15 18  2  0  0  0  0
 16 17  1  0  0  0  0
 16 60  1  0  0  0  0
 16 61  1  0  0  0  0
 17 62  1  0  0  0  0
 18 63  1  0  0  0  0
 19 20  2  0  0  0  0
 19 21  1  0  0  0  0
 21 22  1  0  0  0  0
 21 64  1  0  0  0  0
 22 40  1  1  0  0  0
 22 23  1  0  0  0  0
 22 24  1  0  0  0  0
 23 65  1  0  0  0  0
 23 66  1  0  0  0  0
 24 41  1  6  0  0  0
 24 25  1  0  0  0  0
 24 26  1  0  0  0  0
 25 67  1  0  0  0  0
 26 27  1  0  0  0  0
 26 68  1  0  0  0  0
 26 69  1  0  0  0  0
 27 28  1  0  0  0  0
 27 70  1  0  0  0  0
 28 29  1  0  0  0  0
 28 71  1  0  0  0  0
 28 72  1  0  0  0  0
 29 38  2  0  0  0  0
 29 30  1  0  0  0  0
 30 31  2  0  0  0  0
 30 73  1  0  0  0  0
 31 32  1  0  0  0  0
 31 37  1  0  0  0  0
 32 33  1  0  0  0  0
 32 74  1  0  0  0  0
 32 75  1  0  0  0  0
 33 34  1  0  0  0  0
 33 35  1  0  0  0  0
 33 36  1  0  0  0  0
 34 76  1  0  0  0  0
 34 77  1  0  0  0  0
 34 78  1  0  0  0  0
 35 79  1  0  0  0  0
 35 80  1  0  0  0  0
 35 81  1  0  0  0  0
 36 82  1  0  0  0  0
 36 83  1  0  0  0  0
 36 84  1  0  0  0  0
 37 38  1  0  0  0  0
M  END
