BACE_42.smi:1
 OpenBabel09301811243D
Structure written by MMmdl.
 83 85  0  0  1  0  0  0  0  0999 V2000
   21.0193   41.9875   -5.0677 C   0  0  0  0  0  0  0  0  0  0  0  0
   21.0751   40.4637   -4.8857 C   0  0  0  0  0  0  0  0  0  0  0  0
   22.3925   40.0290   -4.2213 C   0  0  0  0  0  0  0  0  0  0  0  0
   20.8189   39.7526   -6.2107 C   0  0  0  0  0  0  0  0  0  0  0  0
   21.7921   39.7536   -7.2323 C   0  0  0  0  0  0  0  0  0  0  0  0
   21.5210   39.1347   -8.4646 C   0  0  0  0  0  0  0  0  0  0  0  0
   20.2665   38.5403   -8.6959 C   0  0  0  0  0  0  0  0  0  0  0  0
   19.2781   38.5355   -7.6894 C   0  0  0  0  0  0  0  0  0  0  0  0
   17.9318   37.8635   -7.9619 C   0  0  0  0  0  0  0  0  0  0  0  0
   16.7364   38.5502   -7.4121 N   0  3  0  0  0  0  0  0  0  0  0  0
   16.6426   40.0195   -7.5729 C   0  0  0  0  0  0  0  0  0  0  0  0
   16.4904   40.4845   -9.0374 C   0  0  1  0  0  0  0  0  0  0  0  0
   15.1585   40.2492   -9.4582 O   0  0  0  0  0  0  0  0  0  0  0  0
   16.8916   41.9716   -9.2385 C   0  0  2  0  0  0  0  0  0  0  0  0
   16.1335   42.9596   -8.3039 C   0  0  0  0  0  0  0  0  0  0  0  0
   16.7301   44.3806   -8.1288 C   0  0  2  0  0  0  0  0  0  0  0  0
   16.5892   45.2634   -9.3816 C   0  0  0  0  0  0  0  0  0  0  0  0
   18.1759   44.3324   -7.5905 C   0  0  0  0  0  0  0  0  0  0  0  0
   18.6955   45.6668   -7.0186 C   0  0  0  0  0  0  0  0  0  0  0  0
   20.1525   45.5962   -6.5217 C   0  0  0  0  0  0  0  0  0  0  0  0
   21.2215   45.9910   -7.5597 C   0  0  0  0  0  0  0  0  0  0  0  0
   21.2230   45.1337   -8.8346 C   0  0  0  0  0  0  0  0  0  0  0  0
   22.4295   45.4091   -9.7439 C   0  0  0  0  0  0  0  0  0  0  0  0
   22.3719   44.6636  -11.0908 C   0  0  0  0  0  0  0  0  0  0  0  0
   22.4681   43.2116  -10.9469 N   0  0  0  0  0  0  0  0  0  0  0  0
   23.7822   42.6167  -10.7224 C   0  0  0  0  0  0  0  0  0  0  0  0
   21.3579   42.3596  -11.1662 C   0  0  0  0  0  0  0  0  0  0  0  0
   20.0323   42.8528  -11.2344 C   0  0  0  0  0  0  0  0  0  0  0  0
   18.9702   41.9549  -11.4587 C   0  0  0  0  0  0  0  0  0  0  0  0
   19.2592   40.5875  -11.6218 C   0  0  0  0  0  0  0  0  0  0  0  0
   20.6033   40.1854  -11.5585 C   0  0  0  0  0  0  0  0  0  0  0  0
   21.6180   41.0400  -11.3202 N   0  0  0  0  0  0  0  0  0  0  0  0
   17.5773   42.4688  -11.6399 C   0  0  0  0  0  0  0  0  0  0  0  0
   17.2600   42.9642  -12.7186 O   0  0  0  0  0  0  0  0  0  0  0  0
   16.6905   42.3620  -10.6360 N   0  0  0  0  0  0  0  0  0  0  0  0
   19.5783   39.1182   -6.4400 C   0  0  0  0  0  0  0  0  0  0  0  0
   17.1403   39.8905   -9.6793 H   0  0  0  0  0  0  0  0  0  0  0  0
   17.9537   42.0304   -9.0003 H   0  0  0  0  0  0  0  0  0  0  0  0
   16.1220   44.8538   -7.3566 H   0  0  0  0  0  0  0  0  0  0  0  0
   20.0600   42.2917   -5.4850 H   0  0  0  0  0  0  0  0  0  0  0  0
   21.7995   42.3386   -5.7441 H   0  0  0  0  0  0  0  0  0  0  0  0
   21.1450   42.5054   -4.1171 H   0  0  0  0  0  0  0  0  0  0  0  0
   20.2691   40.1923   -4.2030 H   0  0  0  0  0  0  0  0  0  0  0  0
   22.4286   38.9499   -4.0791 H   0  0  0  0  0  0  0  0  0  0  0  0
   22.5074   40.4922   -3.2405 H   0  0  0  0  0  0  0  0  0  0  0  0
   23.2598   40.3122   -4.8153 H   0  0  0  0  0  0  0  0  0  0  0  0
   22.7478   40.2332   -7.0817 H   0  0  0  0  0  0  0  0  0  0  0  0
   22.2760   39.1299   -9.2384 H   0  0  0  0  0  0  0  0  0  0  0  0
   20.0713   38.0734   -9.6498 H   0  0  0  0  0  0  0  0  0  0  0  0
   17.7960   37.7527   -9.0388 H   0  0  0  0  0  0  0  0  0  0  0  0
   17.9560   36.8522   -7.5577 H   0  0  0  0  0  0  0  0  0  0  0  0
   15.9151   38.1244   -7.8182 H   0  0  0  0  0  0  0  0  0  0  0  0
   15.7940   40.3548   -6.9743 H   0  0  0  0  0  0  0  0  0  0  0  0
   17.5144   40.4992   -7.1377 H   0  0  0  0  0  0  0  0  0  0  0  0
   14.5539   40.6869   -8.8748 H   0  0  0  0  0  0  0  0  0  0  0  0
   15.0919   43.0369   -8.6181 H   0  0  0  0  0  0  0  0  0  0  0  0
   16.0865   42.5430   -7.2986 H   0  0  0  0  0  0  0  0  0  0  0  0
   17.3058   44.9884  -10.1549 H   0  0  0  0  0  0  0  0  0  0  0  0
   16.7590   46.3131   -9.1454 H   0  0  0  0  0  0  0  0  0  0  0  0
   15.5881   45.1904   -9.8070 H   0  0  0  0  0  0  0  0  0  0  0  0
   18.2375   43.5760   -6.8067 H   0  0  0  0  0  0  0  0  0  0  0  0
   18.8355   43.9822   -8.3805 H   0  0  0  0  0  0  0  0  0  0  0  0
   18.5975   46.4726   -7.7461 H   0  0  0  0  0  0  0  0  0  0  0  0
   18.0602   45.9446   -6.1785 H   0  0  0  0  0  0  0  0  0  0  0  0
   20.2566   46.2745   -5.6745 H   0  0  0  0  0  0  0  0  0  0  0  0
   20.3664   44.6043   -6.1247 H   0  0  0  0  0  0  0  0  0  0  0  0
   21.0976   47.0401   -7.8296 H   0  0  0  0  0  0  0  0  0  0  0  0
   22.2000   45.9193   -7.0829 H   0  0  0  0  0  0  0  0  0  0  0  0
   21.2119   44.0770   -8.5616 H   0  0  0  0  0  0  0  0  0  0  0  0
   20.3104   45.3325   -9.3956 H   0  0  0  0  0  0  0  0  0  0  0  0
   22.4833   46.4796   -9.9463 H   0  0  0  0  0  0  0  0  0  0  0  0
   23.3501   45.1536   -9.2185 H   0  0  0  0  0  0  0  0  0  0  0  0
   21.4993   44.9657  -11.6660 H   0  0  0  0  0  0  0  0  0  0  0  0
   23.2209   44.9832  -11.6961 H   0  0  0  0  0  0  0  0  0  0  0  0
   24.1436   42.1511  -11.6394 H   0  0  0  0  0  0  0  0  0  0  0  0
   23.7405   41.8607   -9.9362 H   0  0  0  0  0  0  0  0  0  0  0  0
   24.5105   43.3712  -10.4225 H   0  0  0  0  0  0  0  0  0  0  0  0
   19.8039   43.9007  -11.1197 H   0  0  0  0  0  0  0  0  0  0  0  0
   18.4804   39.8680  -11.8307 H   0  0  0  0  0  0  0  0  0  0  0  0
   20.8730   39.1481  -11.6950 H   0  0  0  0  0  0  0  0  0  0  0  0
   15.7554   42.6734  -10.8478 H   0  0  0  0  0  0  0  0  0  0  0  0
   18.8391   39.1094   -5.6521 H   0  0  0  0  0  0  0  0  0  0  0  0
   16.6841   38.3274   -6.4250 H   0  0  0  0  0  0  0  0  0  0  0  0
  1  2  1  0  0  0  0
  1 40  1  0  0  0  0
  1 41  1  0  0  0  0
  1 42  1  0  0  0  0
  2  3  1  0  0  0  0
  2  4  1  0  0  0  0
  2 43  1  0  0  0  0
  3 44  1  0  0  0  0
  3 45  1  0  0  0  0
  3 46  1  0  0  0  0
  4 36  1  0  0  0  0
  4  5  2  0  0  0  0
  5  6  1  0  0  0  0
  5 47  1  0  0  0  0
  6  7  2  0  0  0  0
  6 48  1  0  0  0  0
  7  8  1  0  0  0  0
  7 49  1  0  0  0  0
  8  9  1  0  0  0  0
  8 36  2  0  0  0  0
  9 10  1  0  0  0  0
  9 50  1  0  0  0  0
  9 51  1  0  0  0  0
 10 11  1  0  0  0  0
 10 52  1  0  0  0  0
 10 83  1  0  0  0  0
 11 12  1  0  0  0  0
 11 53  1  0  0  0  0
 11 54  1  0  0  0  0
 12 37  1  6  0  0  0
 12 13  1  0  0  0  0
 12 14  1  0  0  0  0
 13 55  1  0  0  0  0
 14 38  1  1  0  0  0
 14 35  1  0  0  0  0
 14 15  1  0  0  0  0
 15 16  1  0  0  0  0
 15 56  1  0  0  0  0
 15 57  1  0  0  0  0
 16 39  1  1  0  0  0
 16 17  1  0  0  0  0
 16 18  1  0  0  0  0
 17 58  1  0  0  0  0
 17 59  1  0  0  0  0
 17 60  1  0  0  0  0
 18 19  1  0  0  0  0
 18 61  1  0  0  0  0
 18 62  1  0  0  0  0
 19 20  1  0  0  0  0
 19 63  1  0  0  0  0
 19 64  1  0  0  0  0
 20 21  1  0  0  0  0
 20 65  1  0  0  0  0
 20 66  1  0  0  0  0
 21 22  1  0  0  0  0
 21 67  1  0  0  0  0
 21 68  1  0  0  0  0
 22 23  1  0  0  0  0
 22 69  1  0  0  0  0
 22 70  1  0  0  0  0
 23 24  1  0  0  0  0
 23 71  1  0  0  0  0
 23 72  1  0  0  0  0
 24 25  1  0  0  0  0
 24 73  1  0  0  0  0
 24 74  1  0  0  0  0
 25 26  1  0  0  0  0
 25 27  1  0  0  0  0
 26 75  1  0  0  0  0
 26 76  1  0  0  0  0
 26 77  1  0  0  0  0
 27 32  1  0  0  0  0
 27 28  2  0  0  0  0
 28 29  1  0  0  0  0
 28 78  1  0  0  0  0
 29 30  2  0  0  0  0
 29 33  1  0  0  0  0
 30 31  1  0  0  0  0
 30 79  1  0  0  0  0
 31 32  2  0  0  0  0
 31 80  1  0  0  0  0
 33 34  2  0  0  0  0
 33 35  1  0  0  0  0
 35 81  1  0  0  0  0
 36 82  1  0  0  0  0
M  CHG  1  10   1
M  END
