BACE_46.smi:1
 OpenBabel09301811243D
Structure written by MMmdl.
 78 80  0  0  1  0  0  0  0  0999 V2000
   21.2398   41.0881   -7.9597 C   0  0  0  0  0  0  0  0  0  0  0  0
   20.8472   39.8049   -7.2228 C   0  0  0  0  0  0  0  0  0  0  0  0
   22.0595   38.8860   -7.0336 C   0  0  0  0  0  0  0  0  0  0  0  0
   19.6801   39.1039   -7.9029 C   0  0  0  0  0  0  0  0  0  0  0  0
   19.8417   38.3905   -9.1102 C   0  0  0  0  0  0  0  0  0  0  0  0
   18.7362   37.7509   -9.7047 C   0  0  0  0  0  0  0  0  0  0  0  0
   17.4635   37.8179   -9.1042 C   0  0  0  0  0  0  0  0  0  0  0  0
   17.2899   38.5500   -7.9126 C   0  0  0  0  0  0  0  0  0  0  0  0
   15.9232   38.6835   -7.2635 C   0  0  0  0  0  0  0  0  0  0  0  0
   15.3008   40.0123   -7.4627 N   0  3  0  0  0  0  0  0  0  0  0  0
   15.0038   40.3924   -8.8690 C   0  0  0  0  0  0  0  0  0  0  0  0
   16.1887   41.0966   -9.5849 C   0  0  1  0  0  0  0  0  0  0  0  0
   15.8655   41.2055  -10.9581 O   0  0  0  0  0  0  0  0  0  0  0  0
   16.5047   42.5015   -9.0035 C   0  0  2  0  0  0  0  0  0  0  0  0
   15.5786   43.6344   -9.5139 C   0  0  0  0  0  0  0  0  0  0  0  0
   15.3316   44.7588   -8.4844 C   0  0  2  0  0  0  0  0  0  0  0  0
   13.8579   44.7447   -8.0398 C   0  0  0  0  0  0  0  0  0  0  0  0
   15.7844   46.1448   -8.9921 C   0  0  0  0  0  0  0  0  0  0  0  0
   17.2626   46.3795   -8.7750 C   0  0  0  0  0  0  0  0  0  0  0  0
   17.7589   47.1817   -7.8167 C   0  0  0  0  0  0  0  0  0  0  0  0
   19.2319   47.3531   -7.5275 C   0  0  0  0  0  0  0  0  0  0  0  0
   19.5948   46.7129   -6.1785 C   0  0  0  0  0  0  0  0  0  0  0  0
   21.1034   46.6025   -5.9114 C   0  0  0  0  0  0  0  0  0  0  0  0
   21.7805   45.3758   -6.5458 C   0  0  0  0  0  0  0  0  0  0  0  0
   22.2003   45.6261   -7.9147 N   0  0  0  0  0  0  0  0  0  0  0  0
   21.7442   44.7840   -8.9303 C   0  0  0  0  0  0  0  0  0  0  0  0
   20.4173   44.3073   -8.9972 C   0  0  0  0  0  0  0  0  0  0  0  0
   20.0440   43.4829  -10.0851 C   0  0  0  0  0  0  0  0  0  0  0  0
   21.0257   43.1744  -11.0477 C   0  0  0  0  0  0  0  0  0  0  0  0
   22.3239   43.6964  -10.8887 C   0  0  0  0  0  0  0  0  0  0  0  0
   23.5289   43.3501  -12.0657 Cl  0  0  0  0  0  0  0  0  0  0  0  0
   22.6713   44.4872   -9.8550 N   0  0  0  0  0  0  0  0  0  0  0  0
   18.6319   42.9993  -10.2574 C   0  0  0  0  0  0  0  0  0  0  0  0
   18.1841   42.7415  -11.3780 O   0  0  0  0  0  0  0  0  0  0  0  0
   17.9216   42.8584   -9.1228 N   0  0  0  0  0  0  0  0  0  0  0  0
   18.3994   39.1834   -7.3224 C   0  0  0  0  0  0  0  0  0  0  0  0
   17.0812   40.4785   -9.5389 H   0  0  0  0  0  0  0  0  0  0  0  0
   16.3577   42.4200   -7.9248 H   0  0  0  0  0  0  0  0  0  0  0  0
   15.9143   44.5604   -7.5847 H   0  0  0  0  0  0  0  0  0  0  0  0
   20.3941   41.7735   -7.9901 H   0  0  0  0  0  0  0  0  0  0  0  0
   21.5513   40.8783   -8.9842 H   0  0  0  0  0  0  0  0  0  0  0  0
   22.0561   41.6001   -7.4507 H   0  0  0  0  0  0  0  0  0  0  0  0
   20.5189   40.0952   -6.2208 H   0  0  0  0  0  0  0  0  0  0  0  0
   21.7923   38.0091   -6.4446 H   0  0  0  0  0  0  0  0  0  0  0  0
   22.8598   39.4064   -6.5044 H   0  0  0  0  0  0  0  0  0  0  0  0
   22.4625   38.5495   -7.9884 H   0  0  0  0  0  0  0  0  0  0  0  0
   20.8090   38.3293   -9.5856 H   0  0  0  0  0  0  0  0  0  0  0  0
   18.8635   37.2058  -10.6279 H   0  0  0  0  0  0  0  0  0  0  0  0
   16.6231   37.3267   -9.5730 H   0  0  0  0  0  0  0  0  0  0  0  0
   15.2518   37.9012   -7.6187 H   0  0  0  0  0  0  0  0  0  0  0  0
   16.0543   38.5520   -6.1896 H   0  0  0  0  0  0  0  0  0  0  0  0
   14.4246   39.9925   -6.9532 H   0  0  0  0  0  0  0  0  0  0  0  0
   14.6929   39.5036   -9.4208 H   0  0  0  0  0  0  0  0  0  0  0  0
   14.1393   41.0563   -8.8638 H   0  0  0  0  0  0  0  0  0  0  0  0
   16.6119   41.6194  -11.3753 H   0  0  0  0  0  0  0  0  0  0  0  0
   15.9628   44.0427  -10.4483 H   0  0  0  0  0  0  0  0  0  0  0  0
   14.6151   43.2053   -9.7940 H   0  0  0  0  0  0  0  0  0  0  0  0
   13.1835   44.9471   -8.8703 H   0  0  0  0  0  0  0  0  0  0  0  0
   13.6674   45.4641   -7.2454 H   0  0  0  0  0  0  0  0  0  0  0  0
   13.5947   43.7632   -7.6447 H   0  0  0  0  0  0  0  0  0  0  0  0
   15.5497   46.2835  -10.0469 H   0  0  0  0  0  0  0  0  0  0  0  0
   15.2614   46.9265   -8.4506 H   0  0  0  0  0  0  0  0  0  0  0  0
   17.9343   45.8291   -9.4153 H   0  0  0  0  0  0  0  0  0  0  0  0
   17.0866   47.7075   -7.1548 H   0  0  0  0  0  0  0  0  0  0  0  0
   19.8056   46.9115   -8.3418 H   0  0  0  0  0  0  0  0  0  0  0  0
   19.4731   48.4165   -7.5238 H   0  0  0  0  0  0  0  0  0  0  0  0
   19.1370   47.3102   -5.3866 H   0  0  0  0  0  0  0  0  0  0  0  0
   19.1453   45.7219   -6.1002 H   0  0  0  0  0  0  0  0  0  0  0  0
   21.6214   47.5251   -6.1825 H   0  0  0  0  0  0  0  0  0  0  0  0
   21.2368   46.5040   -4.8401 H   0  0  0  0  0  0  0  0  0  0  0  0
   22.6865   45.1473   -5.9836 H   0  0  0  0  0  0  0  0  0  0  0  0
   21.1509   44.4882   -6.4580 H   0  0  0  0  0  0  0  0  0  0  0  0
   23.1746   45.8769   -8.0103 H   0  0  0  0  0  0  0  0  0  0  0  0
   19.7002   44.5892   -8.2400 H   0  0  0  0  0  0  0  0  0  0  0  0
   20.7908   42.5539  -11.9009 H   0  0  0  0  0  0  0  0  0  0  0  0
   18.4079   43.0593   -8.2624 H   0  0  0  0  0  0  0  0  0  0  0  0
   18.2615   39.7505   -6.4242 H   0  0  0  0  0  0  0  0  0  0  0  0
   15.8772   40.7136   -7.0227 H   0  0  0  0  0  0  0  0  0  0  0  0
  1  2  1  0  0  0  0
  1 40  1  0  0  0  0
  1 41  1  0  0  0  0
  1 42  1  0  0  0  0
  2  3  1  0  0  0  0
  2  4  1  0  0  0  0
  2 43  1  0  0  0  0
  3 44  1  0  0  0  0
  3 45  1  0  0  0  0
  3 46  1  0  0  0  0
  4 36  1  0  0  0  0
  4  5  2  0  0  0  0
  5  6  1  0  0  0  0
  5 47  1  0  0  0  0
  6  7  2  0  0  0  0
  6 48  1  0  0  0  0
  7  8  1  0  0  0  0
  7 49  1  0  0  0  0
  8  9  1  0  0  0  0
  8 36  2  0  0  0  0
  9 10  1  0  0  0  0
  9 50  1  0  0  0  0
  9 51  1  0  0  0  0
 10 11  1  0  0  0  0
 10 52  1  0  0  0  0
 10 78  1  0  0  0  0
 11 12  1  0  0  0  0
 11 53  1  0  0  0  0
 11 54  1  0  0  0  0
 12 37  1  1  0  0  0
 12 13  1  0  0  0  0
 12 14  1  0  0  0  0
 13 55  1  0  0  0  0
 14 38  1  1  0  0  0
 14 35  1  0  0  0  0
 14 15  1  0  0  0  0
 15 16  1  0  0  0  0
 15 56  1  0  0  0  0
 15 57  1  0  0  0  0
 16 39  1  1  0  0  0
 16 17  1  0  0  0  0
 16 18  1  0  0  0  0
 17 58  1  0  0  0  0
 17 59  1  0  0  0  0
 17 60  1  0  0  0  0
 18 19  1  0  0  0  0
 18 61  1  0  0  0  0
 18 62  1  0  0  0  0
 19 20  2  0  0  0  0
 19 63  1  0  0  0  0
 20 21  1  0  0  0  0
 20 64  1  0  0  0  0
 21 22  1  0  0  0  0
 21 65  1  0  0  0  0
 21 66  1  0  0  0  0
 22 23  1  0  0  0  0
 22 67  1  0  0  0  0
 22 68  1  0  0  0  0
 23 24  1  0  0  0  0
 23 69  1  0  0  0  0
 23 70  1  0  0  0  0
 24 25  1  0  0  0  0
 24 71  1  0  0  0  0
 24 72  1  0  0  0  0
 25 26  1  0  0  0  0
 25 73  1  0  0  0  0
 26 32  1  0  0  0  0
 26 27  2  0  0  0  0
 27 28  1  0  0  0  0
 27 74  1  0  0  0  0
 28 29  2  0  0  0  0
 28 33  1  0  0  0  0
 29 30  1  0  0  0  0
 29 75  1  0  0  0  0
 30 31  1  0  0  0  0
 30 32  2  0  0  0  0
 33 34  2  0  0  0  0
 33 35  1  0  0  0  0
 35 76  1  0  0  0  0
 36 77  1  0  0  0  0
M  CHG  1  10   1
M  END
