BACE_82.smi:1
 OpenBabel09301811243D
Structure written by MMmdl.
 91 93  0  0  1  0  0  0  0  0999 V2000
   15.4411   38.3844   -7.9370 C   0  0  0  0  0  0  0  0  0  0  0  0
   16.6303   39.2919   -7.5871 C   0  0  0  0  0  0  0  0  0  0  0  0
   16.1757   40.7538   -7.4474 C   0  0  0  0  0  0  0  0  0  0  0  0
   17.7619   39.1594   -8.6017 C   0  0  0  0  0  0  0  0  0  0  0  0
   19.0643   38.8035   -8.1842 C   0  0  0  0  0  0  0  0  0  0  0  0
   20.1220   38.7126   -9.1171 C   0  0  0  0  0  0  0  0  0  0  0  0
   21.5417   38.3945   -8.6750 C   0  0  0  0  0  0  0  0  0  0  0  0
   22.4600   39.4293   -9.1902 N   0  3  0  0  0  0  0  0  0  0  0  0
   23.3309   40.1119   -8.2108 C   0  0  0  0  0  0  0  0  0  0  0  0
   24.0328   41.3526   -8.8176 C   0  0  1  0  0  0  0  0  0  0  0  0
   24.9195   40.9500   -9.8431 O   0  0  0  0  0  0  0  0  0  0  0  0
   23.0556   42.4459   -9.3420 C   0  0  2  0  0  0  0  0  0  0  0  0
   22.6211   42.2505  -10.8218 C   0  0  0  0  0  0  0  0  0  0  0  0
   21.3533   42.9905  -11.3026 C   0  0  2  0  0  0  0  0  0  0  0  0
   21.5782   44.4971  -11.5273 C   0  0  0  0  0  0  0  0  0  0  0  0
   20.1120   42.7178  -10.4321 C   0  0  0  0  0  0  0  0  0  0  0  0
   18.7805   42.9766  -11.1679 C   0  0  0  0  0  0  0  0  0  0  0  0
   17.5399   42.8022  -10.2752 C   0  0  0  0  0  0  0  0  0  0  0  0
   17.0173   44.0977   -9.6332 C   0  0  0  0  0  0  0  0  0  0  0  0
   18.0280   44.7576   -8.6897 C   0  0  0  0  0  0  0  0  0  0  0  0
   17.4324   45.9025   -7.8642 C   0  0  0  0  0  0  0  0  0  0  0  0
   18.4645   46.6240   -6.9809 C   0  0  0  0  0  0  0  0  0  0  0  0
   18.9796   45.7512   -5.9774 O   0  0  0  0  0  0  0  0  0  0  0  0
   20.1563   45.0534   -6.1757 C   0  0  0  0  0  0  0  0  0  0  0  0
   20.4590   44.0778   -5.2103 C   0  0  0  0  0  0  0  0  0  0  0  0
   21.6628   43.3530   -5.2480 C   0  0  0  0  0  0  0  0  0  0  0  0
   22.5700   43.5641   -6.2987 C   0  0  0  0  0  0  0  0  0  0  0  0
   22.2779   44.5112   -7.2989 C   0  0  0  0  0  0  0  0  0  0  0  0
   21.0818   45.2618   -7.2317 C   0  0  0  0  0  0  0  0  0  0  0  0
   23.2784   44.7830   -8.3806 C   0  0  0  0  0  0  0  0  0  0  0  0
   23.7267   45.9170   -8.5288 O   0  0  0  0  0  0  0  0  0  0  0  0
   23.6640   43.7685   -9.1758 N   0  0  0  0  0  0  0  0  0  0  0  0
   22.0054   42.4989   -4.1997 N   0  0  0  0  0  0  0  0  0  0  0  0
   22.4220   43.2070   -2.9991 C   0  0  0  0  0  0  0  0  0  0  0  0
   21.8034   40.7864   -4.1085 S   0  0  0  0  0  0  0  0  0  0  0  0
   20.6839   40.3468   -5.4798 C   0  0  0  0  0  0  0  0  0  0  0  0
   23.1297   40.2142   -4.3783 O   0  0  0  0  0  0  0  0  0  0  0  0
   21.1079   40.5502   -2.8401 O   0  0  0  0  0  0  0  0  0  0  0  0
   19.8601   38.9544  -10.4808 C   0  0  0  0  0  0  0  0  0  0  0  0
   18.5721   39.3240  -10.8970 C   0  0  0  0  0  0  0  0  0  0  0  0
   17.5228   39.4114   -9.9675 C   0  0  0  0  0  0  0  0  0  0  0  0
   24.6495   41.7825   -8.0293 H   0  0  0  0  0  0  0  0  0  0  0  0
   22.1606   42.3797   -8.7263 H   0  0  0  0  0  0  0  0  0  0  0  0
   21.1506   42.5452  -12.2741 H   0  0  0  0  0  0  0  0  0  0  0  0
   15.7633   37.3501   -8.0424 H   0  0  0  0  0  0  0  0  0  0  0  0
   14.9555   38.6812   -8.8661 H   0  0  0  0  0  0  0  0  0  0  0  0
   14.6888   38.4144   -7.1475 H   0  0  0  0  0  0  0  0  0  0  0  0
   17.0091   38.9706   -6.6154 H   0  0  0  0  0  0  0  0  0  0  0  0
   17.0190   41.4127   -7.2398 H   0  0  0  0  0  0  0  0  0  0  0  0
   15.4579   40.8651   -6.6317 H   0  0  0  0  0  0  0  0  0  0  0  0
   15.6962   41.1130   -8.3572 H   0  0  0  0  0  0  0  0  0  0  0  0
   19.2420   38.6034   -7.1392 H   0  0  0  0  0  0  0  0  0  0  0  0
   21.6009   38.3136   -7.5901 H   0  0  0  0  0  0  0  0  0  0  0  0
   21.8378   37.4273   -9.0832 H   0  0  0  0  0  0  0  0  0  0  0  0
   23.0750   39.0031   -9.8751 H   0  0  0  0  0  0  0  0  0  0  0  0
   22.7464   40.4284   -7.3506 H   0  0  0  0  0  0  0  0  0  0  0  0
   24.0642   39.3988   -7.8339 H   0  0  0  0  0  0  0  0  0  0  0  0
   25.2741   40.0907   -9.6415 H   0  0  0  0  0  0  0  0  0  0  0  0
   23.4531   42.5093  -11.4795 H   0  0  0  0  0  0  0  0  0  0  0  0
   22.4548   41.1946  -11.0212 H   0  0  0  0  0  0  0  0  0  0  0  0
   21.6869   45.0394  -10.5904 H   0  0  0  0  0  0  0  0  0  0  0  0
   20.7359   44.9545  -12.0400 H   0  0  0  0  0  0  0  0  0  0  0  0
   22.4684   44.6826  -12.1288 H   0  0  0  0  0  0  0  0  0  0  0  0
   20.1209   41.6813  -10.0977 H   0  0  0  0  0  0  0  0  0  0  0  0
   20.1740   43.3123   -9.5215 H   0  0  0  0  0  0  0  0  0  0  0  0
   18.7621   43.9660  -11.6205 H   0  0  0  0  0  0  0  0  0  0  0  0
   18.7135   42.2703  -11.9976 H   0  0  0  0  0  0  0  0  0  0  0  0
   16.7343   42.3754  -10.8744 H   0  0  0  0  0  0  0  0  0  0  0  0
   17.7478   42.0705   -9.4965 H   0  0  0  0  0  0  0  0  0  0  0  0
   16.7197   44.8027  -10.4089 H   0  0  0  0  0  0  0  0  0  0  0  0
   16.1112   43.8578   -9.0745 H   0  0  0  0  0  0  0  0  0  0  0  0
   18.4197   43.9982   -8.0141 H   0  0  0  0  0  0  0  0  0  0  0  0
   18.8687   45.1416   -9.2670 H   0  0  0  0  0  0  0  0  0  0  0  0
   16.9720   46.6293   -8.5344 H   0  0  0  0  0  0  0  0  0  0  0  0
   16.6312   45.5079   -7.2404 H   0  0  0  0  0  0  0  0  0  0  0  0
   19.2267   47.1241   -7.5748 H   0  0  0  0  0  0  0  0  0  0  0  0
   17.9549   47.4293   -6.4530 H   0  0  0  0  0  0  0  0  0  0  0  0
   19.7762   43.9142   -4.3895 H   0  0  0  0  0  0  0  0  0  0  0  0
   23.5074   43.0270   -6.3079 H   0  0  0  0  0  0  0  0  0  0  0  0
   20.9094   45.9997   -8.0005 H   0  0  0  0  0  0  0  0  0  0  0  0
   24.3849   43.9915   -9.8457 H   0  0  0  0  0  0  0  0  0  0  0  0
   22.8595   44.1797   -3.2252 H   0  0  0  0  0  0  0  0  0  0  0  0
   23.1718   42.6253   -2.4630 H   0  0  0  0  0  0  0  0  0  0  0  0
   21.5681   43.3502   -2.3352 H   0  0  0  0  0  0  0  0  0  0  0  0
   20.7768   39.2795   -5.6502 H   0  0  0  0  0  0  0  0  0  0  0  0
   20.9060   40.9196   -6.3747 H   0  0  0  0  0  0  0  0  0  0  0  0
   19.6677   40.5506   -5.1714 H   0  0  0  0  0  0  0  0  0  0  0  0
   20.6469   38.8849  -11.2188 H   0  0  0  0  0  0  0  0  0  0  0  0
   18.3843   39.5283  -11.9407 H   0  0  0  0  0  0  0  0  0  0  0  0
   16.5353   39.6904  -10.3066 H   0  0  0  0  0  0  0  0  0  0  0  0
   21.8977   40.1258   -9.6581 H   0  0  0  0  0  0  0  0  0  0  0  0
  1  2  1  0  0  0  0
  1 45  1  0  0  0  0
  1 46  1  0  0  0  0
  1 47  1  0  0  0  0
  2  3  1  0  0  0  0
  2  4  1  0  0  0  0
  2 48  1  0  0  0  0
  3 49  1  0  0  0  0
  3 50  1  0  0  0  0
  3 51  1  0  0  0  0
  4 41  1  0  0  0  0
  4  5  2  0  0  0  0
  5  6  1  0  0  0  0
  5 52  1  0  0  0  0
  6  7  1  0  0  0  0
  6 39  2  0  0  0  0
  7  8  1  0  0  0  0
  7 53  1  0  0  0  0
  7 54  1  0  0  0  0
  8  9  1  0  0  0  0
  8 55  1  0  0  0  0
  8 91  1  0  0  0  0
  9 10  1  0  0  0  0
  9 56  1  0  0  0  0
  9 57  1  0  0  0  0
 10 42  1  1  0  0  0
 10 11  1  0  0  0  0
 10 12  1  0  0  0  0
 11 58  1  0  0  0  0
 12 43  1  1  0  0  0
 12 32  1  0  0  0  0
 12 13  1  0  0  0  0
 13 14  1  0  0  0  0
 13 59  1  0  0  0  0
 13 60  1  0  0  0  0
 14 44  1  6  0  0  0
 14 15  1  0  0  0  0
 14 16  1  0  0  0  0
 15 61  1  0  0  0  0
 15 62  1  0  0  0  0
 15 63  1  0  0  0  0
 16 17  1  0  0  0  0
 16 64  1  0  0  0  0
 16 65  1  0  0  0  0
 17 18  1  0  0  0  0
 17 66  1  0  0  0  0
 17 67  1  0  0  0  0
 18 19  1  0  0  0  0
 18 68  1  0  0  0  0
 18 69  1  0  0  0  0
 19 20  1  0  0  0  0
 19 70  1  0  0  0  0
 19 71  1  0  0  0  0
 20 21  1  0  0  0  0
 20 72  1  0  0  0  0
 20 73  1  0  0  0  0
 21 22  1  0  0  0  0
 21 74  1  0  0  0  0
 21 75  1  0  0  0  0
 22 23  1  0  0  0  0
 22 76  1  0  0  0  0
 22 77  1  0  0  0  0
 23 24  1  0  0  0  0
 24 29  1  0  0  0  0
 24 25  2  0  0  0  0
 25 26  1  0  0  0  0
 25 78  1  0  0  0  0
 26 27  2  0  0  0  0
 26 33  1  0  0  0  0
 27 28  1  0  0  0  0
 27 79  1  0  0  0  0
 28 29  2  0  0  0  0
 28 30  1  0  0  0  0
 29 80  1  0  0  0  0
 30 31  2  0  0  0  0
 30 32  1  0  0  0  0
 32 81  1  0  0  0  0
 33 34  1  0  0  0  0
 33 35  1  0  0  0  0
 34 82  1  0  0  0  0
 34 83  1  0  0  0  0
 34 84  1  0  0  0  0
 35 36  1  0  0  0  0
 35 37  2  0  0  0  0
 35 38  2  0  0  0  0
 36 85  1  0  0  0  0
 36 86  1  0  0  0  0
 36 87  1  0  0  0  0
 39 40  1  0  0  0  0
 39 88  1  0  0  0  0
 40 41  2  0  0  0  0
 40 89  1  0  0  0  0
 41 90  1  0  0  0  0
M  CHG  1   8   1
M  END
