BACE_27.smi:1
 OpenBabel09301811243D
Structure written by MMmdl.
 92 93  0  0  1  0  0  0  0  0999 V2000
   20.3649   42.9412   -3.5709 C   0  0  0  0  0  0  0  0  0  0  0  0
   21.1369   42.2412   -4.7031 C   0  0  2  0  0  0  0  0  0  0  0  0
   21.5809   40.8396   -4.2194 C   0  0  0  0  0  0  0  0  0  0  0  0
   22.1367   39.9009   -5.3054 C   0  0  0  0  0  0  0  0  0  0  0  0
   21.1472   39.6280   -6.4482 C   0  0  0  0  0  0  0  0  0  0  0  0
   21.6491   38.5523   -7.4212 C   0  0  0  0  0  0  0  0  0  0  0  0
   20.6533   38.2104   -8.5505 C   0  0  0  0  0  0  0  0  0  0  0  0
   20.3481   39.3787   -9.5048 C   0  0  0  0  0  0  0  0  0  0  0  0
   21.5187   39.7452  -10.4323 C   0  0  0  0  0  0  0  0  0  0  0  0
   21.3064   41.0549  -11.2117 C   0  0  0  0  0  0  0  0  0  0  0  0
   21.5195   42.3113  -10.3471 C   0  0  0  0  0  0  0  0  0  0  0  0
   22.6586   42.5270   -9.9272 O   0  0  0  0  0  0  0  0  0  0  0  0
   20.4953   43.1739  -10.1147 N   0  0  0  0  0  0  0  0  0  0  0  0
   19.0875   42.8110  -10.3262 C   0  0  0  0  0  0  0  0  0  0  0  0
   20.7823   44.5283   -9.5829 C   0  0  1  0  0  0  0  0  0  0  0  0
   19.8984   45.5940  -10.2768 C   0  0  0  0  0  0  0  0  0  0  0  0
   20.6348   44.6063   -8.0497 C   0  0  0  0  0  0  0  0  0  0  0  0
   19.6593   45.1496   -7.5319 O   0  0  0  0  0  0  0  0  0  0  0  0
   21.6708   44.1367   -7.3365 N   0  0  0  0  0  0  0  0  0  0  0  0
   21.9323   44.4077   -5.9161 C   0  0  1  0  0  0  0  0  0  0  0  0
   22.3319   43.0984   -5.1897 C   0  0  0  0  0  0  0  0  0  0  0  0
   23.0094   45.5217   -5.7926 C   0  0  2  0  0  0  0  0  0  0  0  0
   23.2606   45.8479   -4.4377 O   0  0  0  0  0  0  0  0  0  0  0  0
   22.6958   46.8515   -6.5185 C   0  0  0  0  0  0  0  0  0  0  0  0
   21.3141   47.3045   -6.2868 N   0  0  0  0  0  0  0  0  0  0  0  0
   20.9464   48.6857   -6.6373 C   0  0  0  0  0  0  0  0  0  0  0  0
   21.5208   49.0792   -8.0162 C   0  0  0  0  0  0  0  0  0  0  0  0
   19.4086   48.7351   -6.6835 C   0  0  0  0  0  0  0  0  0  0  0  0
   21.4293   49.6378   -5.5583 C   0  0  0  0  0  0  0  0  0  0  0  0
   22.1209   49.3215   -4.3579 C   0  0  0  0  0  0  0  0  0  0  0  0
   22.2552   50.5121   -3.7105 C   0  0  0  0  0  0  0  0  0  0  0  0
   22.8344   50.9037   -2.3851 C   0  0  0  0  0  0  0  0  0  0  0  0
   24.3365   50.5750   -2.1232 C   0  0  0  0  0  0  0  0  0  0  0  0
   24.6505   49.0734   -2.3069 C   0  0  0  0  0  0  0  0  0  0  0  0
   25.2549   51.3901   -3.0535 C   0  0  0  0  0  0  0  0  0  0  0  0
   24.6653   50.9540   -0.6670 C   0  0  0  0  0  0  0  0  0  0  0  0
   21.6600   51.4912   -4.4396 O   0  0  0  0  0  0  0  0  0  0  0  0
   21.1984   50.9422   -5.6401 N   0  0  0  0  0  0  0  0  0  0  0  0
   20.4361   42.1177   -5.5282 H   0  0  0  0  0  0  0  0  0  0  0  0
   21.8094   44.8169   -9.8179 H   0  0  0  0  0  0  0  0  0  0  0  0
   21.0295   44.7933   -5.4457 H   0  0  0  0  0  0  0  0  0  0  0  0
   23.9520   45.1427   -6.1962 H   0  0  0  0  0  0  0  0  0  0  0  0
   19.6539   42.2656   -3.0959 H   0  0  0  0  0  0  0  0  0  0  0  0
   19.7848   43.7813   -3.9452 H   0  0  0  0  0  0  0  0  0  0  0  0
   21.0326   43.3121   -2.7946 H   0  0  0  0  0  0  0  0  0  0  0  0
   22.3217   40.9500   -3.4269 H   0  0  0  0  0  0  0  0  0  0  0  0
   20.7293   40.3386   -3.7585 H   0  0  0  0  0  0  0  0  0  0  0  0
   22.4072   38.9642   -4.8274 H   0  0  0  0  0  0  0  0  0  0  0  0
   23.0634   40.2948   -5.7159 H   0  0  0  0  0  0  0  0  0  0  0  0
   20.1808   39.3291   -6.0413 H   0  0  0  0  0  0  0  0  0  0  0  0
   20.9847   40.5554   -6.9937 H   0  0  0  0  0  0  0  0  0  0  0  0
   21.8404   37.6520   -6.8401 H   0  0  0  0  0  0  0  0  0  0  0  0
   22.6110   38.8513   -7.8394 H   0  0  0  0  0  0  0  0  0  0  0  0
   21.0294   37.3650   -9.1304 H   0  0  0  0  0  0  0  0  0  0  0  0
   19.7189   37.8683   -8.1012 H   0  0  0  0  0  0  0  0  0  0  0  0
   20.0281   40.2443   -8.9283 H   0  0  0  0  0  0  0  0  0  0  0  0
   19.4903   39.1112  -10.1216 H   0  0  0  0  0  0  0  0  0  0  0  0
   22.4514   39.8078   -9.8726 H   0  0  0  0  0  0  0  0  0  0  0  0
   21.6596   38.9398  -11.1492 H   0  0  0  0  0  0  0  0  0  0  0  0
   20.3517   41.0414  -11.7357 H   0  0  0  0  0  0  0  0  0  0  0  0
   22.0581   41.1008  -12.0038 H   0  0  0  0  0  0  0  0  0  0  0  0
   18.4325   43.3193   -9.6160 H   0  0  0  0  0  0  0  0  0  0  0  0
   18.8945   41.7490  -10.1884 H   0  0  0  0  0  0  0  0  0  0  0  0
   18.7702   43.0897  -11.3301 H   0  0  0  0  0  0  0  0  0  0  0  0
   20.2014   46.5981   -9.9799 H   0  0  0  0  0  0  0  0  0  0  0  0
   18.8398   45.5025  -10.0384 H   0  0  0  0  0  0  0  0  0  0  0  0
   20.0027   45.5365  -11.3598 H   0  0  0  0  0  0  0  0  0  0  0  0
   22.4032   43.6642   -7.8523 H   0  0  0  0  0  0  0  0  0  0  0  0
   22.9762   42.5218   -5.8542 H   0  0  0  0  0  0  0  0  0  0  0  0
   22.9543   43.3145   -4.3211 H   0  0  0  0  0  0  0  0  0  0  0  0
   23.8611   45.2038   -4.0746 H   0  0  0  0  0  0  0  0  0  0  0  0
   23.4156   47.6128   -6.2149 H   0  0  0  0  0  0  0  0  0  0  0  0
   22.8490   46.7068   -7.5886 H   0  0  0  0  0  0  0  0  0  0  0  0
   20.6287   46.6306   -6.6266 H   0  0  0  0  0  0  0  0  0  0  0  0
   21.2203   48.3676   -8.7879 H   0  0  0  0  0  0  0  0  0  0  0  0
   22.6103   49.1217   -8.0095 H   0  0  0  0  0  0  0  0  0  0  0  0
   21.1640   50.0620   -8.3251 H   0  0  0  0  0  0  0  0  0  0  0  0
   19.0091   48.0458   -7.4288 H   0  0  0  0  0  0  0  0  0  0  0  0
   19.0481   49.7333   -6.9398 H   0  0  0  0  0  0  0  0  0  0  0  0
   18.9723   48.4685   -5.7196 H   0  0  0  0  0  0  0  0  0  0  0  0
   22.4366   48.3461   -4.0250 H   0  0  0  0  0  0  0  0  0  0  0  0
   22.6628   51.9664   -2.2178 H   0  0  0  0  0  0  0  0  0  0  0  0
   22.2311   50.4023   -1.6348 H   0  0  0  0  0  0  0  0  0  0  0  0
   23.9455   48.4446   -1.7642 H   0  0  0  0  0  0  0  0  0  0  0  0
   25.6495   48.8344   -1.9390 H   0  0  0  0  0  0  0  0  0  0  0  0
   24.6378   48.7771   -3.3546 H   0  0  0  0  0  0  0  0  0  0  0  0
   25.1996   52.4567   -2.8387 H   0  0  0  0  0  0  0  0  0  0  0  0
   25.0017   51.2394   -4.1032 H   0  0  0  0  0  0  0  0  0  0  0  0
   26.2986   51.1001   -2.9279 H   0  0  0  0  0  0  0  0  0  0  0  0
   24.4617   52.0066   -0.4733 H   0  0  0  0  0  0  0  0  0  0  0  0
   25.7162   50.7796   -0.4331 H   0  0  0  0  0  0  0  0  0  0  0  0
   24.0731   50.3673    0.0316 H   0  0  0  0  0  0  0  0  0  0  0  0
  1  2  1  0  0  0  0
  1 43  1  0  0  0  0
  1 44  1  0  0  0  0
  1 45  1  0  0  0  0
  2 39  1  6  0  0  0
  2 21  1  0  0  0  0
  2  3  1  0  0  0  0
  3  4  1  0  0  0  0
  3 46  1  0  0  0  0
  3 47  1  0  0  0  0
  4  5  1  0  0  0  0
  4 48  1  0  0  0  0
  4 49  1  0  0  0  0
  5  6  1  0  0  0  0
  5 50  1  0  0  0  0
  5 51  1  0  0  0  0
  6  7  1  0  0  0  0
  6 52  1  0  0  0  0
  6 53  1  0  0  0  0
  7  8  1  0  0  0  0
  7 54  1  0  0  0  0
  7 55  1  0  0  0  0
  8  9  1  0  0  0  0
  8 56  1  0  0  0  0
  8 57  1  0  0  0  0
  9 10  1  0  0  0  0
  9 58  1  0  0  0  0
  9 59  1  0  0  0  0
 10 11  1  0  0  0  0
 10 60  1  0  0  0  0
 10 61  1  0  0  0  0
 11 12  2  0  0  0  0
 11 13  1  0  0  0  0
 13 14  1  0  0  0  0
 13 15  1  0  0  0  0
 14 62  1  0  0  0  0
 14 63  1  0  0  0  0
 14 64  1  0  0  0  0
 15 40  1  6  0  0  0
 15 16  1  0  0  0  0
 15 17  1  0  0  0  0
 16 65  1  0  0  0  0
 16 66  1  0  0  0  0
 16 67  1  0  0  0  0
 17 18  2  0  0  0  0
 17 19  1  0  0  0  0
 19 20  1  0  0  0  0
 19 68  1  0  0  0  0
 20 41  1  1  0  0  0
 20 21  1  0  0  0  0
 20 22  1  0  0  0  0
 21 69  1  0  0  0  0
 21 70  1  0  0  0  0
 22 42  1  6  0  0  0
 22 23  1  0  0  0  0
 22 24  1  0  0  0  0
 23 71  1  0  0  0  0
 24 25  1  0  0  0  0
 24 72  1  0  0  0  0
 24 73  1  0  0  0  0
 25 26  1  0  0  0  0
 25 74  1  0  0  0  0
 26 27  1  0  0  0  0
 26 28  1  0  0  0  0
 26 29  1  0  0  0  0
 27 75  1  0  0  0  0
 27 76  1  0  0  0  0
 27 77  1  0  0  0  0
 28 78  1  0  0  0  0
 28 79  1  0  0  0  0
 28 80  1  0  0  0  0
 29 38  2  0  0  0  0
 29 30  1  0  0  0  0
 30 31  2  0  0  0  0
 30 81  1  0  0  0  0
 31 32  1  0  0  0  0
 31 37  1  0  0  0  0
 32 33  1  0  0  0  0
 32 82  1  0  0  0  0
 32 83  1  0  0  0  0
 33 34  1  0  0  0  0
 33 35  1  0  0  0  0
 33 36  1  0  0  0  0
 34 84  1  0  0  0  0
 34 85  1  0  0  0  0
 34 86  1  0  0  0  0
 35 87  1  0  0  0  0
 35 88  1  0  0  0  0
 35 89  1  0  0  0  0
 36 90  1  0  0  0  0
 36 91  1  0  0  0  0
 36 92  1  0  0  0  0
 37 38  1  0  0  0  0
M  END
