BACE_95.smi:1
 OpenBabel09301811243D
Structure written by MMmdl.
 72 75  0  0  1  0  0  0  0  0999 V2000
   14.6560   43.3435  -11.3250 C   0  0  0  0  0  0  0  0  0  0  0  0
   14.5599   44.4249  -10.2356 C   0  0  2  0  0  0  0  0  0  0  0  0
   15.6587   45.5208  -10.2216 C   0  0  0  0  0  0  0  0  0  0  0  0
   16.0697   46.1321  -11.9091 S   0  0  0  0  0  0  0  0  0  0  0  0
   16.8805   45.1097  -12.5862 O   0  0  0  0  0  0  0  0  0  0  0  0
   14.8070   46.5793  -12.5175 O   0  0  0  0  0  0  0  0  0  0  0  0
   17.1122   47.6271  -11.5839 C   0  0  0  0  0  0  0  0  0  0  0  0
   18.6025   47.4427  -11.9439 C   0  0  0  0  0  0  0  0  0  0  0  0
   19.4498   46.6950  -10.8935 C   0  0  0  0  0  0  0  0  0  0  0  0
   20.1372   45.4269  -11.4471 C   0  0  0  0  0  0  0  0  0  0  0  0
   21.0681   44.8436  -10.5353 O   0  0  0  0  0  0  0  0  0  0  0  0
   20.6011   44.1906   -9.4128 C   0  0  0  0  0  0  0  0  0  0  0  0
   21.5521   43.7318   -8.4784 C   0  0  0  0  0  0  0  0  0  0  0  0
   21.1413   43.1225   -7.2762 C   0  0  0  0  0  0  0  0  0  0  0  0
   19.7704   42.9819   -6.9877 C   0  0  0  0  0  0  0  0  0  0  0  0
   18.8067   43.4154   -7.9217 C   0  0  0  0  0  0  0  0  0  0  0  0
   17.3240   43.3528   -7.5942 C   0  0  0  0  0  0  0  0  0  0  0  0
   16.4487   42.5977   -8.6162 C   0  0  2  0  0  0  0  0  0  0  0  0
   15.0481   42.8844   -8.3101 N   0  0  0  0  0  0  0  0  0  0  0  0
   14.2701   43.8463   -8.8390 C   0  0  0  0  0  0  0  0  0  0  0  0
   13.2923   44.2690   -8.2225 O   0  0  0  0  0  0  0  0  0  0  0  0
   16.7422   41.0794   -8.6692 C   0  0  2  0  0  0  0  0  0  0  0  0
   16.3946   40.6738   -9.9822 O   0  0  0  0  0  0  0  0  0  0  0  0
   16.0265   40.1633   -7.6310 C   0  0  0  0  0  0  0  0  0  0  0  0
   16.7592   38.9126   -7.2692 N   0  3  0  0  0  0  0  0  0  0  0  0
   17.5825   38.2463   -8.3215 C   0  0  0  0  0  0  0  0  0  0  0  0
   17.2687   36.7766   -8.5495 C   0  0  0  0  0  0  0  0  0  0  0  0
   16.7774   37.7953   -9.5268 C   0  0  0  0  0  0  0  0  0  0  0  0
   19.0141   38.7313   -8.3912 C   0  0  0  0  0  0  0  0  0  0  0  0
   19.6239   39.0387   -9.6317 C   0  0  0  0  0  0  0  0  0  0  0  0
   20.9510   39.5076   -9.6902 C   0  0  0  0  0  0  0  0  0  0  0  0
   21.6812   39.7003   -8.5039 C   0  0  0  0  0  0  0  0  0  0  0  0
   21.0852   39.4158   -7.2627 C   0  0  0  0  0  0  0  0  0  0  0  0
   22.0509   39.7501   -5.6570 Br  0  0  0  0  0  0  0  0  0  0  0  0
   19.7688   38.9155   -7.2081 C   0  0  0  0  0  0  0  0  0  0  0  0
   19.2304   43.9823   -9.1400 C   0  0  0  0  0  0  0  0  0  0  0  0
   13.6394   44.9489  -10.4949 H   0  0  0  0  0  0  0  0  0  0  0  0
   16.7071   43.0031   -9.5878 H   0  0  0  0  0  0  0  0  0  0  0  0
   17.8212   40.9783   -8.5782 H   0  0  0  0  0  0  0  0  0  0  0  0
   15.6704   42.9759  -11.4692 H   0  0  0  0  0  0  0  0  0  0  0  0
   14.3237   43.7498  -12.2820 H   0  0  0  0  0  0  0  0  0  0  0  0
   14.0147   42.4872  -11.1073 H   0  0  0  0  0  0  0  0  0  0  0  0
   15.2829   46.3650   -9.6459 H   0  0  0  0  0  0  0  0  0  0  0  0
   16.5766   45.2019   -9.7461 H   0  0  0  0  0  0  0  0  0  0  0  0
   16.7030   48.4209  -12.2097 H   0  0  0  0  0  0  0  0  0  0  0  0
   16.9762   47.9488  -10.5511 H   0  0  0  0  0  0  0  0  0  0  0  0
   19.0378   48.4361  -12.0701 H   0  0  0  0  0  0  0  0  0  0  0  0
   18.6911   46.9729  -12.9255 H   0  0  0  0  0  0  0  0  0  0  0  0
   20.2279   47.3696  -10.5326 H   0  0  0  0  0  0  0  0  0  0  0  0
   18.8435   46.4724  -10.0173 H   0  0  0  0  0  0  0  0  0  0  0  0
   20.7192   45.7119  -12.3225 H   0  0  0  0  0  0  0  0  0  0  0  0
   19.4166   44.6894  -11.8025 H   0  0  0  0  0  0  0  0  0  0  0  0
   22.6052   43.8697   -8.6766 H   0  0  0  0  0  0  0  0  0  0  0  0
   21.8799   42.7864   -6.5617 H   0  0  0  0  0  0  0  0  0  0  0  0
   19.4693   42.5540   -6.0415 H   0  0  0  0  0  0  0  0  0  0  0  0
   16.9837   44.3849   -7.5127 H   0  0  0  0  0  0  0  0  0  0  0  0
   17.1875   42.9352   -6.5974 H   0  0  0  0  0  0  0  0  0  0  0  0
   14.7452   42.5479   -7.4030 H   0  0  0  0  0  0  0  0  0  0  0  0
   15.4574   40.7713  -10.0818 H   0  0  0  0  0  0  0  0  0  0  0  0
   15.0242   39.9048   -7.9773 H   0  0  0  0  0  0  0  0  0  0  0  0
   15.8855   40.7091   -6.6953 H   0  0  0  0  0  0  0  0  0  0  0  0
   16.1021   38.2356   -6.8909 H   0  0  0  0  0  0  0  0  0  0  0  0
   18.0630   36.1243   -8.9028 H   0  0  0  0  0  0  0  0  0  0  0  0
   16.4591   36.2700   -8.0400 H   0  0  0  0  0  0  0  0  0  0  0  0
   15.7019   37.9611   -9.5408 H   0  0  0  0  0  0  0  0  0  0  0  0
   17.2540   37.7953  -10.4980 H   0  0  0  0  0  0  0  0  0  0  0  0
   19.0830   38.9286  -10.5590 H   0  0  0  0  0  0  0  0  0  0  0  0
   21.4053   39.7325  -10.6443 H   0  0  0  0  0  0  0  0  0  0  0  0
   22.6918   40.0786   -8.5468 H   0  0  0  0  0  0  0  0  0  0  0  0
   19.3388   38.6956   -6.2429 H   0  0  0  0  0  0  0  0  0  0  0  0
   18.4869   44.2903   -9.8516 H   0  0  0  0  0  0  0  0  0  0  0  0
   17.3855   39.1493   -6.5141 H   0  0  0  0  0  0  0  0  0  0  0  0
  1  2  1  0  0  0  0
  1 40  1  0  0  0  0
  1 41  1  0  0  0  0
  1 42  1  0  0  0  0
  2 37  1  6  0  0  0
  2 20  1  0  0  0  0
  2  3  1  0  0  0  0
  3  4  1  0  0  0  0
  3 43  1  0  0  0  0
  3 44  1  0  0  0  0
  4  5  2  0  0  0  0
  4  6  2  0  0  0  0
  4  7  1  0  0  0  0
  7  8  1  0  0  0  0
  7 45  1  0  0  0  0
  7 46  1  0  0  0  0
  8  9  1  0  0  0  0
  8 47  1  0  0  0  0
  8 48  1  0  0  0  0
  9 10  1  0  0  0  0
  9 49  1  0  0  0  0
  9 50  1  0  0  0  0
 10 11  1  0  0  0  0
 10 51  1  0  0  0  0
 10 52  1  0  0  0  0
 11 12  1  0  0  0  0
 12 36  1  0  0  0  0
 12 13  2  0  0  0  0
 13 14  1  0  0  0  0
 13 53  1  0  0  0  0
 14 15  2  0  0  0  0
 14 54  1  0  0  0  0
 15 16  1  0  0  0  0
 15 55  1  0  0  0  0
 16 17  1  0  0  0  0
 16 36  2  0  0  0  0
 17 18  1  0  0  0  0
 17 56  1  0  0  0  0
 17 57  1  0  0  0  0
 18 38  1  6  0  0  0
 18 19  1  0  0  0  0
 18 22  1  0  0  0  0
 19 20  1  0  0  0  0
 19 58  1  0  0  0  0
 20 21  2  0  0  0  0
 22 39  1  1  0  0  0
 22 23  1  0  0  0  0
 22 24  1  0  0  0  0
 23 59  1  0  0  0  0
 24 25  1  0  0  0  0
 24 60  1  0  0  0  0
 24 61  1  0  0  0  0
 25 26  1  0  0  0  0
 25 62  1  0  0  0  0
 25 72  1  0  0  0  0
 26 28  1  0  0  0  0
 26 27  1  0  0  0  0
 26 29  1  0  0  0  0
 27 28  1  0  0  0  0
 27 63  1  0  0  0  0
 27 64  1  0  0  0  0
 28 65  1  0  0  0  0
 28 66  1  0  0  0  0
 29 35  1  0  0  0  0
 29 30  2  0  0  0  0
 30 31  1  0  0  0  0
 30 67  1  0  0  0  0
 31 32  2  0  0  0  0
 31 68  1  0  0  0  0
 32 33  1  0  0  0  0
 32 69  1  0  0  0  0
 33 34  1  0  0  0  0
 33 35  2  0  0  0  0
 35 70  1  0  0  0  0
 36 71  1  0  0  0  0
M  CHG  1  25   1
M  END
