BACE_35.smi:1
 OpenBabel09301811243D
Structure written by MMmdl.
 73 74  0  0  1  0  0  0  0  0999 V2000
   18.8739   45.9976   -9.3494 C   0  0  0  0  0  0  0  0  0  0  0  0
   17.4386   46.1851   -9.8326 C   0  0  2  0  0  0  0  0  0  0  0  0
   16.7278   47.2912   -9.0236 C   0  0  0  0  0  0  0  0  0  0  0  0
   17.5857   48.5573   -8.8266 C   0  0  0  0  0  0  0  0  0  0  0  0
   18.6447   48.3914   -7.7204 C   0  0  0  0  0  0  0  0  0  0  0  0
   19.5985   49.5940   -7.5862 C   0  0  0  0  0  0  0  0  0  0  0  0
   20.5361   49.5186   -6.3587 C   0  0  0  0  0  0  0  0  0  0  0  0
   21.3353   48.2060   -6.2075 C   0  0  0  0  0  0  0  0  0  0  0  0
   22.3421   47.9352   -7.3461 O   0  0  0  0  0  0  0  0  0  0  0  0
   22.9319   46.5040   -7.3202 C   0  0  0  0  0  0  0  0  0  0  0  0
   21.9557   45.4306   -7.8146 C   0  0  0  0  0  0  0  0  0  0  0  0
   21.6887   45.3670   -9.0033 O   0  0  0  0  0  0  0  0  0  0  0  0
   21.4392   44.6085   -6.8882 N   0  0  0  0  0  0  0  0  0  0  0  0
   21.8309   44.8167   -5.5088 C   0  0  0  0  0  0  0  0  0  0  0  0
   20.4283   43.5791   -7.2194 C   0  0  1  0  0  0  0  0  0  0  0  0
   20.4615   42.4963   -6.1446 C   0  0  0  0  0  0  0  0  0  0  0  0
   18.9910   44.1513   -7.2527 C   0  0  0  0  0  0  0  0  0  0  0  0
   18.6153   44.9818   -6.4419 O   0  0  0  0  0  0  0  0  0  0  0  0
   18.1852   43.6438   -8.1958 N   0  0  0  0  0  0  0  0  0  0  0  0
   16.8033   44.0439   -8.4776 C   0  0  1  0  0  0  0  0  0  0  0  0
   16.7089   44.8231   -9.8082 C   0  0  0  0  0  0  0  0  0  0  0  0
   15.9593   42.7776   -8.5909 C   0  0  2  0  0  0  0  0  0  0  0  0
   14.6026   43.0596   -8.2968 O   0  0  0  0  0  0  0  0  0  0  0  0
   16.4284   41.6436   -7.6538 C   0  0  0  0  0  0  0  0  0  0  0  0
   15.2825   40.9064   -7.0799 N   0  3  0  0  0  0  0  0  0  0  0  0
   15.5908   39.5195   -6.6763 C   0  0  0  0  0  0  0  0  0  0  0  0
   16.6145   38.8992   -7.6091 C   0  0  0  0  0  0  0  0  0  0  0  0
   16.2183   38.0153   -8.6373 C   0  0  0  0  0  0  0  0  0  0  0  0
   17.0862   37.4357   -9.4960 N   0  0  0  0  0  0  0  0  0  0  0  0
   18.3993   37.7215   -9.3573 C   0  0  0  0  0  0  0  0  0  0  0  0
   18.8999   38.5891   -8.3655 C   0  0  0  0  0  0  0  0  0  0  0  0
   20.7657   38.9416   -8.2339 Br  0  0  0  0  0  0  0  0  0  0  0  0
   17.9891   39.1896   -7.4739 C   0  0  0  0  0  0  0  0  0  0  0  0
   17.5295   46.5201  -10.8658 H   0  0  0  0  0  0  0  0  0  0  0  0
   20.6676   43.0761   -8.1563 H   0  0  0  0  0  0  0  0  0  0  0  0
   16.3584   44.6172   -7.6643 H   0  0  0  0  0  0  0  0  0  0  0  0
   16.0082   42.4051   -9.6150 H   0  0  0  0  0  0  0  0  0  0  0  0
   19.4312   46.9338   -9.3733 H   0  0  0  0  0  0  0  0  0  0  0  0
   19.4230   45.2931   -9.9732 H   0  0  0  0  0  0  0  0  0  0  0  0
   18.9064   45.6244   -8.3251 H   0  0  0  0  0  0  0  0  0  0  0  0
   15.8053   47.5588   -9.5389 H   0  0  0  0  0  0  0  0  0  0  0  0
   16.4185   46.9167   -8.0478 H   0  0  0  0  0  0  0  0  0  0  0  0
   16.9349   49.3909   -8.5628 H   0  0  0  0  0  0  0  0  0  0  0  0
   18.0579   48.8353   -9.7689 H   0  0  0  0  0  0  0  0  0  0  0  0
   18.1426   48.2152   -6.7692 H   0  0  0  0  0  0  0  0  0  0  0  0
   19.2333   47.4955   -7.9180 H   0  0  0  0  0  0  0  0  0  0  0  0
   19.0155   50.5125   -7.5179 H   0  0  0  0  0  0  0  0  0  0  0  0
   20.1873   49.6919   -8.4982 H   0  0  0  0  0  0  0  0  0  0  0  0
   21.2246   50.3634   -6.3800 H   0  0  0  0  0  0  0  0  0  0  0  0
   19.9368   49.6576   -5.4589 H   0  0  0  0  0  0  0  0  0  0  0  0
   20.6376   47.3742   -6.1107 H   0  0  0  0  0  0  0  0  0  0  0  0
   21.8760   48.2287   -5.2613 H   0  0  0  0  0  0  0  0  0  0  0  0
   23.3036   46.2604   -6.3249 H   0  0  0  0  0  0  0  0  0  0  0  0
   23.8063   46.4558   -7.9692 H   0  0  0  0  0  0  0  0  0  0  0  0
   21.5078   44.0199   -4.8416 H   0  0  0  0  0  0  0  0  0  0  0  0
   21.4209   45.7495   -5.1196 H   0  0  0  0  0  0  0  0  0  0  0  0
   22.9167   44.8402   -5.4074 H   0  0  0  0  0  0  0  0  0  0  0  0
   19.7510   41.6984   -6.3648 H   0  0  0  0  0  0  0  0  0  0  0  0
   20.2171   42.8902   -5.1576 H   0  0  0  0  0  0  0  0  0  0  0  0
   21.4481   42.0364   -6.0784 H   0  0  0  0  0  0  0  0  0  0  0  0
   18.5833   42.9399   -8.8009 H   0  0  0  0  0  0  0  0  0  0  0  0
   17.1019   44.1943  -10.6072 H   0  0  0  0  0  0  0  0  0  0  0  0
   15.6590   44.9740  -10.0593 H   0  0  0  0  0  0  0  0  0  0  0  0
   14.5030   43.1077   -7.3583 H   0  0  0  0  0  0  0  0  0  0  0  0
   17.0371   40.9309   -8.2118 H   0  0  0  0  0  0  0  0  0  0  0  0
   17.0515   42.0336   -6.8478 H   0  0  0  0  0  0  0  0  0  0  0  0
   14.9537   41.4093   -6.2681 H   0  0  0  0  0  0  0  0  0  0  0  0
   15.9732   39.5070   -5.6546 H   0  0  0  0  0  0  0  0  0  0  0  0
   14.6792   38.9202   -6.6842 H   0  0  0  0  0  0  0  0  0  0  0  0
   15.1771   37.7635   -8.7773 H   0  0  0  0  0  0  0  0  0  0  0  0
   19.0696   37.2444  -10.0570 H   0  0  0  0  0  0  0  0  0  0  0  0
   18.3419   39.8588   -6.7027 H   0  0  0  0  0  0  0  0  0  0  0  0
   14.5419   40.8824   -7.7663 H   0  0  0  0  0  0  0  0  0  0  0  0
  1  2  1  0  0  0  0
  1 38  1  0  0  0  0
  1 39  1  0  0  0  0
  1 40  1  0  0  0  0
  2 34  1  6  0  0  0
  2 21  1  0  0  0  0
  2  3  1  0  0  0  0
  3  4  1  0  0  0  0
  3 41  1  0  0  0  0
  3 42  1  0  0  0  0
  4  5  1  0  0  0  0
  4 43  1  0  0  0  0
  4 44  1  0  0  0  0
  5  6  1  0  0  0  0
  5 45  1  0  0  0  0
  5 46  1  0  0  0  0
  6  7  1  0  0  0  0
  6 47  1  0  0  0  0
  6 48  1  0  0  0  0
  7  8  1  0  0  0  0
  7 49  1  0  0  0  0
  7 50  1  0  0  0  0
  8  9  1  0  0  0  0
  8 51  1  0  0  0  0
  8 52  1  0  0  0  0
  9 10  1  0  0  0  0
 10 11  1  0  0  0  0
 10 53  1  0  0  0  0
 10 54  1  0  0  0  0
 11 12  2  0  0  0  0
 11 13  1  0  0  0  0
 13 14  1  0  0  0  0
 13 15  1  0  0  0  0
 14 55  1  0  0  0  0
 14 56  1  0  0  0  0
 14 57  1  0  0  0  0
 15 35  1  6  0  0  0
 15 16  1  0  0  0  0
 15 17  1  0  0  0  0
 16 58  1  0  0  0  0
 16 59  1  0  0  0  0
 16 60  1  0  0  0  0
 17 18  2  0  0  0  0
 17 19  1  0  0  0  0
 19 20  1  0  0  0  0
 19 61  1  0  0  0  0
 20 36  1  1  0  0  0
 20 21  1  0  0  0  0
 20 22  1  0  0  0  0
 21 62  1  0  0  0  0
 21 63  1  0  0  0  0
 22 37  1  6  0  0  0
 22 23  1  0  0  0  0
 22 24  1  0  0  0  0
 23 64  1  0  0  0  0
 24 25  1  0  0  0  0
 24 65  1  0  0  0  0
 24 66  1  0  0  0  0
 25 26  1  0  0  0  0
 25 67  1  0  0  0  0
 25 73  1  0  0  0  0
 26 27  1  0  0  0  0
 26 68  1  0  0  0  0
 26 69  1  0  0  0  0
 27 33  1  0  0  0  0
 27 28  2  0  0  0  0
 28 29  1  0  0  0  0
 28 70  1  0  0  0  0
 29 30  2  0  0  0  0
 30 31  1  0  0  0  0
 30 71  1  0  0  0  0
 31 32  1  0  0  0  0
 31 33  2  0  0  0  0
 33 72  1  0  0  0  0
M  CHG  1  25   1
M  END
