BACE_106.smi:1
 OpenBabel09301811243D
Structure written by MMmdl.
 83 86  0  0  1  0  0  0  0  0999 V2000
   22.5161   39.9174   -8.5148 C   0  0  0  0  0  0  0  0  0  0  0  0
   21.2730   39.9591   -7.6065 C   0  0  0  0  0  0  0  0  0  0  0  0
   21.5284   39.2188   -6.2891 C   0  0  0  0  0  0  0  0  0  0  0  0
   19.9885   39.4682   -8.2752 C   0  0  0  0  0  0  0  0  0  0  0  0
   20.0081   38.5580   -9.3525 C   0  0  0  0  0  0  0  0  0  0  0  0
   18.8017   38.1536   -9.9536 C   0  0  0  0  0  0  0  0  0  0  0  0
   17.5704   38.6601   -9.4965 C   0  0  0  0  0  0  0  0  0  0  0  0
   17.5205   39.5745   -8.4161 C   0  0  0  0  0  0  0  0  0  0  0  0
   18.7453   39.9397   -7.8008 C   0  0  0  0  0  0  0  0  0  0  0  0
   16.1705   40.1180   -7.8925 C   0  0  0  0  0  0  0  0  0  0  0  0
   15.1109   40.2372   -9.0160 C   0  0  0  0  0  0  0  0  0  0  0  0
   15.6339   39.1370   -6.8390 C   0  0  0  0  0  0  0  0  0  0  0  0
   16.3329   41.4507   -7.2401 N   0  3  0  0  0  0  0  0  0  0  0  0
   16.7294   42.5858   -8.1084 C   0  0  0  0  0  0  0  0  0  0  0  0
   17.4751   43.7239   -7.3594 C   0  0  1  0  0  0  0  0  0  0  0  0
   18.7081   43.2223   -6.8658 O   0  0  0  0  0  0  0  0  0  0  0  0
   17.7243   45.0042   -8.2351 C   0  0  2  0  0  0  0  0  0  0  0  0
   17.8565   44.7168   -9.7572 C   0  0  0  0  0  0  0  0  0  0  0  0
   18.1058   45.9527  -10.6110 C   0  0  0  0  0  0  0  0  0  0  0  0
   17.0190   46.7326  -11.0612 C   0  0  0  0  0  0  0  0  0  0  0  0
   17.2490   47.8808  -11.8429 C   0  0  0  0  0  0  0  0  0  0  0  0
   18.5648   48.2660  -12.1677 C   0  0  0  0  0  0  0  0  0  0  0  0
   19.6552   47.4953  -11.7171 C   0  0  0  0  0  0  0  0  0  0  0  0
   21.0820   47.9393  -11.9843 C   0  0  0  0  0  0  0  0  0  0  0  0
   21.6537   48.6754  -10.7626 C   0  0  0  0  0  0  0  0  0  0  0  0
   23.1903   48.7049  -10.6909 C   0  0  0  0  0  0  0  0  0  0  0  0
   23.7304   49.0616   -9.2909 C   0  0  0  0  0  0  0  0  0  0  0  0
   23.4887   47.9756   -8.3946 O   0  0  0  0  0  0  0  0  0  0  0  0
   22.4494   48.1192   -7.5064 C   0  0  0  0  0  0  0  0  0  0  0  0
   21.4284   47.1484   -7.4852 C   0  0  0  0  0  0  0  0  0  0  0  0
   20.3130   47.3529   -6.6468 C   0  0  0  0  0  0  0  0  0  0  0  0
   20.3286   48.4766   -5.7914 C   0  0  0  0  0  0  0  0  0  0  0  0
   21.4339   49.3481   -5.8305 C   0  0  0  0  0  0  0  0  0  0  0  0
   21.5310   50.5112   -4.8655 C   0  0  0  0  0  0  0  0  0  0  0  0
   22.4583   49.2050   -6.6973 N   0  0  0  0  0  0  0  0  0  0  0  0
   19.1451   46.4053   -6.6473 C   0  0  0  0  0  0  0  0  0  0  0  0
   18.4600   46.2618   -5.6400 O   0  0  0  0  0  0  0  0  0  0  0  0
   18.8781   45.8246   -7.8269 N   0  0  0  0  0  0  0  0  0  0  0  0
   19.4211   46.3293  -10.9571 C   0  0  0  0  0  0  0  0  0  0  0  0
   16.8618   44.0231   -6.5004 H   0  0  0  0  0  0  0  0  0  0  0  0
   16.8436   45.6381   -8.1233 H   0  0  0  0  0  0  0  0  0  0  0  0
   22.3442   40.4522   -9.4494 H   0  0  0  0  0  0  0  0  0  0  0  0
   22.8152   38.8977   -8.7608 H   0  0  0  0  0  0  0  0  0  0  0  0
   23.3696   40.3865   -8.0235 H   0  0  0  0  0  0  0  0  0  0  0  0
   21.1063   41.0092   -7.3607 H   0  0  0  0  0  0  0  0  0  0  0  0
   20.6921   39.3494   -5.6027 H   0  0  0  0  0  0  0  0  0  0  0  0
   22.4216   39.5962   -5.7896 H   0  0  0  0  0  0  0  0  0  0  0  0
   21.6640   38.1488   -6.4509 H   0  0  0  0  0  0  0  0  0  0  0  0
   20.9361   38.1552   -9.7301 H   0  0  0  0  0  0  0  0  0  0  0  0
   18.8230   37.4508  -10.7720 H   0  0  0  0  0  0  0  0  0  0  0  0
   16.6703   38.3164   -9.9819 H   0  0  0  0  0  0  0  0  0  0  0  0
   18.7555   40.5984   -6.9480 H   0  0  0  0  0  0  0  0  0  0  0  0
   14.8010   39.2626   -9.3941 H   0  0  0  0  0  0  0  0  0  0  0  0
   15.4755   40.8157   -9.8642 H   0  0  0  0  0  0  0  0  0  0  0  0
   14.2031   40.7202   -8.6554 H   0  0  0  0  0  0  0  0  0  0  0  0
   15.4294   38.1562   -7.2742 H   0  0  0  0  0  0  0  0  0  0  0  0
   14.7070   39.4880   -6.3825 H   0  0  0  0  0  0  0  0  0  0  0  0
   16.3571   38.9767   -6.0402 H   0  0  0  0  0  0  0  0  0  0  0  0
   15.4783   41.6899   -6.7501 H   0  0  0  0  0  0  0  0  0  0  0  0
   17.3552   42.2142   -8.9182 H   0  0  0  0  0  0  0  0  0  0  0  0
   15.8205   42.9783   -8.5616 H   0  0  0  0  0  0  0  0  0  0  0  0
   18.5474   42.7026   -6.0862 H   0  0  0  0  0  0  0  0  0  0  0  0
   18.6671   44.0051   -9.9276 H   0  0  0  0  0  0  0  0  0  0  0  0
   16.9528   44.2464  -10.1443 H   0  0  0  0  0  0  0  0  0  0  0  0
   16.0075   46.4535  -10.8057 H   0  0  0  0  0  0  0  0  0  0  0  0
   16.4158   48.4757  -12.1868 H   0  0  0  0  0  0  0  0  0  0  0  0
   18.7339   49.1626  -12.7458 H   0  0  0  0  0  0  0  0  0  0  0  0
   21.6745   47.0502  -12.2031 H   0  0  0  0  0  0  0  0  0  0  0  0
   21.1296   48.5691  -12.8733 H   0  0  0  0  0  0  0  0  0  0  0  0
   21.2418   49.6823  -10.6991 H   0  0  0  0  0  0  0  0  0  0  0  0
   21.2861   48.1566   -9.8846 H   0  0  0  0  0  0  0  0  0  0  0  0
   23.5956   47.7347  -10.9812 H   0  0  0  0  0  0  0  0  0  0  0  0
   23.5668   49.4203  -11.4225 H   0  0  0  0  0  0  0  0  0  0  0  0
   24.8104   49.2011   -9.3456 H   0  0  0  0  0  0  0  0  0  0  0  0
   23.3139   50.0110   -8.9537 H   0  0  0  0  0  0  0  0  0  0  0  0
   21.4942   46.2941   -8.1444 H   0  0  0  0  0  0  0  0  0  0  0  0
   19.5148   48.6613   -5.1057 H   0  0  0  0  0  0  0  0  0  0  0  0
   21.2605   50.1888   -3.8591 H   0  0  0  0  0  0  0  0  0  0  0  0
   20.8595   51.3157   -5.1613 H   0  0  0  0  0  0  0  0  0  0  0  0
   22.5478   50.9021   -4.8245 H   0  0  0  0  0  0  0  0  0  0  0  0
   19.5239   46.0456   -8.5698 H   0  0  0  0  0  0  0  0  0  0  0  0
   20.2587   45.7401  -10.6116 H   0  0  0  0  0  0  0  0  0  0  0  0
   17.0436   41.3425   -6.5239 H   0  0  0  0  0  0  0  0  0  0  0  0
  1  2  1  0  0  0  0
  1 42  1  0  0  0  0
  1 43  1  0  0  0  0
  1 44  1  0  0  0  0
  2  3  1  0  0  0  0
  2  4  1  0  0  0  0
  2 45  1  0  0  0  0
  3 46  1  0  0  0  0
  3 47  1  0  0  0  0
  3 48  1  0  0  0  0
  4  9  1  0  0  0  0
  4  5  2  0  0  0  0
  5  6  1  0  0  0  0
  5 49  1  0  0  0  0
  6  7  2  0  0  0  0
  6 50  1  0  0  0  0
  7  8  1  0  0  0  0
  7 51  1  0  0  0  0
  8  9  2  0  0  0  0
  8 10  1  0  0  0  0
  9 52  1  0  0  0  0
 10 11  1  0  0  0  0
 10 12  1  0  0  0  0
 10 13  1  0  0  0  0
 11 53  1  0  0  0  0
 11 54  1  0  0  0  0
 11 55  1  0  0  0  0
 12 56  1  0  0  0  0
 12 57  1  0  0  0  0
 12 58  1  0  0  0  0
 13 14  1  0  0  0  0
 13 59  1  0  0  0  0
 13 83  1  0  0  0  0
 14 15  1  0  0  0  0
 14 60  1  0  0  0  0
 14 61  1  0  0  0  0
 15 40  1  1  0  0  0
 15 16  1  0  0  0  0
 15 17  1  0  0  0  0
 16 62  1  0  0  0  0
 17 41  1  1  0  0  0
 17 38  1  0  0  0  0
 17 18  1  0  0  0  0
 18 19  1  0  0  0  0
 18 63  1  0  0  0  0
 18 64  1  0  0  0  0
 19 39  1  0  0  0  0
 19 20  2  0  0  0  0
 20 21  1  0  0  0  0
 20 65  1  0  0  0  0
 21 22  2  0  0  0  0
 21 66  1  0  0  0  0
 22 23  1  0  0  0  0
 22 67  1  0  0  0  0
 23 24  1  0  0  0  0
 23 39  2  0  0  0  0
 24 25  1  0  0  0  0
 24 68  1  0  0  0  0
 24 69  1  0  0  0  0
 25 26  1  0  0  0  0
 25 70  1  0  0  0  0
 25 71  1  0  0  0  0
 26 27  1  0  0  0  0
 26 72  1  0  0  0  0
 26 73  1  0  0  0  0
 27 28  1  0  0  0  0
 27 74  1  0  0  0  0
 27 75  1  0  0  0  0
 28 29  1  0  0  0  0
 29 35  1  0  0  0  0
 29 30  2  0  0  0  0
 30 31  1  0  0  0  0
 30 76  1  0  0  0  0
 31 32  2  0  0  0  0
 31 36  1  0  0  0  0
 32 33  1  0  0  0  0
 32 77  1  0  0  0  0
 33 34  1  0  0  0  0
 33 35  2  0  0  0  0
 34 78  1  0  0  0  0
 34 79  1  0  0  0  0
 34 80  1  0  0  0  0
 36 37  2  0  0  0  0
 36 38  1  0  0  0  0
 38 81  1  0  0  0  0
 39 82  1  0  0  0  0
M  CHG  1  13   1
M  END
