BACE_49.smi:1
 OpenBabel09301811243D
Structure written by MMmdl.
 76 78  0  0  1  0  0  0  0  0999 V2000
   24.1370   43.7805   -5.7919 C   0  0  0  0  0  0  0  0  0  0  0  0
   23.0342   44.3583   -4.8907 C   0  0  0  0  0  0  0  0  0  0  0  0
   22.5155   43.3125   -3.8923 C   0  0  0  0  0  0  0  0  0  0  0  0
   21.9054   44.9708   -5.7112 C   0  0  0  0  0  0  0  0  0  0  0  0
   22.0457   46.2708   -6.2430 C   0  0  0  0  0  0  0  0  0  0  0  0
   21.0164   46.8364   -7.0195 C   0  0  0  0  0  0  0  0  0  0  0  0
   19.8404   46.1056   -7.2724 C   0  0  0  0  0  0  0  0  0  0  0  0
   19.6873   44.8086   -6.7410 C   0  0  0  0  0  0  0  0  0  0  0  0
   18.4212   44.0224   -7.0119 C   0  0  0  0  0  0  0  0  0  0  0  0
   18.0989   44.0383   -8.4506 N   0  3  0  0  0  0  0  0  0  0  0  0
   17.4255   42.8150   -8.9292 C   0  0  0  0  0  0  0  0  0  0  0  0
   16.2099   42.4715   -8.0401 C   0  0  1  0  0  0  0  0  0  0  0  0
   15.2390   43.4705   -8.2929 O   0  0  0  0  0  0  0  0  0  0  0  0
   15.5762   41.0732   -8.3031 C   0  0  2  0  0  0  0  0  0  0  0  0
   16.5984   39.9370   -8.1795 C   0  0  0  0  0  0  0  0  0  0  0  0
   16.5438   38.6592   -8.6170 C   0  0  0  0  0  0  0  0  0  0  0  0
   15.3839   38.0395   -9.3824 C   0  0  0  0  0  0  0  0  0  0  0  0
   17.6892   37.6991   -8.3288 C   0  0  0  0  0  0  0  0  0  0  0  0
   18.5925   37.4162   -9.5445 C   0  0  0  0  0  0  0  0  0  0  0  0
   19.4305   38.5088   -9.9079 O   0  0  0  0  0  0  0  0  0  0  0  0
   20.3780   38.8939   -8.9198 C   0  0  0  0  0  0  0  0  0  0  0  0
   21.6183   39.5526   -9.5469 C   0  0  0  0  0  0  0  0  0  0  0  0
   21.3976   40.9483  -10.1639 C   0  0  0  0  0  0  0  0  0  0  0  0
   21.0607   40.9381  -11.6662 C   0  0  0  0  0  0  0  0  0  0  0  0
   19.6900   40.5269  -11.9345 N   0  0  0  0  0  0  0  0  0  0  0  0
   18.6421   41.4299  -11.7134 C   0  0  0  0  0  0  0  0  0  0  0  0
   17.3791   40.9187  -11.3560 C   0  0  0  0  0  0  0  0  0  0  0  0
   16.3141   41.8212  -11.1679 C   0  0  0  0  0  0  0  0  0  0  0  0
   16.5471   43.1967  -11.3707 C   0  0  0  0  0  0  0  0  0  0  0  0
   17.8491   43.6181  -11.7011 C   0  0  0  0  0  0  0  0  0  0  0  0
   18.1547   45.3048  -11.8830 Cl  0  0  0  0  0  0  0  0  0  0  0  0
   18.8737   42.7551  -11.8652 N   0  0  0  0  0  0  0  0  0  0  0  0
   14.9533   41.3356  -10.7844 C   0  0  0  0  0  0  0  0  0  0  0  0
   14.0725   41.2639  -11.6372 O   0  0  0  0  0  0  0  0  0  0  0  0
   14.7177   41.0127   -9.4971 N   0  0  0  0  0  0  0  0  0  0  0  0
   20.7182   44.2465   -5.9588 C   0  0  0  0  0  0  0  0  0  0  0  0
   16.4856   42.5523   -6.9889 H   0  0  0  0  0  0  0  0  0  0  0  0
   14.8802   40.8991   -7.4814 H   0  0  0  0  0  0  0  0  0  0  0  0
   24.5382   44.5451   -6.4579 H   0  0  0  0  0  0  0  0  0  0  0  0
   23.7664   42.9618   -6.4093 H   0  0  0  0  0  0  0  0  0  0  0  0
   24.9659   43.3953   -5.1975 H   0  0  0  0  0  0  0  0  0  0  0  0
   23.4879   45.1588   -4.3050 H   0  0  0  0  0  0  0  0  0  0  0  0
   21.7658   43.7433   -3.2279 H   0  0  0  0  0  0  0  0  0  0  0  0
   23.3252   42.9313   -3.2695 H   0  0  0  0  0  0  0  0  0  0  0  0
   22.0639   42.4601   -4.4001 H   0  0  0  0  0  0  0  0  0  0  0  0
   22.9463   46.8396   -6.0623 H   0  0  0  0  0  0  0  0  0  0  0  0
   21.1317   47.8310   -7.4248 H   0  0  0  0  0  0  0  0  0  0  0  0
   19.0565   46.5442   -7.8724 H   0  0  0  0  0  0  0  0  0  0  0  0
   18.5463   42.9931   -6.6728 H   0  0  0  0  0  0  0  0  0  0  0  0
   17.5948   44.4517   -6.4435 H   0  0  0  0  0  0  0  0  0  0  0  0
   17.4947   44.8267   -8.6339 H   0  0  0  0  0  0  0  0  0  0  0  0
   17.1230   42.9317   -9.9711 H   0  0  0  0  0  0  0  0  0  0  0  0
   18.1687   42.0193   -8.9115 H   0  0  0  0  0  0  0  0  0  0  0  0
   14.8626   43.7441   -7.4699 H   0  0  0  0  0  0  0  0  0  0  0  0
   17.4902   40.2136   -7.6362 H   0  0  0  0  0  0  0  0  0  0  0  0
   15.2641   36.9895   -9.1152 H   0  0  0  0  0  0  0  0  0  0  0  0
   15.5650   38.0943  -10.4560 H   0  0  0  0  0  0  0  0  0  0  0  0
   14.4338   38.5210   -9.1591 H   0  0  0  0  0  0  0  0  0  0  0  0
   18.2792   38.0599   -7.4864 H   0  0  0  0  0  0  0  0  0  0  0  0
   17.2587   36.7597   -7.9808 H   0  0  0  0  0  0  0  0  0  0  0  0
   19.2180   36.5453   -9.3437 H   0  0  0  0  0  0  0  0  0  0  0  0
   17.9824   37.1517  -10.4086 H   0  0  0  0  0  0  0  0  0  0  0  0
   19.9109   39.5693   -8.2023 H   0  0  0  0  0  0  0  0  0  0  0  0
   20.7117   38.0178   -8.3612 H   0  0  0  0  0  0  0  0  0  0  0  0
   22.3549   39.6619   -8.7501 H   0  0  0  0  0  0  0  0  0  0  0  0
   22.0757   38.8802  -10.2733 H   0  0  0  0  0  0  0  0  0  0  0  0
   20.6597   41.5161   -9.5956 H   0  0  0  0  0  0  0  0  0  0  0  0
   22.3319   41.5000  -10.0565 H   0  0  0  0  0  0  0  0  0  0  0  0
   21.2460   41.9231  -12.0950 H   0  0  0  0  0  0  0  0  0  0  0  0
   21.7328   40.2598  -12.1919 H   0  0  0  0  0  0  0  0  0  0  0  0
   19.4834   39.5506  -11.7754 H   0  0  0  0  0  0  0  0  0  0  0  0
   17.2295   39.8553  -11.2362 H   0  0  0  0  0  0  0  0  0  0  0  0
   15.7516   43.9179  -11.2530 H   0  0  0  0  0  0  0  0  0  0  0  0
   13.7813   40.6822   -9.3130 H   0  0  0  0  0  0  0  0  0  0  0  0
   20.6021   43.2519   -5.5535 H   0  0  0  0  0  0  0  0  0  0  0  0
   18.9554   44.1624   -8.9716 H   0  0  0  0  0  0  0  0  0  0  0  0
  1  2  1  0  0  0  0
  1 39  1  0  0  0  0
  1 40  1  0  0  0  0
  1 41  1  0  0  0  0
  2  3  1  0  0  0  0
  2  4  1  0  0  0  0
  2 42  1  0  0  0  0
  3 43  1  0  0  0  0
  3 44  1  0  0  0  0
  3 45  1  0  0  0  0
  4 36  1  0  0  0  0
  4  5  2  0  0  0  0
  5  6  1  0  0  0  0
  5 46  1  0  0  0  0
  6  7  2  0  0  0  0
  6 47  1  0  0  0  0
  7  8  1  0  0  0  0
  7 48  1  0  0  0  0
  8  9  1  0  0  0  0
  8 36  2  0  0  0  0
  9 10  1  0  0  0  0
  9 49  1  0  0  0  0
  9 50  1  0  0  0  0
 10 11  1  0  0  0  0
 10 51  1  0  0  0  0
 10 76  1  0  0  0  0
 11 12  1  0  0  0  0
 11 52  1  0  0  0  0
 11 53  1  0  0  0  0
 12 37  1  1  0  0  0
 12 13  1  0  0  0  0
 12 14  1  0  0  0  0
 13 54  1  0  0  0  0
 14 38  1  1  0  0  0
 14 35  1  0  0  0  0
 14 15  1  0  0  0  0
 15 16  2  0  0  0  0
 15 55  1  0  0  0  0
 16 17  1  0  0  0  0
 16 18  1  0  0  0  0
 17 56  1  0  0  0  0
 17 57  1  0  0  0  0
 17 58  1  0  0  0  0
 18 19  1  0  0  0  0
 18 59  1  0  0  0  0
 18 60  1  0  0  0  0
 19 20  1  0  0  0  0
 19 61  1  0  0  0  0
 19 62  1  0  0  0  0
 20 21  1  0  0  0  0
 21 22  1  0  0  0  0
 21 63  1  0  0  0  0
 21 64  1  0  0  0  0
 22 23  1  0  0  0  0
 22 65  1  0  0  0  0
 22 66  1  0  0  0  0
 23 24  1  0  0  0  0
 23 67  1  0  0  0  0
 23 68  1  0  0  0  0
 24 25  1  0  0  0  0
 24 69  1  0  0  0  0
 24 70  1  0  0  0  0
 25 26  1  0  0  0  0
 25 71  1  0  0  0  0
 26 32  1  0  0  0  0
 26 27  2  0  0  0  0
 27 28  1  0  0  0  0
 27 72  1  0  0  0  0
 28 29  2  0  0  0  0
 28 33  1  0  0  0  0
 29 30  1  0  0  0  0
 29 73  1  0  0  0  0
 30 31  1  0  0  0  0
 30 32  2  0  0  0  0
 33 34  2  0  0  0  0
 33 35  1  0  0  0  0
 35 74  1  0  0  0  0
 36 75  1  0  0  0  0
M  CHG  1  10   1
M  END
