BACE_105.smi:1
 OpenBabel09301811243D
Structure written by MMmdl.
 79 82  0  0  1  0  0  0  0  0999 V2000
   20.7099   38.5566   -7.0994 C   0  0  0  0  0  0  0  0  0  0  0  0
   20.0908   38.3918   -8.4969 C   0  0  0  0  0  0  0  0  0  0  0  0
   20.5432   39.5307   -9.4176 C   0  0  0  0  0  0  0  0  0  0  0  0
   18.5674   38.2847   -8.5029 C   0  0  0  0  0  0  0  0  0  0  0  0
   17.9373   37.5619   -9.5352 C   0  0  0  0  0  0  0  0  0  0  0  0
   16.5338   37.5174   -9.6252 C   0  0  0  0  0  0  0  0  0  0  0  0
   15.7428   38.2245   -8.7023 C   0  0  0  0  0  0  0  0  0  0  0  0
   16.3577   38.9491   -7.6616 C   0  0  0  0  0  0  0  0  0  0  0  0
   15.5119   39.7729   -6.7028 C   0  0  0  0  0  0  0  0  0  0  0  0
   15.2592   41.1334   -7.2401 N   0  3  0  0  0  0  0  0  0  0  0  0
   16.4600   42.0009   -7.3929 C   0  0  0  0  0  0  0  0  0  0  0  0
   16.3262   43.1037   -8.4635 C   0  0  1  0  0  0  0  0  0  0  0  0
   15.3825   44.0617   -8.0402 O   0  0  0  0  0  0  0  0  0  0  0  0
   17.6560   43.8488   -8.8028 C   0  0  2  0  0  0  0  0  0  0  0  0
   18.2825   43.3077  -10.1112 C   0  0  0  0  0  0  0  0  0  0  0  0
   19.5662   44.0146  -10.5241 C   0  0  0  0  0  0  0  0  0  0  0  0
   19.5110   45.3056  -11.0849 C   0  0  0  0  0  0  0  0  0  0  0  0
   20.6972   45.9688  -11.4567 C   0  0  0  0  0  0  0  0  0  0  0  0
   20.6232   47.3563  -12.0608 C   0  0  0  0  0  0  0  0  0  0  0  0
   21.9455   45.3397  -11.2638 C   0  0  0  0  0  0  0  0  0  0  0  0
   22.0160   44.0423  -10.6995 C   0  0  0  0  0  0  0  0  0  0  0  0
   20.8179   43.3921  -10.3436 C   0  0  0  0  0  0  0  0  0  0  0  0
   23.1838   43.3477  -10.4644 O   0  0  0  0  0  0  0  0  0  0  0  0
   24.4433   44.0061  -10.5752 C   0  0  0  0  0  0  0  0  0  0  0  0
   24.6845   45.0081   -9.4289 C   0  0  0  0  0  0  0  0  0  0  0  0
   24.5270   44.3803   -8.0360 C   0  0  0  0  0  0  0  0  0  0  0  0
   24.5540   45.4367   -6.9133 C   0  0  0  0  0  0  0  0  0  0  0  0
   24.0625   44.9241   -5.6404 N   0  0  0  0  0  0  0  0  0  0  0  0
   22.7409   44.4813   -5.5250 C   0  0  0  0  0  0  0  0  0  0  0  0
   21.7048   44.9460   -6.3676 C   0  0  0  0  0  0  0  0  0  0  0  0
   20.4240   44.3752   -6.2441 C   0  0  0  0  0  0  0  0  0  0  0  0
   20.2240   43.4040   -5.2442 C   0  0  0  0  0  0  0  0  0  0  0  0
   21.3033   43.0314   -4.4225 C   0  0  0  0  0  0  0  0  0  0  0  0
   21.0486   41.8515   -3.1900 Cl  0  0  0  0  0  0  0  0  0  0  0  0
   22.5368   43.5545   -4.5681 N   0  0  0  0  0  0  0  0  0  0  0  0
   19.3124   44.7857   -7.1633 C   0  0  0  0  0  0  0  0  0  0  0  0
   19.1023   45.9699   -7.4211 O   0  0  0  0  0  0  0  0  0  0  0  0
   18.6437   43.7623   -7.7171 N   0  0  0  0  0  0  0  0  0  0  0  0
   17.7662   38.9415   -7.5428 C   0  0  0  0  0  0  0  0  0  0  0  0
   15.9255   42.6669   -9.3801 H   0  0  0  0  0  0  0  0  0  0  0  0
   17.4189   44.8986   -8.9938 H   0  0  0  0  0  0  0  0  0  0  0  0
   20.3957   37.7506   -6.4406 H   0  0  0  0  0  0  0  0  0  0  0  0
   20.4401   39.5047   -6.6336 H   0  0  0  0  0  0  0  0  0  0  0  0
   21.7995   38.5210   -7.1535 H   0  0  0  0  0  0  0  0  0  0  0  0
   20.4764   37.4599   -8.9127 H   0  0  0  0  0  0  0  0  0  0  0  0
   20.1891   39.3860  -10.4381 H   0  0  0  0  0  0  0  0  0  0  0  0
   21.6303   39.6050   -9.4540 H   0  0  0  0  0  0  0  0  0  0  0  0
   20.1507   40.4823   -9.0631 H   0  0  0  0  0  0  0  0  0  0  0  0
   18.5288   37.0512  -10.2802 H   0  0  0  0  0  0  0  0  0  0  0  0
   16.0691   36.9639  -10.4266 H   0  0  0  0  0  0  0  0  0  0  0  0
   14.6668   38.2085   -8.7970 H   0  0  0  0  0  0  0  0  0  0  0  0
   14.5552   39.2724   -6.5429 H   0  0  0  0  0  0  0  0  0  0  0  0
   15.9871   39.8293   -5.7253 H   0  0  0  0  0  0  0  0  0  0  0  0
   14.7899   41.0293   -8.1267 H   0  0  0  0  0  0  0  0  0  0  0  0
   16.6970   42.4628   -6.4399 H   0  0  0  0  0  0  0  0  0  0  0  0
   17.3246   41.4090   -7.6711 H   0  0  0  0  0  0  0  0  0  0  0  0
   15.4735   44.1512   -7.0947 H   0  0  0  0  0  0  0  0  0  0  0  0
   18.4781   42.2379  -10.0164 H   0  0  0  0  0  0  0  0  0  0  0  0
   17.5681   43.4098  -10.9285 H   0  0  0  0  0  0  0  0  0  0  0  0
   18.5571   45.7940  -11.2225 H   0  0  0  0  0  0  0  0  0  0  0  0
   21.5530   47.6146  -12.5715 H   0  0  0  0  0  0  0  0  0  0  0  0
   20.4441   48.0994  -11.2829 H   0  0  0  0  0  0  0  0  0  0  0  0
   19.8128   47.4133  -12.7884 H   0  0  0  0  0  0  0  0  0  0  0  0
   22.8384   45.8708  -11.5576 H   0  0  0  0  0  0  0  0  0  0  0  0
   20.8729   42.4072   -9.9094 H   0  0  0  0  0  0  0  0  0  0  0  0
   25.2075   43.2299  -10.5349 H   0  0  0  0  0  0  0  0  0  0  0  0
   24.5593   44.4774  -11.5514 H   0  0  0  0  0  0  0  0  0  0  0  0
   25.6826   45.4356   -9.5271 H   0  0  0  0  0  0  0  0  0  0  0  0
   23.9950   45.8464   -9.5218 H   0  0  0  0  0  0  0  0  0  0  0  0
   23.5809   43.8401   -8.0121 H   0  0  0  0  0  0  0  0  0  0  0  0
   25.3044   43.6337   -7.8658 H   0  0  0  0  0  0  0  0  0  0  0  0
   25.5741   45.7970   -6.7729 H   0  0  0  0  0  0  0  0  0  0  0  0
   23.9662   46.3099   -7.1939 H   0  0  0  0  0  0  0  0  0  0  0  0
   24.7342   44.5499   -4.9793 H   0  0  0  0  0  0  0  0  0  0  0  0
   21.8843   45.6923   -7.1276 H   0  0  0  0  0  0  0  0  0  0  0  0
   19.2602   42.9498   -5.0958 H   0  0  0  0  0  0  0  0  0  0  0  0
   18.9419   42.8395   -7.4361 H   0  0  0  0  0  0  0  0  0  0  0  0
   18.2244   39.4962   -6.7388 H   0  0  0  0  0  0  0  0  0  0  0  0
   14.6262   41.5816   -6.5787 H   0  0  0  0  0  0  0  0  0  0  0  0
  1  2  1  0  0  0  0
  1 42  1  0  0  0  0
  1 43  1  0  0  0  0
  1 44  1  0  0  0  0
  2  3  1  0  0  0  0
  2  4  1  0  0  0  0
  2 45  1  0  0  0  0
  3 46  1  0  0  0  0
  3 47  1  0  0  0  0
  3 48  1  0  0  0  0
  4 39  1  0  0  0  0
  4  5  2  0  0  0  0
  5  6  1  0  0  0  0
  5 49  1  0  0  0  0
  6  7  2  0  0  0  0
  6 50  1  0  0  0  0
  7  8  1  0  0  0  0
  7 51  1  0  0  0  0
  8  9  1  0  0  0  0
  8 39  2  0  0  0  0
  9 10  1  0  0  0  0
  9 52  1  0  0  0  0
  9 53  1  0  0  0  0
 10 11  1  0  0  0  0
 10 54  1  0  0  0  0
 10 79  1  0  0  0  0
 11 12  1  0  0  0  0
 11 55  1  0  0  0  0
 11 56  1  0  0  0  0
 12 40  1  6  0  0  0
 12 13  1  0  0  0  0
 12 14  1  0  0  0  0
 13 57  1  0  0  0  0
 14 41  1  6  0  0  0
 14 38  1  0  0  0  0
 14 15  1  0  0  0  0
 15 16  1  0  0  0  0
 15 58  1  0  0  0  0
 15 59  1  0  0  0  0
 16 22  1  0  0  0  0
 16 17  2  0  0  0  0
 17 18  1  0  0  0  0
 17 60  1  0  0  0  0
 18 19  1  0  0  0  0
 18 20  2  0  0  0  0
 19 61  1  0  0  0  0
 19 62  1  0  0  0  0
 19 63  1  0  0  0  0
 20 21  1  0  0  0  0
 20 64  1  0  0  0  0
 21 22  2  0  0  0  0
 21 23  1  0  0  0  0
 22 65  1  0  0  0  0
 23 24  1  0  0  0  0
 24 25  1  0  0  0  0
 24 66  1  0  0  0  0
 24 67  1  0  0  0  0
 25 26  1  0  0  0  0
 25 68  1  0  0  0  0
 25 69  1  0  0  0  0
 26 27  1  0  0  0  0
 26 70  1  0  0  0  0
 26 71  1  0  0  0  0
 27 28  1  0  0  0  0
 27 72  1  0  0  0  0
 27 73  1  0  0  0  0
 28 29  1  0  0  0  0
 28 74  1  0  0  0  0
 29 35  1  0  0  0  0
 29 30  2  0  0  0  0
 30 31  1  0  0  0  0
 30 75  1  0  0  0  0
 31 32  2  0  0  0  0
 31 36  1  0  0  0  0
 32 33  1  0  0  0  0
 32 76  1  0  0  0  0
 33 34  1  0  0  0  0
 33 35  2  0  0  0  0
 36 37  2  0  0  0  0
 36 38  1  0  0  0  0
 38 77  1  0  0  0  0
 39 78  1  0  0  0  0
M  CHG  1  10   1
M  END
