BACE_152.smi:1
 OpenBabel09301811243D
Structure written by MMmdl.
 78 79  0  0  1  0  0  0  0  0999 V2000
   24.5099   50.3169   -1.6505 C   0  0  0  0  0  0  0  0  0  0  0  0
   23.6109   50.0114   -2.8532 C   0  0  0  0  0  0  0  0  0  0  0  0
   23.8144   48.5869   -3.3932 C   0  0  0  0  0  0  0  0  0  0  0  0
   25.2073   48.3364   -3.9978 C   0  0  0  0  0  0  0  0  0  0  0  0
   25.3790   46.9658   -4.4711 N   0  0  0  0  0  0  0  0  0  0  0  0
   25.2500   46.5551   -5.7423 C   0  0  0  0  0  0  0  0  0  0  0  0
   24.9069   47.2994   -6.6614 O   0  0  0  0  0  0  0  0  0  0  0  0
   25.5665   45.0774   -6.0217 C   0  0  2  0  0  0  0  0  0  0  0  0
   26.5508   44.9711   -7.1993 C   0  0  0  0  0  0  0  0  0  0  0  0
   24.2864   44.2572   -6.3011 C   0  0  0  0  0  0  0  0  0  0  0  0
   22.9892   44.8567   -5.7078 C   0  0  2  0  0  0  0  0  0  0  0  0
   23.2599   45.4213   -4.4402 O   0  0  0  0  0  0  0  0  0  0  0  0
   21.8160   43.8457   -5.5870 C   0  0  2  0  0  0  0  0  0  0  0  0
   22.1448   42.6359   -4.6699 C   0  0  0  0  0  0  0  0  0  0  0  0
   20.9611   41.7027   -4.2939 C   0  0  2  0  0  0  0  0  0  0  0  0
   21.2021   41.0286   -2.9317 C   0  0  0  0  0  0  0  0  0  0  0  0
   20.5787   40.6555   -5.3710 C   0  0  0  0  0  0  0  0  0  0  0  0
   21.6451   39.5745   -5.6703 C   0  0  0  0  0  0  0  0  0  0  0  0
   21.3042   38.6541   -6.8601 C   0  0  0  0  0  0  0  0  0  0  0  0
   21.2639   39.4195   -8.1895 C   0  0  0  0  0  0  0  0  0  0  0  0
   21.2009   38.5602   -9.4600 C   0  0  0  0  0  0  0  0  0  0  0  0
   20.6408   39.3163  -10.6845 C   0  0  0  0  0  0  0  0  0  0  0  0
   21.4244   40.4806  -11.1019 N   0  0  0  0  0  0  0  0  0  0  0  0
   20.8060   41.6853  -10.7424 C   0  0  0  0  0  0  0  0  0  0  0  0
   21.1728   42.3466   -9.5540 C   0  0  0  0  0  0  0  0  0  0  0  0
   20.4159   43.4564   -9.1214 C   0  0  0  0  0  0  0  0  0  0  0  0
   19.3823   43.9189   -9.9647 C   0  0  0  0  0  0  0  0  0  0  0  0
   19.1382   43.2424  -11.1868 C   0  0  0  0  0  0  0  0  0  0  0  0
   19.8294   42.1413  -11.5556 N   0  0  0  0  0  0  0  0  0  0  0  0
   18.1791   43.6127  -12.1038 O   0  0  0  0  0  0  0  0  0  0  0  0
   17.4177   44.7799  -11.8319 C   0  0  0  0  0  0  0  0  0  0  0  0
   20.6981   44.1305   -7.8061 C   0  0  0  0  0  0  0  0  0  0  0  0
   20.2584   45.2546   -7.5627 O   0  0  0  0  0  0  0  0  0  0  0  0
   21.4073   43.4079   -6.9200 N   0  0  0  0  0  0  0  0  0  0  0  0
   26.0631   44.6560   -5.1461 H   0  0  0  0  0  0  0  0  0  0  0  0
   22.6616   45.6879   -6.3320 H   0  0  0  0  0  0  0  0  0  0  0  0
   20.9669   44.3701   -5.1441 H   0  0  0  0  0  0  0  0  0  0  0  0
   20.0875   42.3413   -4.1567 H   0  0  0  0  0  0  0  0  0  0  0  0
   24.3520   51.3353   -1.2966 H   0  0  0  0  0  0  0  0  0  0  0  0
   25.5642   50.2166   -1.9096 H   0  0  0  0  0  0  0  0  0  0  0  0
   24.3002   49.6406   -0.8212 H   0  0  0  0  0  0  0  0  0  0  0  0
   22.5703   50.1514   -2.5648 H   0  0  0  0  0  0  0  0  0  0  0  0
   23.8111   50.7362   -3.6432 H   0  0  0  0  0  0  0  0  0  0  0  0
   23.6636   47.8804   -2.5759 H   0  0  0  0  0  0  0  0  0  0  0  0
   23.0464   48.3594   -4.1337 H   0  0  0  0  0  0  0  0  0  0  0  0
   25.4156   49.0561   -4.7913 H   0  0  0  0  0  0  0  0  0  0  0  0
   25.9632   48.5080   -3.2314 H   0  0  0  0  0  0  0  0  0  0  0  0
   25.6597   46.2816   -3.7837 H   0  0  0  0  0  0  0  0  0  0  0  0
   27.4450   45.5716   -7.0269 H   0  0  0  0  0  0  0  0  0  0  0  0
   26.0981   45.3070   -8.1330 H   0  0  0  0  0  0  0  0  0  0  0  0
   26.8758   43.9403   -7.3430 H   0  0  0  0  0  0  0  0  0  0  0  0
   24.1741   44.1394   -7.3799 H   0  0  0  0  0  0  0  0  0  0  0  0
   24.4197   43.2462   -5.9143 H   0  0  0  0  0  0  0  0  0  0  0  0
   23.8794   44.8662   -3.9914 H   0  0  0  0  0  0  0  0  0  0  0  0
   22.9649   42.0551   -5.0878 H   0  0  0  0  0  0  0  0  0  0  0  0
   22.5433   43.0455   -3.7414 H   0  0  0  0  0  0  0  0  0  0  0  0
   22.1092   40.4239   -2.9375 H   0  0  0  0  0  0  0  0  0  0  0  0
   20.3687   40.3806   -2.6586 H   0  0  0  0  0  0  0  0  0  0  0  0
   21.3087   41.7704   -2.1395 H   0  0  0  0  0  0  0  0  0  0  0  0
   19.6632   40.1518   -5.0585 H   0  0  0  0  0  0  0  0  0  0  0  0
   20.3060   41.1801   -6.2820 H   0  0  0  0  0  0  0  0  0  0  0  0
   22.6117   40.0365   -5.8651 H   0  0  0  0  0  0  0  0  0  0  0  0
   21.7846   38.9544   -4.7848 H   0  0  0  0  0  0  0  0  0  0  0  0
   22.0604   37.8707   -6.9224 H   0  0  0  0  0  0  0  0  0  0  0  0
   20.3522   38.1507   -6.6881 H   0  0  0  0  0  0  0  0  0  0  0  0
   20.4034   40.0871   -8.1805 H   0  0  0  0  0  0  0  0  0  0  0  0
   22.1604   40.0329   -8.2475 H   0  0  0  0  0  0  0  0  0  0  0  0
   22.1883   38.1541   -9.6818 H   0  0  0  0  0  0  0  0  0  0  0  0
   20.5549   37.7015   -9.2748 H   0  0  0  0  0  0  0  0  0  0  0  0
   20.6024   38.6324  -11.5324 H   0  0  0  0  0  0  0  0  0  0  0  0
   19.6048   39.5996  -10.4897 H   0  0  0  0  0  0  0  0  0  0  0  0
   21.5700   40.4327  -12.1000 H   0  0  0  0  0  0  0  0  0  0  0  0
   22.0021   41.9858   -8.9690 H   0  0  0  0  0  0  0  0  0  0  0  0
   18.7972   44.7765   -9.6683 H   0  0  0  0  0  0  0  0  0  0  0  0
   16.7357   44.9661  -12.6614 H   0  0  0  0  0  0  0  0  0  0  0  0
   18.0575   45.6574  -11.7273 H   0  0  0  0  0  0  0  0  0  0  0  0
   16.8158   44.6617  -10.9302 H   0  0  0  0  0  0  0  0  0  0  0  0
   21.7036   42.4848   -7.2025 H   0  0  0  0  0  0  0  0  0  0  0  0
  1  2  1  0  0  0  0
  1 39  1  0  0  0  0
  1 40  1  0  0  0  0
  1 41  1  0  0  0  0
  2  3  1  0  0  0  0
  2 42  1  0  0  0  0
  2 43  1  0  0  0  0
  3  4  1  0  0  0  0
  3 44  1  0  0  0  0
  3 45  1  0  0  0  0
  4  5  1  0  0  0  0
  4 46  1  0  0  0  0
  4 47  1  0  0  0  0
  5  6  1  0  0  0  0
  5 48  1  0  0  0  0
  6  7  2  0  0  0  0
  6  8  1  0  0  0  0
  8 35  1  1  0  0  0
  8  9  1  0  0  0  0
  8 10  1  0  0  0  0
  9 49  1  0  0  0  0
  9 50  1  0  0  0  0
  9 51  1  0  0  0  0
 10 11  1  0  0  0  0
 10 52  1  0  0  0  0
 10 53  1  0  0  0  0
 11 36  1  6  0  0  0
 11 12  1  0  0  0  0
 11 13  1  0  0  0  0
 12 54  1  0  0  0  0
 13 37  1  1  0  0  0
 13 34  1  0  0  0  0
 13 14  1  0  0  0  0
 14 15  1  0  0  0  0
 14 55  1  0  0  0  0
 14 56  1  0  0  0  0
 15 38  1  1  0  0  0
 15 16  1  0  0  0  0
 15 17  1  0  0  0  0
 16 57  1  0  0  0  0
 16 58  1  0  0  0  0
 16 59  1  0  0  0  0
 17 18  1  0  0  0  0
 17 60  1  0  0  0  0
 17 61  1  0  0  0  0
 18 19  1  0  0  0  0
 18 62  1  0  0  0  0
 18 63  1  0  0  0  0
 19 20  1  0  0  0  0
 19 64  1  0  0  0  0
 19 65  1  0  0  0  0
 20 21  1  0  0  0  0
 20 66  1  0  0  0  0
 20 67  1  0  0  0  0
 21 22  1  0  0  0  0
 21 68  1  0  0  0  0
 21 69  1  0  0  0  0
 22 23  1  0  0  0  0
 22 70  1  0  0  0  0
 22 71  1  0  0  0  0
 23 24  1  0  0  0  0
 23 72  1  0  0  0  0
 24 29  1  0  0  0  0
 24 25  2  0  0  0  0
 25 26  1  0  0  0  0
 25 73  1  0  0  0  0
 26 27  2  0  0  0  0
 26 32  1  0  0  0  0
 27 28  1  0  0  0  0
 27 74  1  0  0  0  0
 28 29  2  0  0  0  0
 28 30  1  0  0  0  0
 30 31  1  0  0  0  0
 31 75  1  0  0  0  0
 31 76  1  0  0  0  0
 31 77  1  0  0  0  0
 32 33  2  0  0  0  0
 32 34  1  0  0  0  0
 34 78  1  0  0  0  0
M  END
