BACE_15.smi:1
 OpenBabel09301811243D
Structure written by MMmdl.
 83 86  0  0  1  0  0  0  0  0999 V2000
   19.8084   46.9403   -5.8891 C   0  0  0  0  0  0  0  0  0  0  0  0
   19.2596   45.7608   -5.3187 O   0  0  0  0  0  0  0  0  0  0  0  0
   19.9295   44.5569   -5.6722 C   0  0  0  0  0  0  0  0  0  0  0  0
   19.7354   44.1929   -7.1301 C   0  0  0  0  0  0  0  0  0  0  0  0
   20.6849   44.6303   -8.0741 C   0  0  0  0  0  0  0  0  0  0  0  0
   20.5050   44.3770   -9.4439 C   0  0  0  0  0  0  0  0  0  0  0  0
   19.3940   43.6035   -9.8518 C   0  0  0  0  0  0  0  0  0  0  0  0
   18.4378   43.1494   -8.9200 C   0  0  0  0  0  0  0  0  0  0  0  0
   18.6079   43.4540   -7.5514 C   0  0  0  0  0  0  0  0  0  0  0  0
   17.3067   42.2926   -9.4087 C   0  0  0  0  0  0  0  0  0  0  0  0
   17.4994   41.5165  -10.3454 O   0  0  0  0  0  0  0  0  0  0  0  0
   16.0947   42.4843   -8.8517 N   0  0  0  0  0  0  0  0  0  0  0  0
   14.8613   41.7656   -9.2234 C   0  0  1  0  0  0  0  0  0  0  0  0
   14.4731   41.9616  -10.7201 C   0  0  0  0  0  0  0  0  0  0  0  0
   14.3846   43.3979  -11.2403 C   0  0  0  0  0  0  0  0  0  0  0  0
   15.5420   44.1011  -11.6408 C   0  0  0  0  0  0  0  0  0  0  0  0
   15.4619   45.3923  -12.2198 C   0  0  0  0  0  0  0  0  0  0  0  0
   14.1907   45.9566  -12.4376 C   0  0  0  0  0  0  0  0  0  0  0  0
   13.0302   45.2681  -12.0412 C   0  0  0  0  0  0  0  0  0  0  0  0
   13.1236   44.0006  -11.4348 C   0  0  0  0  0  0  0  0  0  0  0  0
   16.5643   46.1278  -12.6051 O   0  0  0  0  0  0  0  0  0  0  0  0
   17.8167   45.7492  -12.0497 C   0  0  0  0  0  0  0  0  0  0  0  0
   18.8923   46.8070  -12.3332 C   0  0  0  0  0  0  0  0  0  0  0  0
   20.1069   46.6808  -11.3927 C   0  0  0  0  0  0  0  0  0  0  0  0
   20.9364   45.3875  -11.5636 C   0  0  0  0  0  0  0  0  0  0  0  0
   21.4272   44.9184  -10.3127 O   0  0  0  0  0  0  0  0  0  0  0  0
   14.9849   40.2641   -8.8148 C   0  0  2  0  0  0  0  0  0  0  0  0
   14.0600   39.4182   -9.4601 O   0  0  0  0  0  0  0  0  0  0  0  0
   14.8530   40.0244   -7.2948 C   0  0  0  0  0  0  0  0  0  0  0  0
   15.7517   38.9501   -6.8399 N   0  3  0  0  0  0  0  0  0  0  0  0
   17.1723   39.3497   -6.7325 C   0  0  0  0  0  0  0  0  0  0  0  0
   18.0395   38.8660   -7.8616 C   0  0  0  0  0  0  0  0  0  0  0  0
   19.1186   39.6729   -8.2870 C   0  0  0  0  0  0  0  0  0  0  0  0
   19.8666   39.3254   -9.4281 C   0  0  0  0  0  0  0  0  0  0  0  0
   19.5270   38.1488  -10.1204 C   0  0  0  0  0  0  0  0  0  0  0  0
   18.5050   37.3063   -9.6417 C   0  0  0  0  0  0  0  0  0  0  0  0
   17.7606   37.6528   -8.5099 C   0  0  0  0  0  0  0  0  0  0  0  0
   21.0241   40.2023   -9.8904 C   0  0  0  0  0  0  0  0  0  0  0  0
   20.9219   40.5786  -11.3788 C   0  0  0  0  0  0  0  0  0  0  0  0
   22.3684   39.5357   -9.5689 C   0  0  0  0  0  0  0  0  0  0  0  0
   14.0599   42.2140   -8.6363 H   0  0  0  0  0  0  0  0  0  0  0  0
   15.9439   39.8937   -9.1702 H   0  0  0  0  0  0  0  0  0  0  0  0
   19.2926   47.8110   -5.4836 H   0  0  0  0  0  0  0  0  0  0  0  0
   19.6839   46.9620   -6.9701 H   0  0  0  0  0  0  0  0  0  0  0  0
   20.8696   47.0365   -5.6532 H   0  0  0  0  0  0  0  0  0  0  0  0
   20.9934   44.6351   -5.4382 H   0  0  0  0  0  0  0  0  0  0  0  0
   19.5488   43.7452   -5.0516 H   0  0  0  0  0  0  0  0  0  0  0  0
   21.5363   45.2124   -7.7540 H   0  0  0  0  0  0  0  0  0  0  0  0
   19.2567   43.3406  -10.8887 H   0  0  0  0  0  0  0  0  0  0  0  0
   17.8947   43.1026   -6.8205 H   0  0  0  0  0  0  0  0  0  0  0  0
   16.0232   43.1613   -8.1045 H   0  0  0  0  0  0  0  0  0  0  0  0
   15.1673   41.4128  -11.3562 H   0  0  0  0  0  0  0  0  0  0  0  0
   13.5057   41.4915  -10.8948 H   0  0  0  0  0  0  0  0  0  0  0  0
   16.4966   43.6186  -11.5364 H   0  0  0  0  0  0  0  0  0  0  0  0
   14.1104   46.9327  -12.8933 H   0  0  0  0  0  0  0  0  0  0  0  0
   12.0612   45.7192  -12.1892 H   0  0  0  0  0  0  0  0  0  0  0  0
   12.2228   43.4765  -11.1484 H   0  0  0  0  0  0  0  0  0  0  0  0
   17.7053   45.6316  -10.9702 H   0  0  0  0  0  0  0  0  0  0  0  0
   18.1292   44.7918  -12.4649 H   0  0  0  0  0  0  0  0  0  0  0  0
   19.2051   46.7619  -13.3760 H   0  0  0  0  0  0  0  0  0  0  0  0
   18.4529   47.7949  -12.1901 H   0  0  0  0  0  0  0  0  0  0  0  0
   20.7661   47.5371  -11.5276 H   0  0  0  0  0  0  0  0  0  0  0  0
   19.7451   46.7651  -10.3676 H   0  0  0  0  0  0  0  0  0  0  0  0
   20.3823   44.6089  -12.0759 H   0  0  0  0  0  0  0  0  0  0  0  0
   21.7948   45.5912  -12.2042 H   0  0  0  0  0  0  0  0  0  0  0  0
   13.1780   39.6561   -9.1930 H   0  0  0  0  0  0  0  0  0  0  0  0
   15.0660   40.9323   -6.7260 H   0  0  0  0  0  0  0  0  0  0  0  0
   13.8359   39.7452   -7.0227 H   0  0  0  0  0  0  0  0  0  0  0  0
   15.4498   38.6674   -5.9057 H   0  0  0  0  0  0  0  0  0  0  0  0
   17.2289   40.4344   -6.8398 H   0  0  0  0  0  0  0  0  0  0  0  0
   17.5994   39.0295   -5.7829 H   0  0  0  0  0  0  0  0  0  0  0  0
   19.3534   40.5819   -7.7538 H   0  0  0  0  0  0  0  0  0  0  0  0
   20.0617   37.8595  -11.0086 H   0  0  0  0  0  0  0  0  0  0  0  0
   18.2901   36.3802  -10.1409 H   0  0  0  0  0  0  0  0  0  0  0  0
   16.9742   36.9944   -8.1686 H   0  0  0  0  0  0  0  0  0  0  0  0
   20.9793   41.1316   -9.3221 H   0  0  0  0  0  0  0  0  0  0  0  0
   19.9659   41.0565  -11.5952 H   0  0  0  0  0  0  0  0  0  0  0  0
   21.0164   39.7080  -12.0284 H   0  0  0  0  0  0  0  0  0  0  0  0
   21.7121   41.2776  -11.6573 H   0  0  0  0  0  0  0  0  0  0  0  0
   22.4707   39.3548   -8.4986 H   0  0  0  0  0  0  0  0  0  0  0  0
   23.2109   40.1551   -9.8820 H   0  0  0  0  0  0  0  0  0  0  0  0
   22.4596   38.5744  -10.0757 H   0  0  0  0  0  0  0  0  0  0  0  0
   15.6615   38.1236   -7.4144 H   0  0  0  0  0  0  0  0  0  0  0  0
  1  2  1  0  0  0  0
  1 43  1  0  0  0  0
  1 44  1  0  0  0  0
  1 45  1  0  0  0  0
  2  3  1  0  0  0  0
  3  4  1  0  0  0  0
  3 46  1  0  0  0  0
  3 47  1  0  0  0  0
  4  9  1  0  0  0  0
  4  5  2  0  0  0  0
  5  6  1  0  0  0  0
  5 48  1  0  0  0  0
  6 26  1  0  0  0  0
  6  7  2  0  0  0  0
  7  8  1  0  0  0  0
  7 49  1  0  0  0  0
  8  9  2  0  0  0  0
  8 10  1  0  0  0  0
  9 50  1  0  0  0  0
 10 11  2  0  0  0  0
 10 12  1  0  0  0  0
 12 13  1  0  0  0  0
 12 51  1  0  0  0  0
 13 41  1  1  0  0  0
 13 14  1  0  0  0  0
 13 27  1  0  0  0  0
 14 15  1  0  0  0  0
 14 52  1  0  0  0  0
 14 53  1  0  0  0  0
 15 20  1  0  0  0  0
 15 16  2  0  0  0  0
 16 17  1  0  0  0  0
 16 54  1  0  0  0  0
 17 18  2  0  0  0  0
 17 21  1  0  0  0  0
 18 19  1  0  0  0  0
 18 55  1  0  0  0  0
 19 20  2  0  0  0  0
 19 56  1  0  0  0  0
 20 57  1  0  0  0  0
 21 22  1  0  0  0  0
 22 23  1  0  0  0  0
 22 58  1  0  0  0  0
 22 59  1  0  0  0  0
 23 24  1  0  0  0  0
 23 60  1  0  0  0  0
 23 61  1  0  0  0  0
 24 25  1  0  0  0  0
 24 62  1  0  0  0  0
 24 63  1  0  0  0  0
 25 26  1  0  0  0  0
 25 64  1  0  0  0  0
 25 65  1  0  0  0  0
 27 42  1  6  0  0  0
 27 28  1  0  0  0  0
 27 29  1  0  0  0  0
 28 66  1  0  0  0  0
 29 30  1  0  0  0  0
 29 67  1  0  0  0  0
 29 68  1  0  0  0  0
 30 31  1  0  0  0  0
 30 69  1  0  0  0  0
 30 83  1  0  0  0  0
 31 32  1  0  0  0  0
 31 70  1  0  0  0  0
 31 71  1  0  0  0  0
 32 37  1  0  0  0  0
 32 33  2  0  0  0  0
 33 34  1  0  0  0  0
 33 72  1  0  0  0  0
 34 35  2  0  0  0  0
 34 38  1  0  0  0  0
 35 36  1  0  0  0  0
 35 73  1  0  0  0  0
 36 37  2  0  0  0  0
 36 74  1  0  0  0  0
 37 75  1  0  0  0  0
 38 39  1  0  0  0  0
 38 40  1  0  0  0  0
 38 76  1  0  0  0  0
 39 77  1  0  0  0  0
 39 78  1  0  0  0  0
 39 79  1  0  0  0  0
 40 80  1  0  0  0  0
 40 81  1  0  0  0  0
 40 82  1  0  0  0  0
M  CHG  1  30   1
M  END
