BACE_145.smi:1
 OpenBabel09301811243D
Structure written by MMmdl.
 90 93  0  0  1  0  0  0  0  0999 V2000
   20.9723   43.7371    0.0966 C   0  0  0  0  0  0  0  0  0  0  0  0
   21.3783   43.0256   -1.1973 C   0  0  0  0  0  0  0  0  0  0  0  0
   20.3361   42.0103   -1.6876 C   0  0  0  0  0  0  0  0  0  0  0  0
   20.8457   41.2043   -2.7904 N   0  0  0  0  0  0  0  0  0  0  0  0
   20.7830   41.6552   -4.1155 C   0  0  0  0  0  0  0  0  0  0  0  0
   20.4730   42.9927   -4.4546 C   0  0  0  0  0  0  0  0  0  0  0  0
   20.4199   43.3878   -5.8025 C   0  0  0  0  0  0  0  0  0  0  0  0
   20.2036   44.8489   -6.1551 C   0  0  0  0  0  0  0  0  0  0  0  0
   18.8536   45.2729   -6.0436 O   0  0  0  0  0  0  0  0  0  0  0  0
   18.0002   44.6502   -6.9973 C   0  0  0  0  0  0  0  0  0  0  0  0
   20.5972   42.4314   -6.8202 C   0  0  0  0  0  0  0  0  0  0  0  0
   20.9175   41.0919   -6.5047 C   0  0  0  0  0  0  0  0  0  0  0  0
   21.0248   40.7204   -5.1457 C   0  0  0  0  0  0  0  0  0  0  0  0
   21.2280   40.0901   -7.5825 C   0  0  0  0  0  0  0  0  0  0  0  0
   22.0049   39.1580   -7.3716 O   0  0  0  0  0  0  0  0  0  0  0  0
   20.6009   40.2687   -8.7587 N   0  0  0  0  0  0  0  0  0  0  0  0
   20.7255   39.3906   -9.9306 C   0  0  1  0  0  0  0  0  0  0  0  0
   19.6017   38.3200   -9.9497 C   0  0  0  0  0  0  0  0  0  0  0  0
   18.2497   38.7958   -9.4317 C   0  0  0  0  0  0  0  0  0  0  0  0
   17.3729   39.5113  -10.2726 C   0  0  0  0  0  0  0  0  0  0  0  0
   16.1166   39.9551   -9.8090 C   0  0  0  0  0  0  0  0  0  0  0  0
   15.7423   39.6683   -8.4712 C   0  0  0  0  0  0  0  0  0  0  0  0
   16.6122   38.9500   -7.6304 C   0  0  0  0  0  0  0  0  0  0  0  0
   17.8619   38.5135   -8.1054 C   0  0  0  0  0  0  0  0  0  0  0  0
   15.3269   40.6498  -10.7019 O   0  0  0  0  0  0  0  0  0  0  0  0
   14.0641   41.1067  -10.2406 C   0  0  0  0  0  0  0  0  0  0  0  0
   20.8118   40.2022  -11.2571 C   0  0  2  0  0  0  0  0  0  0  0  0
   21.2599   39.3558  -12.2976 O   0  0  0  0  0  0  0  0  0  0  0  0
   21.7314   41.4467  -11.2275 C   0  0  0  0  0  0  0  0  0  0  0  0
   23.1196   41.1033  -10.8400 N   0  3  0  0  0  0  0  0  0  0  0  0
   23.9572   42.1818  -10.2559 C   0  0  0  0  0  0  0  0  0  0  0  0
   23.3547   43.0124   -9.1404 C   0  0  0  0  0  0  0  0  0  0  0  0
   24.2909   41.8819   -8.8115 C   0  0  0  0  0  0  0  0  0  0  0  0
   25.0121   42.7282  -11.1631 C   0  0  0  0  0  0  0  0  0  0  0  0
   26.3279   42.2224  -11.1056 C   0  0  0  0  0  0  0  0  0  0  0  0
   27.3539   42.7878  -11.8904 C   0  0  0  0  0  0  0  0  0  0  0  0
   27.0427   43.8476  -12.7712 C   0  0  0  0  0  0  0  0  0  0  0  0
   25.7304   44.3518  -12.8402 C   0  0  0  0  0  0  0  0  0  0  0  0
   24.7174   43.7931  -12.0391 C   0  0  0  0  0  0  0  0  0  0  0  0
   28.7734   42.2445  -11.7786 C   0  0  0  0  0  0  0  0  0  0  0  0
   29.0767   41.2741  -12.9214 C   0  0  0  0  0  0  0  0  0  0  0  0
   29.8339   43.3536  -11.6763 C   0  0  0  0  0  0  0  0  0  0  0  0
   21.6717   38.8475   -9.8572 H   0  0  0  0  0  0  0  0  0  0  0  0
   19.8099   40.5402  -11.5241 H   0  0  0  0  0  0  0  0  0  0  0  0
   21.7512   44.4277    0.4191 H   0  0  0  0  0  0  0  0  0  0  0  0
   20.8025   43.0241    0.9033 H   0  0  0  0  0  0  0  0  0  0  0  0
   20.0596   44.3119   -0.0400 H   0  0  0  0  0  0  0  0  0  0  0  0
   22.3352   42.5502   -1.0519 H   0  0  0  0  0  0  0  0  0  0  0  0
   21.5840   43.7500   -1.9747 H   0  0  0  0  0  0  0  0  0  0  0  0
   19.4106   42.5103   -1.9779 H   0  0  0  0  0  0  0  0  0  0  0  0
   20.0595   41.3331   -0.8776 H   0  0  0  0  0  0  0  0  0  0  0  0
   20.9381   40.2105   -2.6373 H   0  0  0  0  0  0  0  0  0  0  0  0
   20.2924   43.7434   -3.7021 H   0  0  0  0  0  0  0  0  0  0  0  0
   20.8018   45.4559   -5.4753 H   0  0  0  0  0  0  0  0  0  0  0  0
   20.5826   45.0558   -7.1576 H   0  0  0  0  0  0  0  0  0  0  0  0
   16.9884   45.0457   -6.9200 H   0  0  0  0  0  0  0  0  0  0  0  0
   17.9293   43.5707   -6.8397 H   0  0  0  0  0  0  0  0  0  0  0  0
   18.3468   44.8301   -8.0178 H   0  0  0  0  0  0  0  0  0  0  0  0
   20.4942   42.7494   -7.8452 H   0  0  0  0  0  0  0  0  0  0  0  0
   21.2760   39.7005   -4.8913 H   0  0  0  0  0  0  0  0  0  0  0  0
   19.8973   40.9911   -8.7968 H   0  0  0  0  0  0  0  0  0  0  0  0
   19.4783   37.8972  -10.9483 H   0  0  0  0  0  0  0  0  0  0  0  0
   19.9146   37.4835   -9.3232 H   0  0  0  0  0  0  0  0  0  0  0  0
   17.6529   39.7127  -11.2951 H   0  0  0  0  0  0  0  0  0  0  0  0
   14.7931   39.9788   -8.0609 H   0  0  0  0  0  0  0  0  0  0  0  0
   16.3147   38.7245   -6.6133 H   0  0  0  0  0  0  0  0  0  0  0  0
   18.5145   37.9586   -7.4440 H   0  0  0  0  0  0  0  0  0  0  0  0
   13.5436   41.6168  -11.0516 H   0  0  0  0  0  0  0  0  0  0  0  0
   14.1760   41.8166   -9.4200 H   0  0  0  0  0  0  0  0  0  0  0  0
   13.4380   40.2762   -9.9123 H   0  0  0  0  0  0  0  0  0  0  0  0
   21.0621   39.7495  -13.1347 H   0  0  0  0  0  0  0  0  0  0  0  0
   21.2876   42.1783  -10.5576 H   0  0  0  0  0  0  0  0  0  0  0  0
   21.7607   41.9289  -12.2057 H   0  0  0  0  0  0  0  0  0  0  0  0
   23.5849   40.7822  -11.6928 H   0  0  0  0  0  0  0  0  0  0  0  0
   23.7361   44.0223   -9.0000 H   0  0  0  0  0  0  0  0  0  0  0  0
   22.3302   42.8683   -8.8375 H   0  0  0  0  0  0  0  0  0  0  0  0
   23.8666   40.9977   -8.3410 H   0  0  0  0  0  0  0  0  0  0  0  0
   25.2600   42.1841   -8.4395 H   0  0  0  0  0  0  0  0  0  0  0  0
   26.5605   41.4057  -10.4368 H   0  0  0  0  0  0  0  0  0  0  0  0
   27.8069   44.2842  -13.3969 H   0  0  0  0  0  0  0  0  0  0  0  0
   25.5026   45.1707  -13.5063 H   0  0  0  0  0  0  0  0  0  0  0  0
   23.7157   44.1939  -12.0899 H   0  0  0  0  0  0  0  0  0  0  0  0
   28.8314   41.6749  -10.8487 H   0  0  0  0  0  0  0  0  0  0  0  0
   30.1184   40.9566  -12.9019 H   0  0  0  0  0  0  0  0  0  0  0  0
   28.8943   41.7252  -13.8957 H   0  0  0  0  0  0  0  0  0  0  0  0
   28.4604   40.3799  -12.8405 H   0  0  0  0  0  0  0  0  0  0  0  0
   30.8209   42.9275  -11.4991 H   0  0  0  0  0  0  0  0  0  0  0  0
   29.6169   44.0271  -10.8476 H   0  0  0  0  0  0  0  0  0  0  0  0
   29.8972   43.9482  -12.5862 H   0  0  0  0  0  0  0  0  0  0  0  0
   23.0981   40.3353  -10.1844 H   0  0  0  0  0  0  0  0  0  0  0  0
  1  2  1  0  0  0  0
  1 45  1  0  0  0  0
  1 46  1  0  0  0  0
  1 47  1  0  0  0  0
  2  3  1  0  0  0  0
  2 48  1  0  0  0  0
  2 49  1  0  0  0  0
  3  4  1  0  0  0  0
  3 50  1  0  0  0  0
  3 51  1  0  0  0  0
  4  5  1  0  0  0  0
  4 52  1  0  0  0  0
  5 13  1  0  0  0  0
  5  6  2  0  0  0  0
  6  7  1  0  0  0  0
  6 53  1  0  0  0  0
  7  8  1  0  0  0  0
  7 11  2  0  0  0  0
  8  9  1  0  0  0  0
  8 54  1  0  0  0  0
  8 55  1  0  0  0  0
  9 10  1  0  0  0  0
 10 56  1  0  0  0  0
 10 57  1  0  0  0  0
 10 58  1  0  0  0  0
 11 12  1  0  0  0  0
 11 59  1  0  0  0  0
 12 13  2  0  0  0  0
 12 14  1  0  0  0  0
 13 60  1  0  0  0  0
 14 15  2  0  0  0  0
 14 16  1  0  0  0  0
 16 17  1  0  0  0  0
 16 61  1  0  0  0  0
 17 43  1  1  0  0  0
 17 18  1  0  0  0  0
 17 27  1  0  0  0  0
 18 19  1  0  0  0  0
 18 62  1  0  0  0  0
 18 63  1  0  0  0  0
 19 24  1  0  0  0  0
 19 20  2  0  0  0  0
 20 21  1  0  0  0  0
 20 64  1  0  0  0  0
 21 22  2  0  0  0  0
 21 25  1  0  0  0  0
 22 23  1  0  0  0  0
 22 65  1  0  0  0  0
 23 24  2  0  0  0  0
 23 66  1  0  0  0  0
 24 67  1  0  0  0  0
 25 26  1  0  0  0  0
 26 68  1  0  0  0  0
 26 69  1  0  0  0  0
 26 70  1  0  0  0  0
 27 44  1  6  0  0  0
 27 28  1  0  0  0  0
 27 29  1  0  0  0  0
 28 71  1  0  0  0  0
 29 30  1  0  0  0  0
 29 72  1  0  0  0  0
 29 73  1  0  0  0  0
 30 31  1  0  0  0  0
 30 74  1  0  0  0  0
 30 90  1  0  0  0  0
 31 33  1  0  0  0  0
 31 32  1  0  0  0  0
 31 34  1  0  0  0  0
 32 33  1  0  0  0  0
 32 75  1  0  0  0  0
 32 76  1  0  0  0  0
 33 77  1  0  0  0  0
 33 78  1  0  0  0  0
 34 39  1  0  0  0  0
 34 35  2  0  0  0  0
 35 36  1  0  0  0  0
 35 79  1  0  0  0  0
 36 37  2  0  0  0  0
 36 40  1  0  0  0  0
 37 38  1  0  0  0  0
 37 80  1  0  0  0  0
 38 39  2  0  0  0  0
 38 81  1  0  0  0  0
 39 82  1  0  0  0  0
 40 41  1  0  0  0  0
 40 42  1  0  0  0  0
 40 83  1  0  0  0  0
 41 84  1  0  0  0  0
 41 85  1  0  0  0  0
 41 86  1  0  0  0  0
 42 87  1  0  0  0  0
 42 88  1  0  0  0  0
 42 89  1  0  0  0  0
M  CHG  1  30   1
M  END
