BACE_120.smi:1
 OpenBabel09301811243D
Structure written by MMmdl.
 72 75  0  0  1  0  0  0  0  0999 V2000
   20.1543   40.1500   -5.4546 C   0  0  0  0  0  0  0  0  0  0  0  0
   21.5642   40.7317   -5.7182 C   0  0  0  0  0  0  0  0  0  0  0  0
   22.4928   40.1590   -4.6282 C   0  0  0  0  0  0  0  0  0  0  0  0
   22.0569   40.2437   -7.0332 N   0  3  0  0  0  0  0  0  0  0  0  0
   21.0673   40.1107   -8.1309 C   0  0  0  0  0  0  0  0  0  0  0  0
   21.7286   39.6246   -9.4383 C   0  0  1  0  0  0  0  0  0  0  0  0
   22.4598   38.4505   -9.1417 O   0  0  0  0  0  0  0  0  0  0  0  0
   20.7527   39.3666  -10.6182 C   0  0  2  0  0  0  0  0  0  0  0  0
   21.0229   40.2797  -11.8410 C   0  0  0  0  0  0  0  0  0  0  0  0
   20.6588   41.7399  -11.6239 C   0  0  0  0  0  0  0  0  0  0  0  0
   21.6407   42.6786  -11.2437 C   0  0  0  0  0  0  0  0  0  0  0  0
   21.2815   44.0212  -11.0116 C   0  0  0  0  0  0  0  0  0  0  0  0
   19.9395   44.4281  -11.1486 C   0  0  0  0  0  0  0  0  0  0  0  0
   18.9566   43.4932  -11.5323 C   0  0  0  0  0  0  0  0  0  0  0  0
   17.5003   43.8945  -11.6397 C   0  0  0  0  0  0  0  0  0  0  0  0
   16.8181   43.9642  -10.2628 C   0  0  0  0  0  0  0  0  0  0  0  0
   15.2860   43.8983  -10.3549 C   0  0  0  0  0  0  0  0  0  0  0  0
   14.7389   42.4721  -10.5514 C   0  0  0  0  0  0  0  0  0  0  0  0
   14.6499   41.7426   -9.2925 N   0  0  0  0  0  0  0  0  0  0  0  0
   15.3068   40.5154   -9.1214 C   0  0  0  0  0  0  0  0  0  0  0  0
   14.7113   39.5483   -8.2850 C   0  0  0  0  0  0  0  0  0  0  0  0
   15.2481   38.3357   -8.0409 N   0  0  0  0  0  0  0  0  0  0  0  0
   16.4296   38.0413   -8.6199 C   0  0  0  0  0  0  0  0  0  0  0  0
   17.1386   38.9361   -9.4516 C   0  0  0  0  0  0  0  0  0  0  0  0
   16.5486   40.1950   -9.7201 C   0  0  0  0  0  0  0  0  0  0  0  0
   18.4603   38.5306  -10.0384 C   0  0  0  0  0  0  0  0  0  0  0  0
   18.7025   37.3500  -10.2895 O   0  0  0  0  0  0  0  0  0  0  0  0
   19.3643   39.5152  -10.1693 N   0  0  0  0  0  0  0  0  0  0  0  0
   19.3242   42.1591  -11.7891 C   0  0  0  0  0  0  0  0  0  0  0  0
   21.6122   42.2706   -5.6742 C   0  0  0  0  0  0  0  0  0  0  0  0
   22.7744   42.9814   -5.2834 C   0  0  0  0  0  0  0  0  0  0  0  0
   22.7774   44.3893   -5.2447 C   0  0  0  0  0  0  0  0  0  0  0  0
   21.6202   45.1093   -5.5912 C   0  0  0  0  0  0  0  0  0  0  0  0
   20.4580   44.4185   -5.9779 C   0  0  0  0  0  0  0  0  0  0  0  0
   18.8855   45.3842   -6.4410 Br  0  0  0  0  0  0  0  0  0  0  0  0
   20.4561   43.0112   -6.0198 C   0  0  0  0  0  0  0  0  0  0  0  0
   22.4514   40.3845   -9.7363 H   0  0  0  0  0  0  0  0  0  0  0  0
   20.9152   38.3421  -10.9575 H   0  0  0  0  0  0  0  0  0  0  0  0
   19.7904   40.4244   -4.4637 H   0  0  0  0  0  0  0  0  0  0  0  0
   20.1663   39.0608   -5.4954 H   0  0  0  0  0  0  0  0  0  0  0  0
   19.4140   40.4882   -6.1791 H   0  0  0  0  0  0  0  0  0  0  0  0
   22.1951   40.5026   -3.6367 H   0  0  0  0  0  0  0  0  0  0  0  0
   23.5331   40.4494   -4.7757 H   0  0  0  0  0  0  0  0  0  0  0  0
   22.4670   39.0685   -4.6169 H   0  0  0  0  0  0  0  0  0  0  0  0
   22.7670   40.8873   -7.3524 H   0  0  0  0  0  0  0  0  0  0  0  0
   20.2780   39.4188   -7.8401 H   0  0  0  0  0  0  0  0  0  0  0  0
   20.5796   41.0679   -8.3158 H   0  0  0  0  0  0  0  0  0  0  0  0
   23.3402   38.5523   -9.4714 H   0  0  0  0  0  0  0  0  0  0  0  0
   22.0660   40.2094  -12.1510 H   0  0  0  0  0  0  0  0  0  0  0  0
   20.4448   39.9148  -12.6913 H   0  0  0  0  0  0  0  0  0  0  0  0
   22.6685   42.3706  -11.1192 H   0  0  0  0  0  0  0  0  0  0  0  0
   22.0341   44.7372  -10.7158 H   0  0  0  0  0  0  0  0  0  0  0  0
   19.6658   45.4541  -10.9505 H   0  0  0  0  0  0  0  0  0  0  0  0
   17.4219   44.8561  -12.1483 H   0  0  0  0  0  0  0  0  0  0  0  0
   16.9910   43.1732  -12.2795 H   0  0  0  0  0  0  0  0  0  0  0  0
   17.1668   43.1528   -9.6235 H   0  0  0  0  0  0  0  0  0  0  0  0
   17.1227   44.8849   -9.7646 H   0  0  0  0  0  0  0  0  0  0  0  0
   14.8439   44.3347   -9.4581 H   0  0  0  0  0  0  0  0  0  0  0  0
   14.9561   44.5299  -11.1808 H   0  0  0  0  0  0  0  0  0  0  0  0
   13.7221   42.5428  -10.9388 H   0  0  0  0  0  0  0  0  0  0  0  0
   15.3038   41.9274  -11.3070 H   0  0  0  0  0  0  0  0  0  0  0  0
   13.7823   41.8549   -8.7869 H   0  0  0  0  0  0  0  0  0  0  0  0
   13.7669   39.7499   -7.8006 H   0  0  0  0  0  0  0  0  0  0  0  0
   16.8259   37.0625   -8.3924 H   0  0  0  0  0  0  0  0  0  0  0  0
   17.0488   40.9068  -10.3586 H   0  0  0  0  0  0  0  0  0  0  0  0
   19.0741   40.4505   -9.9210 H   0  0  0  0  0  0  0  0  0  0  0  0
   18.5719   41.4425  -12.0852 H   0  0  0  0  0  0  0  0  0  0  0  0
   23.6845   42.4713   -5.0088 H   0  0  0  0  0  0  0  0  0  0  0  0
   23.6709   44.9186   -4.9480 H   0  0  0  0  0  0  0  0  0  0  0  0
   21.6250   46.1890   -5.5587 H   0  0  0  0  0  0  0  0  0  0  0  0
   19.5494   42.5020   -6.3118 H   0  0  0  0  0  0  0  0  0  0  0  0
   22.4914   39.3429   -6.8894 H   0  0  0  0  0  0  0  0  0  0  0  0
  1  2  1  0  0  0  0
  1 39  1  0  0  0  0
  1 40  1  0  0  0  0
  1 41  1  0  0  0  0
  2  3  1  0  0  0  0
  2  4  1  0  0  0  0
  2 30  1  0  0  0  0
  3 42  1  0  0  0  0
  3 43  1  0  0  0  0
  3 44  1  0  0  0  0
  4  5  1  0  0  0  0
  4 45  1  0  0  0  0
  4 72  1  0  0  0  0
  5  6  1  0  0  0  0
  5 46  1  0  0  0  0
  5 47  1  0  0  0  0
  6 37  1  6  0  0  0
  6  7  1  0  0  0  0
  6  8  1  0  0  0  0
  7 48  1  0  0  0  0
  8 38  1  6  0  0  0
  8 28  1  0  0  0  0
  8  9  1  0  0  0  0
  9 10  1  0  0  0  0
  9 49  1  0  0  0  0
  9 50  1  0  0  0  0
 10 29  1  0  0  0  0
 10 11  2  0  0  0  0
 11 12  1  0  0  0  0
 11 51  1  0  0  0  0
 12 13  2  0  0  0  0
 12 52  1  0  0  0  0
 13 14  1  0  0  0  0
 13 53  1  0  0  0  0
 14 15  1  0  0  0  0
 14 29  2  0  0  0  0
 15 16  1  0  0  0  0
 15 54  1  0  0  0  0
 15 55  1  0  0  0  0
 16 17  1  0  0  0  0
 16 56  1  0  0  0  0
 16 57  1  0  0  0  0
 17 18  1  0  0  0  0
 17 58  1  0  0  0  0
 17 59  1  0  0  0  0
 18 19  1  0  0  0  0
 18 60  1  0  0  0  0
 18 61  1  0  0  0  0
 19 20  1  0  0  0  0
 19 62  1  0  0  0  0
 20 25  1  0  0  0  0
 20 21  2  0  0  0  0
 21 22  1  0  0  0  0
 21 63  1  0  0  0  0
 22 23  2  0  0  0  0
 23 24  1  0  0  0  0
 23 64  1  0  0  0  0
 24 25  2  0  0  0  0
 24 26  1  0  0  0  0
 25 65  1  0  0  0  0
 26 27  2  0  0  0  0
 26 28  1  0  0  0  0
 28 66  1  0  0  0  0
 29 67  1  0  0  0  0
 30 36  1  0  0  0  0
 30 31  2  0  0  0  0
 31 32  1  0  0  0  0
 31 68  1  0  0  0  0
 32 33  2  0  0  0  0
 32 69  1  0  0  0  0
 33 34  1  0  0  0  0
 33 70  1  0  0  0  0
 34 35  1  0  0  0  0
 34 36  2  0  0  0  0
 36 71  1  0  0  0  0
M  CHG  1   4   1
M  END
