BACE_74.smi:1
 OpenBabel09301811243D
Structure written by MMmdl.
 81 83  0  0  1  0  0  0  0  0999 V2000
   18.2194   37.3286   -8.9859 C   0  0  0  0  0  0  0  0  0  0  0  0
   17.8699   38.7577   -8.5169 C   0  0  2  0  0  0  0  0  0  0  0  0
   16.3527   38.9665   -8.7462 C   0  0  0  0  0  0  0  0  0  0  0  0
   15.7001   40.2042   -8.1083 C   0  0  0  0  0  0  0  0  0  0  0  0
   15.8868   41.3492   -8.9286 O   0  0  0  0  0  0  0  0  0  0  0  0
   14.8810   42.3349   -8.7304 C   0  0  0  0  0  0  0  0  0  0  0  0
   15.3230   43.6669   -9.3613 C   0  0  0  0  0  0  0  0  0  0  0  0
   16.2964   44.4869   -8.4928 C   0  0  0  0  0  0  0  0  0  0  0  0
   17.4847   43.6541   -8.0036 C   0  0  0  0  0  0  0  0  0  0  0  0
   18.5015   44.4338   -7.3170 N   0  0  0  0  0  0  0  0  0  0  0  0
   19.7130   43.7864   -7.0204 C   0  0  0  0  0  0  0  0  0  0  0  0
   19.8106   42.3740   -6.9724 C   0  0  0  0  0  0  0  0  0  0  0  0
   21.0377   41.7328   -6.7222 C   0  0  0  0  0  0  0  0  0  0  0  0
   22.1798   42.5189   -6.4644 C   0  0  0  0  0  0  0  0  0  0  0  0
   22.0954   43.9236   -6.4858 C   0  0  0  0  0  0  0  0  0  0  0  0
   20.8686   44.5587   -6.7628 C   0  0  0  0  0  0  0  0  0  0  0  0
   20.7976   46.2873   -6.7633 Cl  0  0  0  0  0  0  0  0  0  0  0  0
   21.1137   40.2376   -6.6046 C   0  0  0  0  0  0  0  0  0  0  0  0
   21.6207   39.7502   -5.5983 O   0  0  0  0  0  0  0  0  0  0  0  0
   20.6802   39.4408   -7.6051 N   0  0  0  0  0  0  0  0  0  0  0  0
   20.2931   39.6754   -9.0112 C   0  0  1  0  0  0  0  0  0  0  0  0
   18.7558   39.8293   -9.2119 C   0  0  0  0  0  0  0  0  0  0  0  0
   21.1823   40.6929   -9.7938 C   0  0  2  0  0  0  0  0  0  0  0  0
   20.8667   40.5748  -11.1720 O   0  0  0  0  0  0  0  0  0  0  0  0
   22.6939   40.3781   -9.6567 C   0  0  0  0  0  0  0  0  0  0  0  0
   23.5700   41.2783  -10.4400 N   0  3  0  0  0  0  0  0  0  0  0  0
   24.9519   41.3901   -9.9305 C   0  0  0  0  0  0  0  0  0  0  0  0
   25.7979   42.2606  -10.8386 C   0  0  0  0  0  0  0  0  0  0  0  0
   27.1151   41.8867  -11.1792 C   0  0  0  0  0  0  0  0  0  0  0  0
   27.8951   42.7482  -11.9869 C   0  0  0  0  0  0  0  0  0  0  0  0
   27.2707   43.9321  -12.4486 C   0  0  0  0  0  0  0  0  0  0  0  0
   25.9426   44.2048  -12.0703 C   0  0  0  0  0  0  0  0  0  0  0  0
   25.2142   43.3972  -11.2746 N   0  0  0  0  0  0  0  0  0  0  0  0
   29.3529   42.3973  -12.3475 C   0  0  0  0  0  0  0  0  0  0  0  0
   30.1524   43.6269  -12.8322 C   0  0  0  0  0  0  0  0  0  0  0  0
   29.3586   41.3506  -13.4723 C   0  0  0  0  0  0  0  0  0  0  0  0
   30.1005   41.8162  -11.1270 C   0  0  0  0  0  0  0  0  0  0  0  0
   18.0453   38.8089   -7.4415 H   0  0  0  0  0  0  0  0  0  0  0  0
   20.5403   38.7193   -9.4721 H   0  0  0  0  0  0  0  0  0  0  0  0
   20.9680   41.7138   -9.4770 H   0  0  0  0  0  0  0  0  0  0  0  0
   18.0124   37.2042  -10.0480 H   0  0  0  0  0  0  0  0  0  0  0  0
   17.6260   36.5883   -8.4466 H   0  0  0  0  0  0  0  0  0  0  0  0
   19.2617   37.0628   -8.8277 H   0  0  0  0  0  0  0  0  0  0  0  0
   16.1217   38.9428   -9.8118 H   0  0  0  0  0  0  0  0  0  0  0  0
   15.8381   38.1031   -8.3202 H   0  0  0  0  0  0  0  0  0  0  0  0
   14.6322   40.0007   -8.0039 H   0  0  0  0  0  0  0  0  0  0  0  0
   16.0836   40.3874   -7.1042 H   0  0  0  0  0  0  0  0  0  0  0  0
   13.9650   41.9875   -9.2115 H   0  0  0  0  0  0  0  0  0  0  0  0
   14.6633   42.4742   -7.6698 H   0  0  0  0  0  0  0  0  0  0  0  0
   15.7650   43.4708  -10.3376 H   0  0  0  0  0  0  0  0  0  0  0  0
   14.4399   44.2773   -9.5487 H   0  0  0  0  0  0  0  0  0  0  0  0
   16.6520   45.3419   -9.0687 H   0  0  0  0  0  0  0  0  0  0  0  0
   15.7639   44.8955   -7.6355 H   0  0  0  0  0  0  0  0  0  0  0  0
   17.1168   42.8927   -7.3144 H   0  0  0  0  0  0  0  0  0  0  0  0
   17.9393   43.1439   -8.8536 H   0  0  0  0  0  0  0  0  0  0  0  0
   18.5371   45.4295   -7.4879 H   0  0  0  0  0  0  0  0  0  0  0  0
   18.9334   41.7566   -7.0776 H   0  0  0  0  0  0  0  0  0  0  0  0
   23.1224   42.0471   -6.2274 H   0  0  0  0  0  0  0  0  0  0  0  0
   22.9738   44.5174   -6.2777 H   0  0  0  0  0  0  0  0  0  0  0  0
   20.7142   38.4614   -7.3606 H   0  0  0  0  0  0  0  0  0  0  0  0
   18.5391   39.7967  -10.2796 H   0  0  0  0  0  0  0  0  0  0  0  0
   18.4413   40.8209   -8.9007 H   0  0  0  0  0  0  0  0  0  0  0  0
   21.0288   41.3957  -11.6109 H   0  0  0  0  0  0  0  0  0  0  0  0
   22.9969   40.4344   -8.6132 H   0  0  0  0  0  0  0  0  0  0  0  0
   22.8614   39.3527   -9.9748 H   0  0  0  0  0  0  0  0  0  0  0  0
   23.6300   40.9511  -11.3997 H   0  0  0  0  0  0  0  0  0  0  0  0
   24.9362   41.8331   -8.9343 H   0  0  0  0  0  0  0  0  0  0  0  0
   25.4117   40.4100   -9.8377 H   0  0  0  0  0  0  0  0  0  0  0  0
   27.5176   40.9519  -10.8185 H   0  0  0  0  0  0  0  0  0  0  0  0
   27.7788   44.6393  -13.0841 H   0  0  0  0  0  0  0  0  0  0  0  0
   25.4528   45.1055  -12.4103 H   0  0  0  0  0  0  0  0  0  0  0  0
   31.1966   43.3695  -13.0147 H   0  0  0  0  0  0  0  0  0  0  0  0
   30.1395   44.4294  -12.0937 H   0  0  0  0  0  0  0  0  0  0  0  0
   29.7633   44.0262  -13.7692 H   0  0  0  0  0  0  0  0  0  0  0  0
   28.8600   41.7230  -14.3681 H   0  0  0  0  0  0  0  0  0  0  0  0
   28.8593   40.4305  -13.1676 H   0  0  0  0  0  0  0  0  0  0  0  0
   30.3752   41.0805  -13.7590 H   0  0  0  0  0  0  0  0  0  0  0  0
   31.1554   41.6540  -11.3513 H   0  0  0  0  0  0  0  0  0  0  0  0
   29.6998   40.8499  -10.8260 H   0  0  0  0  0  0  0  0  0  0  0  0
   30.0433   42.4880  -10.2682 H   0  0  0  0  0  0  0  0  0  0  0  0
   23.1942   42.2145  -10.4534 H   0  0  0  0  0  0  0  0  0  0  0  0
  1  2  1  0  0  0  0
  1 41  1  0  0  0  0
  1 42  1  0  0  0  0
  1 43  1  0  0  0  0
  2 38  1  1  0  0  0
  2 22  1  0  0  0  0
  2  3  1  0  0  0  0
  3  4  1  0  0  0  0
  3 44  1  0  0  0  0
  3 45  1  0  0  0  0
  4  5  1  0  0  0  0
  4 46  1  0  0  0  0
  4 47  1  0  0  0  0
  5  6  1  0  0  0  0
  6  7  1  0  0  0  0
  6 48  1  0  0  0  0
  6 49  1  0  0  0  0
  7  8  1  0  0  0  0
  7 50  1  0  0  0  0
  7 51  1  0  0  0  0
  8  9  1  0  0  0  0
  8 52  1  0  0  0  0
  8 53  1  0  0  0  0
  9 10  1  0  0  0  0
  9 54  1  0  0  0  0
  9 55  1  0  0  0  0
 10 11  1  0  0  0  0
 10 56  1  0  0  0  0
 11 16  1  0  0  0  0
 11 12  2  0  0  0  0
 12 13  1  0  0  0  0
 12 57  1  0  0  0  0
 13 14  2  0  0  0  0
 13 18  1  0  0  0  0
 14 15  1  0  0  0  0
 14 58  1  0  0  0  0
 15 16  2  0  0  0  0
 15 59  1  0  0  0  0
 16 17  1  0  0  0  0
 18 19  2  0  0  0  0
 18 20  1  0  0  0  0
 20 21  1  0  0  0  0
 20 60  1  0  0  0  0
 21 39  1  6  0  0  0
 21 22  1  0  0  0  0
 21 23  1  0  0  0  0
 22 61  1  0  0  0  0
 22 62  1  0  0  0  0
 23 40  1  1  0  0  0
 23 24  1  0  0  0  0
 23 25  1  0  0  0  0
 24 63  1  0  0  0  0
 25 26  1  0  0  0  0
 25 64  1  0  0  0  0
 25 65  1  0  0  0  0
 26 27  1  0  0  0  0
 26 66  1  0  0  0  0
 26 81  1  0  0  0  0
 27 28  1  0  0  0  0
 27 67  1  0  0  0  0
 27 68  1  0  0  0  0
 28 33  1  0  0  0  0
 28 29  2  0  0  0  0
 29 30  1  0  0  0  0
 29 69  1  0  0  0  0
 30 31  2  0  0  0  0
 30 34  1  0  0  0  0
 31 32  1  0  0  0  0
 31 70  1  0  0  0  0
 32 33  2  0  0  0  0
 32 71  1  0  0  0  0
 34 35  1  0  0  0  0
 34 36  1  0  0  0  0
 34 37  1  0  0  0  0
 35 72  1  0  0  0  0
 35 73  1  0  0  0  0
 35 74  1  0  0  0  0
 36 75  1  0  0  0  0
 36 76  1  0  0  0  0
 36 77  1  0  0  0  0
 37 78  1  0  0  0  0
 37 79  1  0  0  0  0
 37 80  1  0  0  0  0
M  CHG  1  26   1
M  END
