BACE_76.smi:1
 OpenBabel09301811243D
Structure written by MMmdl.
 80 82  0  0  1  0  0  0  0  0999 V2000
   20.3738   44.2801   -4.8397 C   0  0  0  0  0  0  0  0  0  0  0  0
   19.8972   45.5485   -5.2540 O   0  0  0  0  0  0  0  0  0  0  0  0
   20.2558   45.8521   -6.5915 C   0  0  0  0  0  0  0  0  0  0  0  0
   19.7248   44.8122   -7.5569 C   0  0  0  0  0  0  0  0  0  0  0  0
   18.4902   44.1823   -7.3025 C   0  0  0  0  0  0  0  0  0  0  0  0
   17.9717   43.2247   -8.1982 C   0  0  0  0  0  0  0  0  0  0  0  0
   18.7175   42.8868   -9.3523 C   0  0  0  0  0  0  0  0  0  0  0  0
   19.9681   43.4963   -9.6019 C   0  0  0  0  0  0  0  0  0  0  0  0
   20.4572   44.4737   -8.7117 C   0  0  0  0  0  0  0  0  0  0  0  0
   20.7620   43.1485  -10.8266 C   0  0  0  0  0  0  0  0  0  0  0  0
   21.0450   44.0251  -11.6400 O   0  0  0  0  0  0  0  0  0  0  0  0
   21.1595   41.8747  -11.0021 N   0  0  0  0  0  0  0  0  0  0  0  0
   21.1085   40.7577  -10.0516 C   0  0  1  0  0  0  0  0  0  0  0  0
   20.0943   39.7084  -10.5715 C   0  0  0  0  0  0  0  0  0  0  0  0
   19.2447   39.0182   -9.4779 C   0  0  2  0  0  0  0  0  0  0  0  0
   20.0806   38.1539   -8.5176 C   0  0  0  0  0  0  0  0  0  0  0  0
   18.1004   38.2019  -10.1233 C   0  0  0  0  0  0  0  0  0  0  0  0
   16.9511   37.8416   -9.1678 C   0  0  0  0  0  0  0  0  0  0  0  0
   16.4421   39.0460   -8.6255 O   0  0  0  0  0  0  0  0  0  0  0  0
   15.1772   38.9250   -8.0062 C   0  0  0  0  0  0  0  0  0  0  0  0
   14.7955   40.2708   -7.3687 C   0  0  0  0  0  0  0  0  0  0  0  0
   14.6162   41.4336   -8.3696 C   0  0  0  0  0  0  0  0  0  0  0  0
   15.9233   42.0248   -8.9333 C   0  0  0  0  0  0  0  0  0  0  0  0
   16.7320   42.6445   -7.8925 N   0  0  0  0  0  0  0  0  0  0  0  0
   22.5307   40.1608   -9.8533 C   0  0  2  0  0  0  0  0  0  0  0  0
   22.4752   39.2041   -8.8133 O   0  0  0  0  0  0  0  0  0  0  0  0
   23.6472   41.1805   -9.5453 C   0  0  0  0  0  0  0  0  0  0  0  0
   24.8289   40.9538  -10.3999 N   0  3  0  0  0  0  0  0  0  0  0  0
   26.0269   41.7034   -9.9778 C   0  0  0  0  0  0  0  0  0  0  0  0
   26.5562   42.5490  -11.1197 C   0  0  0  0  0  0  0  0  0  0  0  0
   27.8209   42.2670  -11.6781 C   0  0  0  0  0  0  0  0  0  0  0  0
   28.3256   43.0454  -12.7426 C   0  0  0  0  0  0  0  0  0  0  0  0
   27.5563   44.1204  -13.2379 C   0  0  0  0  0  0  0  0  0  0  0  0
   26.2950   44.4074  -12.6816 C   0  0  0  0  0  0  0  0  0  0  0  0
   25.7941   43.6241  -11.6247 C   0  0  0  0  0  0  0  0  0  0  0  0
   24.5833   43.9128  -11.0905 F   0  0  0  0  0  0  0  0  0  0  0  0
   29.6950   42.7397  -13.3312 C   0  0  0  0  0  0  0  0  0  0  0  0
   30.6565   43.3871  -12.6725 F   0  0  0  0  0  0  0  0  0  0  0  0
   29.9230   41.4299  -13.2470 F   0  0  0  0  0  0  0  0  0  0  0  0
   29.7486   43.1040  -14.6129 F   0  0  0  0  0  0  0  0  0  0  0  0
   20.7530   41.1021   -9.0802 H   0  0  0  0  0  0  0  0  0  0  0  0
   18.7911   39.8158   -8.8886 H   0  0  0  0  0  0  0  0  0  0  0  0
   22.8129   39.6133  -10.7515 H   0  0  0  0  0  0  0  0  0  0  0  0
   20.0629   44.0880   -3.8130 H   0  0  0  0  0  0  0  0  0  0  0  0
   21.4631   44.2381   -4.8752 H   0  0  0  0  0  0  0  0  0  0  0  0
   19.9719   43.4835   -5.4673 H   0  0  0  0  0  0  0  0  0  0  0  0
   19.8543   46.8266   -6.8736 H   0  0  0  0  0  0  0  0  0  0  0  0
   21.3417   45.9153   -6.6793 H   0  0  0  0  0  0  0  0  0  0  0  0
   17.9333   44.4465   -6.4148 H   0  0  0  0  0  0  0  0  0  0  0  0
   18.3470   42.1557  -10.0543 H   0  0  0  0  0  0  0  0  0  0  0  0
   21.4051   44.9545   -8.9073 H   0  0  0  0  0  0  0  0  0  0  0  0
   21.6480   41.6846  -11.8649 H   0  0  0  0  0  0  0  0  0  0  0  0
   19.3992   40.2091  -11.2475 H   0  0  0  0  0  0  0  0  0  0  0  0
   20.5974   38.9618  -11.1874 H   0  0  0  0  0  0  0  0  0  0  0  0
   20.6265   37.3773   -9.0537 H   0  0  0  0  0  0  0  0  0  0  0  0
   19.4543   37.6648   -7.7724 H   0  0  0  0  0  0  0  0  0  0  0  0
   20.8004   38.7568   -7.9651 H   0  0  0  0  0  0  0  0  0  0  0  0
   17.6662   38.7751  -10.9434 H   0  0  0  0  0  0  0  0  0  0  0  0
   18.5015   37.2942  -10.5758 H   0  0  0  0  0  0  0  0  0  0  0  0
   16.1735   37.3190   -9.7271 H   0  0  0  0  0  0  0  0  0  0  0  0
   17.2776   37.1765   -8.3685 H   0  0  0  0  0  0  0  0  0  0  0  0
   14.4267   38.6242   -8.7385 H   0  0  0  0  0  0  0  0  0  0  0  0
   15.2162   38.1512   -7.2381 H   0  0  0  0  0  0  0  0  0  0  0  0
   13.8523   40.1313   -6.8396 H   0  0  0  0  0  0  0  0  0  0  0  0
   15.5241   40.5374   -6.6027 H   0  0  0  0  0  0  0  0  0  0  0  0
   13.9876   41.1000   -9.1959 H   0  0  0  0  0  0  0  0  0  0  0  0
   14.0590   42.2339   -7.8812 H   0  0  0  0  0  0  0  0  0  0  0  0
   16.4918   41.2584   -9.4550 H   0  0  0  0  0  0  0  0  0  0  0  0
   15.6820   42.7870   -9.6750 H   0  0  0  0  0  0  0  0  0  0  0  0
   16.2474   42.9771   -7.0711 H   0  0  0  0  0  0  0  0  0  0  0  0
   23.2780   38.7042   -8.8186 H   0  0  0  0  0  0  0  0  0  0  0  0
   23.2841   42.1933   -9.7251 H   0  0  0  0  0  0  0  0  0  0  0  0
   23.9469   41.1258   -8.4974 H   0  0  0  0  0  0  0  0  0  0  0  0
   25.0456   39.9670  -10.3821 H   0  0  0  0  0  0  0  0  0  0  0  0
   25.7803   42.3426   -9.1289 H   0  0  0  0  0  0  0  0  0  0  0  0
   26.7992   41.0105   -9.6414 H   0  0  0  0  0  0  0  0  0  0  0  0
   28.4084   41.4496  -11.2862 H   0  0  0  0  0  0  0  0  0  0  0  0
   27.9309   44.7333  -14.0445 H   0  0  0  0  0  0  0  0  0  0  0  0
   25.7127   45.2323  -13.0649 H   0  0  0  0  0  0  0  0  0  0  0  0
   24.5991   41.2166  -11.3477 H   0  0  0  0  0  0  0  0  0  0  0  0
  1  2  1  0  0  0  0
  1 44  1  0  0  0  0
  1 45  1  0  0  0  0
  1 46  1  0  0  0  0
  2  3  1  0  0  0  0
  3  4  1  0  0  0  0
  3 47  1  0  0  0  0
  3 48  1  0  0  0  0
  4  9  1  0  0  0  0
  4  5  2  0  0  0  0
  5  6  1  0  0  0  0
  5 49  1  0  0  0  0
  6 24  1  0  0  0  0
  6  7  2  0  0  0  0
  7  8  1  0  0  0  0
  7 50  1  0  0  0  0
  8  9  2  0  0  0  0
  8 10  1  0  0  0  0
  9 51  1  0  0  0  0
 10 11  2  0  0  0  0
 10 12  1  0  0  0  0
 12 13  1  0  0  0  0
 12 52  1  0  0  0  0
 13 41  1  1  0  0  0
 13 14  1  0  0  0  0
 13 25  1  0  0  0  0
 14 15  1  0  0  0  0
 14 53  1  0  0  0  0
 14 54  1  0  0  0  0
 15 42  1  1  0  0  0
 15 16  1  0  0  0  0
 15 17  1  0  0  0  0
 16 55  1  0  0  0  0
 16 56  1  0  0  0  0
 16 57  1  0  0  0  0
 17 18  1  0  0  0  0
 17 58  1  0  0  0  0
 17 59  1  0  0  0  0
 18 19  1  0  0  0  0
 18 60  1  0  0  0  0
 18 61  1  0  0  0  0
 19 20  1  0  0  0  0
 20 21  1  0  0  0  0
 20 62  1  0  0  0  0
 20 63  1  0  0  0  0
 21 22  1  0  0  0  0
 21 64  1  0  0  0  0
 21 65  1  0  0  0  0
 22 23  1  0  0  0  0
 22 66  1  0  0  0  0
 22 67  1  0  0  0  0
 23 24  1  0  0  0  0
 23 68  1  0  0  0  0
 23 69  1  0  0  0  0
 24 70  1  0  0  0  0
 25 43  1  6  0  0  0
 25 26  1  0  0  0  0
 25 27  1  0  0  0  0
 26 71  1  0  0  0  0
 27 28  1  0  0  0  0
 27 72  1  0  0  0  0
 27 73  1  0  0  0  0
 28 29  1  0  0  0  0
 28 74  1  0  0  0  0
 28 80  1  0  0  0  0
 29 30  1  0  0  0  0
 29 75  1  0  0  0  0
 29 76  1  0  0  0  0
 30 35  1  0  0  0  0
 30 31  2  0  0  0  0
 31 32  1  0  0  0  0
 31 77  1  0  0  0  0
 32 33  2  0  0  0  0
 32 37  1  0  0  0  0
 33 34  1  0  0  0  0
 33 78  1  0  0  0  0
 34 35  2  0  0  0  0
 34 79  1  0  0  0  0
 35 36  1  0  0  0  0
 37 38  1  0  0  0  0
 37 39  1  0  0  0  0
 37 40  1  0  0  0  0
M  CHG  1  28   1
M  END
