BACE_53.smi:1
 OpenBabel09301811243D
Structure written by MMmdl.
 81 83  0  0  1  0  0  0  0  0999 V2000
   22.3612   40.7804  -10.7604 C   0  0  0  0  0  0  0  0  0  0  0  0
   21.1596   39.9631  -11.2691 C   0  0  0  0  0  0  0  0  0  0  0  0
   20.2922   40.8400  -12.1913 C   0  0  0  0  0  0  0  0  0  0  0  0
   20.3265   39.3143  -10.1568 C   0  0  0  0  0  0  0  0  0  0  0  0
   19.1783   38.5651  -10.4952 C   0  0  0  0  0  0  0  0  0  0  0  0
   18.3578   37.9980   -9.5014 C   0  0  0  0  0  0  0  0  0  0  0  0
   18.6710   38.1798   -8.1428 C   0  0  0  0  0  0  0  0  0  0  0  0
   19.8245   38.9086   -7.7869 C   0  0  0  0  0  0  0  0  0  0  0  0
   20.1689   39.1458   -6.3347 C   0  0  0  0  0  0  0  0  0  0  0  0
   20.0600   40.5832   -6.0404 N   0  3  0  0  0  0  0  0  0  0  0  0
   20.9612   41.0875   -4.9848 C   0  0  0  0  0  0  0  0  0  0  0  0
   20.6756   42.5696   -4.6562 C   0  0  1  0  0  0  0  0  0  0  0  0
   21.5320   42.9500   -3.5954 O   0  0  0  0  0  0  0  0  0  0  0  0
   20.8022   43.5309   -5.8735 C   0  0  2  0  0  0  0  0  0  0  0  0
   22.1548   43.5417   -6.6415 C   0  0  0  0  0  0  0  0  0  0  0  0
   23.4602   43.9262   -5.9013 C   0  0  2  0  0  0  0  0  0  0  0  0
   23.4319   45.3243   -5.2567 C   0  0  0  0  0  0  0  0  0  0  0  0
   24.6775   43.7549   -6.8399 C   0  0  0  0  0  0  0  0  0  0  0  0
   24.8989   44.9042   -7.8473 C   0  0  0  0  0  0  0  0  0  0  0  0
   25.7060   44.4790   -9.0886 C   0  0  0  0  0  0  0  0  0  0  0  0
   24.8159   43.9522  -10.2290 C   0  0  0  0  0  0  0  0  0  0  0  0
   24.1910   45.0851  -11.0684 C   0  0  0  0  0  0  0  0  0  0  0  0
   23.0993   44.6116  -12.0452 C   0  0  0  0  0  0  0  0  0  0  0  0
   21.7406   44.3343  -11.3765 C   0  0  0  0  0  0  0  0  0  0  0  0
   20.9337   45.5955  -11.0195 C   0  0  0  0  0  0  0  0  0  0  0  0
   19.8891   45.3194   -9.9523 C   0  0  0  0  0  0  0  0  0  0  0  0
   20.1524   45.6410   -8.6069 C   0  0  0  0  0  0  0  0  0  0  0  0
   19.1840   45.3302   -7.6318 C   0  0  0  0  0  0  0  0  0  0  0  0
   17.9772   44.7328   -8.0490 C   0  0  0  0  0  0  0  0  0  0  0  0
   17.8096   44.4509   -9.4189 C   0  0  0  0  0  0  0  0  0  0  0  0
   18.7420   44.7307  -10.3560 N   0  0  0  0  0  0  0  0  0  0  0  0
   19.4347   45.6339   -6.1853 C   0  0  0  0  0  0  0  0  0  0  0  0
   18.8603   46.5735   -5.6401 O   0  0  0  0  0  0  0  0  0  0  0  0
   20.3119   44.8652   -5.5152 N   0  0  0  0  0  0  0  0  0  0  0  0
   20.6548   39.4540   -8.7884 C   0  0  0  0  0  0  0  0  0  0  0  0
   19.6603   42.6395   -4.2649 H   0  0  0  0  0  0  0  0  0  0  0  0
   20.0846   43.1422   -6.5968 H   0  0  0  0  0  0  0  0  0  0  0  0
   23.6068   43.2033   -5.0993 H   0  0  0  0  0  0  0  0  0  0  0  0
   23.1014   40.1496  -10.2672 H   0  0  0  0  0  0  0  0  0  0  0  0
   22.0505   41.5505  -10.0556 H   0  0  0  0  0  0  0  0  0  0  0  0
   22.8600   41.2891  -11.5855 H   0  0  0  0  0  0  0  0  0  0  0  0
   21.5649   39.1517  -11.8727 H   0  0  0  0  0  0  0  0  0  0  0  0
   19.5188   40.2618  -12.6961 H   0  0  0  0  0  0  0  0  0  0  0  0
   20.8982   41.3045  -12.9691 H   0  0  0  0  0  0  0  0  0  0  0  0
   19.7997   41.6352  -11.6304 H   0  0  0  0  0  0  0  0  0  0  0  0
   18.9076   38.4364  -11.5315 H   0  0  0  0  0  0  0  0  0  0  0  0
   17.4786   37.4373   -9.7843 H   0  0  0  0  0  0  0  0  0  0  0  0
   18.0242   37.7573   -7.3854 H   0  0  0  0  0  0  0  0  0  0  0  0
   19.4845   38.6062   -5.6798 H   0  0  0  0  0  0  0  0  0  0  0  0
   21.1805   38.7819   -6.1529 H   0  0  0  0  0  0  0  0  0  0  0  0
   20.2444   41.0853   -6.8953 H   0  0  0  0  0  0  0  0  0  0  0  0
   20.8176   40.4837   -4.0870 H   0  0  0  0  0  0  0  0  0  0  0  0
   21.9994   40.9520   -5.2926 H   0  0  0  0  0  0  0  0  0  0  0  0
   21.2593   43.7882   -3.2437 H   0  0  0  0  0  0  0  0  0  0  0  0
   22.2939   42.5466   -7.0653 H   0  0  0  0  0  0  0  0  0  0  0  0
   22.0566   44.1830   -7.5137 H   0  0  0  0  0  0  0  0  0  0  0  0
   23.1615   46.0952   -5.9777 H   0  0  0  0  0  0  0  0  0  0  0  0
   24.4070   45.5815   -4.8411 H   0  0  0  0  0  0  0  0  0  0  0  0
   22.7168   45.3692   -4.4393 H   0  0  0  0  0  0  0  0  0  0  0  0
   25.5824   43.6501   -6.2386 H   0  0  0  0  0  0  0  0  0  0  0  0
   24.5822   42.8090   -7.3766 H   0  0  0  0  0  0  0  0  0  0  0  0
   23.9490   45.3348   -8.1626 H   0  0  0  0  0  0  0  0  0  0  0  0
   25.4294   45.7093   -7.3373 H   0  0  0  0  0  0  0  0  0  0  0  0
   26.2903   45.3241   -9.4552 H   0  0  0  0  0  0  0  0  0  0  0  0
   26.4372   43.7210   -8.8049 H   0  0  0  0  0  0  0  0  0  0  0  0
   25.4141   43.3224  -10.8903 H   0  0  0  0  0  0  0  0  0  0  0  0
   24.0481   43.2987   -9.8148 H   0  0  0  0  0  0  0  0  0  0  0  0
   23.7936   45.8642  -10.4197 H   0  0  0  0  0  0  0  0  0  0  0  0
   24.9890   45.5628  -11.6386 H   0  0  0  0  0  0  0  0  0  0  0  0
   22.9660   45.3532  -12.8371 H   0  0  0  0  0  0  0  0  0  0  0  0
   23.4473   43.7072  -12.5480 H   0  0  0  0  0  0  0  0  0  0  0  0
   21.1374   43.7031  -12.0303 H   0  0  0  0  0  0  0  0  0  0  0  0
   21.9106   43.7571  -10.4692 H   0  0  0  0  0  0  0  0  0  0  0  0
   21.5931   46.3819  -10.6542 H   0  0  0  0  0  0  0  0  0  0  0  0
   20.4505   45.9967  -11.9111 H   0  0  0  0  0  0  0  0  0  0  0  0
   21.0851   46.1102   -8.3272 H   0  0  0  0  0  0  0  0  0  0  0  0
   17.2020   44.4795   -7.3391 H   0  0  0  0  0  0  0  0  0  0  0  0
   16.9037   43.9835   -9.7728 H   0  0  0  0  0  0  0  0  0  0  0  0
   20.5278   45.1706   -4.5774 H   0  0  0  0  0  0  0  0  0  0  0  0
   21.5337   40.0004   -8.4828 H   0  0  0  0  0  0  0  0  0  0  0  0
   19.0992   40.7830   -5.7546 H   0  0  0  0  0  0  0  0  0  0  0  0
  1  2  1  0  0  0  0
  1 39  1  0  0  0  0
  1 40  1  0  0  0  0
  1 41  1  0  0  0  0
  2  3  1  0  0  0  0
  2  4  1  0  0  0  0
  2 42  1  0  0  0  0
  3 43  1  0  0  0  0
  3 44  1  0  0  0  0
  3 45  1  0  0  0  0
  4 35  1  0  0  0  0
  4  5  2  0  0  0  0
  5  6  1  0  0  0  0
  5 46  1  0  0  0  0
  6  7  2  0  0  0  0
  6 47  1  0  0  0  0
  7  8  1  0  0  0  0
  7 48  1  0  0  0  0
  8  9  1  0  0  0  0
  8 35  2  0  0  0  0
  9 10  1  0  0  0  0
  9 49  1  0  0  0  0
  9 50  1  0  0  0  0
 10 11  1  0  0  0  0
 10 51  1  0  0  0  0
 10 81  1  0  0  0  0
 11 12  1  0  0  0  0
 11 52  1  0  0  0  0
 11 53  1  0  0  0  0
 12 36  1  1  0  0  0
 12 13  1  0  0  0  0
 12 14  1  0  0  0  0
 13 54  1  0  0  0  0
 14 37  1  6  0  0  0
 14 34  1  0  0  0  0
 14 15  1  0  0  0  0
 15 16  1  0  0  0  0
 15 55  1  0  0  0  0
 15 56  1  0  0  0  0
 16 38  1  1  0  0  0
 16 17  1  0  0  0  0
 16 18  1  0  0  0  0
 17 57  1  0  0  0  0
 17 58  1  0  0  0  0
 17 59  1  0  0  0  0
 18 19  1  0  0  0  0
 18 60  1  0  0  0  0
 18 61  1  0  0  0  0
 19 20  1  0  0  0  0
 19 62  1  0  0  0  0
 19 63  1  0  0  0  0
 20 21  1  0  0  0  0
 20 64  1  0  0  0  0
 20 65  1  0  0  0  0
 21 22  1  0  0  0  0
 21 66  1  0  0  0  0
 21 67  1  0  0  0  0
 22 23  1  0  0  0  0
 22 68  1  0  0  0  0
 22 69  1  0  0  0  0
 23 24  1  0  0  0  0
 23 70  1  0  0  0  0
 23 71  1  0  0  0  0
 24 25  1  0  0  0  0
 24 72  1  0  0  0  0
 24 73  1  0  0  0  0
 25 26  1  0  0  0  0
 25 74  1  0  0  0  0
 25 75  1  0  0  0  0
 26 31  1  0  0  0  0
 26 27  2  0  0  0  0
 27 28  1  0  0  0  0
 27 76  1  0  0  0  0
 28 29  2  0  0  0  0
 28 32  1  0  0  0  0
 29 30  1  0  0  0  0
 29 77  1  0  0  0  0
 30 31  2  0  0  0  0
 30 78  1  0  0  0  0
 32 33  2  0  0  0  0
 32 34  1  0  0  0  0
 34 79  1  0  0  0  0
 35 80  1  0  0  0  0
M  CHG  1  10   1
M  END
