BACE_38.smi:1
 OpenBabel09301811243D
Structure written by MMmdl.
 90 92  0  0  1  0  0  0  0  0999 V2000
   16.6886   43.6497  -10.5694 C   0  0  0  0  0  0  0  0  0  0  0  0
   16.9734   44.3580   -9.2345 C   0  0  2  0  0  0  0  0  0  0  0  0
   16.4379   45.8019   -9.2395 C   0  0  0  0  0  0  0  0  0  0  0  0
   17.2621   46.8009  -10.0685 C   0  0  0  0  0  0  0  0  0  0  0  0
   16.6396   48.1950  -10.0207 C   0  0  0  0  0  0  0  0  0  0  0  0
   17.5233   49.2761  -10.6514 C   0  0  0  0  0  0  0  0  0  0  0  0
   16.9489   50.6918  -10.4621 C   0  0  0  0  0  0  0  0  0  0  0  0
   17.8979   51.8314  -10.8771 C   0  0  0  0  0  0  0  0  0  0  0  0
   18.8824   52.3188   -9.7911 C   0  0  0  0  0  0  0  0  0  0  0  0
   20.0540   51.3652   -9.4887 C   0  0  0  0  0  0  0  0  0  0  0  0
   19.8842   50.5116   -7.8555 S   0  0  0  0  0  0  0  0  0  0  0  0
   18.4756   50.1494   -7.6409 O   0  0  0  0  0  0  0  0  0  0  0  0
   20.5700   51.3499   -6.8577 O   0  0  0  0  0  0  0  0  0  0  0  0
   20.8817   48.9776   -8.1430 C   0  0  0  0  0  0  0  0  0  0  0  0
   20.9371   47.9797   -6.9588 C   0  0  1  0  0  0  0  0  0  0  0  0
   21.2258   48.6251   -5.5914 C   0  0  0  0  0  0  0  0  0  0  0  0
   19.6999   47.0649   -6.9051 C   0  0  0  0  0  0  0  0  0  0  0  0
   18.6980   47.4123   -6.2773 O   0  0  0  0  0  0  0  0  0  0  0  0
   19.8092   45.8737   -7.5236 N   0  0  0  0  0  0  0  0  0  0  0  0
   18.8304   44.7827   -7.4424 C   0  0  1  0  0  0  0  0  0  0  0  0
   18.4649   44.2428   -8.8527 C   0  0  0  0  0  0  0  0  0  0  0  0
   19.3061   43.6738   -6.4730 C   0  0  2  0  0  0  0  0  0  0  0  0
   19.6602   44.2565   -5.2398 O   0  0  0  0  0  0  0  0  0  0  0  0
   20.5188   42.8322   -6.8988 C   0  0  0  0  0  0  0  0  0  0  0  0
   20.4753   41.5452   -6.1999 N   0  0  0  0  0  0  0  0  0  0  0  0
   21.2938   40.4918   -6.7921 C   0  0  0  0  0  0  0  0  0  0  0  0
   22.0647   39.6194   -5.8307 C   0  0  0  0  0  0  0  0  0  0  0  0
   22.7943   40.6113   -6.7131 C   0  0  0  0  0  0  0  0  0  0  0  0
   20.6560   39.9079   -8.0203 C   0  0  0  0  0  0  0  0  0  0  0  0
   20.9472   40.4571   -9.2870 C   0  0  0  0  0  0  0  0  0  0  0  0
   20.2977   40.0054  -10.4597 C   0  0  0  0  0  0  0  0  0  0  0  0
   19.3715   38.9413  -10.3388 C   0  0  0  0  0  0  0  0  0  0  0  0
   19.0916   38.3660   -9.0832 C   0  0  0  0  0  0  0  0  0  0  0  0
   19.7260   38.8542   -7.9263 C   0  0  0  0  0  0  0  0  0  0  0  0
   20.5359   40.6606  -11.8331 C   0  0  0  0  0  0  0  0  0  0  0  0
   21.0336   39.6189  -12.8460 C   0  0  0  0  0  0  0  0  0  0  0  0
   19.2226   41.2862  -12.3362 C   0  0  0  0  0  0  0  0  0  0  0  0
   21.6041   41.7759  -11.7935 C   0  0  0  0  0  0  0  0  0  0  0  0
   16.4050   43.8137   -8.4774 H   0  0  0  0  0  0  0  0  0  0  0  0
   21.7844   47.3251   -7.1611 H   0  0  0  0  0  0  0  0  0  0  0  0
   17.9181   45.1673   -6.9878 H   0  0  0  0  0  0  0  0  0  0  0  0
   18.4581   43.0065   -6.3281 H   0  0  0  0  0  0  0  0  0  0  0  0
   15.6304   43.7005  -10.8299 H   0  0  0  0  0  0  0  0  0  0  0  0
   16.9511   42.5918  -10.5072 H   0  0  0  0  0  0  0  0  0  0  0  0
   17.2601   44.0881  -11.3889 H   0  0  0  0  0  0  0  0  0  0  0  0
   16.3749   46.1689   -8.2140 H   0  0  0  0  0  0  0  0  0  0  0  0
   15.4087   45.7939   -9.5982 H   0  0  0  0  0  0  0  0  0  0  0  0
   18.2759   46.8587   -9.6783 H   0  0  0  0  0  0  0  0  0  0  0  0
   17.3416   46.4683  -11.1028 H   0  0  0  0  0  0  0  0  0  0  0  0
   15.6715   48.1502  -10.5152 H   0  0  0  0  0  0  0  0  0  0  0  0
   16.4598   48.4629   -8.9782 H   0  0  0  0  0  0  0  0  0  0  0  0
   17.6707   49.0695  -11.7131 H   0  0  0  0  0  0  0  0  0  0  0  0
   18.5036   49.2077  -10.1910 H   0  0  0  0  0  0  0  0  0  0  0  0
   16.6287   50.8428   -9.4301 H   0  0  0  0  0  0  0  0  0  0  0  0
   16.0448   50.7644  -11.0668 H   0  0  0  0  0  0  0  0  0  0  0  0
   17.2770   52.6868  -11.1472 H   0  0  0  0  0  0  0  0  0  0  0  0
   18.4339   51.5683  -11.7907 H   0  0  0  0  0  0  0  0  0  0  0  0
   18.3472   52.5773   -8.8771 H   0  0  0  0  0  0  0  0  0  0  0  0
   19.3068   53.2608  -10.1423 H   0  0  0  0  0  0  0  0  0  0  0  0
   20.9890   51.9218   -9.4574 H   0  0  0  0  0  0  0  0  0  0  0  0
   20.1725   50.6246  -10.2789 H   0  0  0  0  0  0  0  0  0  0  0  0
   21.8919   49.2974   -8.3964 H   0  0  0  0  0  0  0  0  0  0  0  0
   20.4827   48.4841   -9.0284 H   0  0  0  0  0  0  0  0  0  0  0  0
   20.3916   49.2310   -5.2327 H   0  0  0  0  0  0  0  0  0  0  0  0
   22.1106   49.2599   -5.6352 H   0  0  0  0  0  0  0  0  0  0  0  0
   21.4177   47.8589   -4.8404 H   0  0  0  0  0  0  0  0  0  0  0  0
   20.6776   45.6630   -7.9898 H   0  0  0  0  0  0  0  0  0  0  0  0
   19.0862   44.7099   -9.6176 H   0  0  0  0  0  0  0  0  0  0  0  0
   18.7061   43.1823   -8.9192 H   0  0  0  0  0  0  0  0  0  0  0  0
   19.9684   43.5569   -4.6786 H   0  0  0  0  0  0  0  0  0  0  0  0
   21.4590   43.3523   -6.7113 H   0  0  0  0  0  0  0  0  0  0  0  0
   20.4847   42.6682   -7.9710 H   0  0  0  0  0  0  0  0  0  0  0  0
   19.5076   41.2305   -6.1448 H   0  0  0  0  0  0  0  0  0  0  0  0
   22.0153   39.8527   -4.7698 H   0  0  0  0  0  0  0  0  0  0  0  0
   22.1549   38.5604   -6.0629 H   0  0  0  0  0  0  0  0  0  0  0  0
   23.3862   40.2020   -7.5306 H   0  0  0  0  0  0  0  0  0  0  0  0
   23.1918   41.5112   -6.2470 H   0  0  0  0  0  0  0  0  0  0  0  0
   21.6600   41.2650   -9.3242 H   0  0  0  0  0  0  0  0  0  0  0  0
   18.8500   38.5661  -11.2065 H   0  0  0  0  0  0  0  0  0  0  0  0
   18.3739   37.5640   -9.0034 H   0  0  0  0  0  0  0  0  0  0  0  0
   19.4863   38.4255   -6.9623 H   0  0  0  0  0  0  0  0  0  0  0  0
   22.0598   39.3501  -12.6331 H   0  0  0  0  0  0  0  0  0  0  0  0
   21.0118   40.0104  -13.8600 H   0  0  0  0  0  0  0  0  0  0  0  0
   20.4598   38.6981  -12.8391 H   0  0  0  0  0  0  0  0  0  0  0  0
   18.8721   42.0506  -11.6418 H   0  0  0  0  0  0  0  0  0  0  0  0
   18.4296   40.5459  -12.4385 H   0  0  0  0  0  0  0  0  0  0  0  0
   19.3503   41.7607  -13.3085 H   0  0  0  0  0  0  0  0  0  0  0  0
   21.2920   42.6216  -11.1799 H   0  0  0  0  0  0  0  0  0  0  0  0
   21.8098   42.1502  -12.7957 H   0  0  0  0  0  0  0  0  0  0  0  0
   22.5543   41.4084  -11.4054 H   0  0  0  0  0  0  0  0  0  0  0  0
  1  2  1  0  0  0  0
  1 43  1  0  0  0  0
  1 44  1  0  0  0  0
  1 45  1  0  0  0  0
  2 39  1  1  0  0  0
  2 21  1  0  0  0  0
  2  3  1  0  0  0  0
  3  4  1  0  0  0  0
  3 46  1  0  0  0  0
  3 47  1  0  0  0  0
  4  5  1  0  0  0  0
  4 48  1  0  0  0  0
  4 49  1  0  0  0  0
  5  6  1  0  0  0  0
  5 50  1  0  0  0  0
  5 51  1  0  0  0  0
  6  7  1  0  0  0  0
  6 52  1  0  0  0  0
  6 53  1  0  0  0  0
  7  8  1  0  0  0  0
  7 54  1  0  0  0  0
  7 55  1  0  0  0  0
  8  9  1  0  0  0  0
  8 56  1  0  0  0  0
  8 57  1  0  0  0  0
  9 10  1  0  0  0  0
  9 58  1  0  0  0  0
  9 59  1  0  0  0  0
 10 11  1  0  0  0  0
 10 60  1  0  0  0  0
 10 61  1  0  0  0  0
 11 12  2  0  0  0  0
 11 13  2  0  0  0  0
 11 14  1  0  0  0  0
 14 15  1  0  0  0  0
 14 62  1  0  0  0  0
 14 63  1  0  0  0  0
 15 40  1  6  0  0  0
 15 16  1  0  0  0  0
 15 17  1  0  0  0  0
 16 64  1  0  0  0  0
 16 65  1  0  0  0  0
 16 66  1  0  0  0  0
 17 18  2  0  0  0  0
 17 19  1  0  0  0  0
 19 20  1  0  0  0  0
 19 67  1  0  0  0  0
 20 41  1  1  0  0  0
 20 21  1  0  0  0  0
 20 22  1  0  0  0  0
 21 68  1  0  0  0  0
 21 69  1  0  0  0  0
 22 42  1  1  0  0  0
 22 23  1  0  0  0  0
 22 24  1  0  0  0  0
 23 70  1  0  0  0  0
 24 25  1  0  0  0  0
 24 71  1  0  0  0  0
 24 72  1  0  0  0  0
 25 26  1  0  0  0  0
 25 73  1  0  0  0  0
 26 28  1  0  0  0  0
 26 27  1  0  0  0  0
 26 29  1  0  0  0  0
 27 28  1  0  0  0  0
 27 74  1  0  0  0  0
 27 75  1  0  0  0  0
 28 76  1  0  0  0  0
 28 77  1  0  0  0  0
 29 34  1  0  0  0  0
 29 30  2  0  0  0  0
 30 31  1  0  0  0  0
 30 78  1  0  0  0  0
 31 32  2  0  0  0  0
 31 35  1  0  0  0  0
 32 33  1  0  0  0  0
 32 79  1  0  0  0  0
 33 34  2  0  0  0  0
 33 80  1  0  0  0  0
 34 81  1  0  0  0  0
 35 36  1  0  0  0  0
 35 37  1  0  0  0  0
 35 38  1  0  0  0  0
 36 82  1  0  0  0  0
 36 83  1  0  0  0  0
 36 84  1  0  0  0  0
 37 85  1  0  0  0  0
 37 86  1  0  0  0  0
 37 87  1  0  0  0  0
 38 88  1  0  0  0  0
 38 89  1  0  0  0  0
 38 90  1  0  0  0  0
M  END
