BACE_107.smi:1
 OpenBabel09301811243D
Structure written by MMmdl.
 84 87  0  0  1  0  0  0  0  0999 V2000
   25.6355   43.9864   -7.8468 C   0  0  0  0  0  0  0  0  0  0  0  0
   24.7457   43.1532   -8.7870 C   0  0  0  0  0  0  0  0  0  0  0  0
   23.9554   44.0525   -9.7461 C   0  0  0  0  0  0  0  0  0  0  0  0
   23.8193   42.1973   -8.0412 C   0  0  0  0  0  0  0  0  0  0  0  0
   23.6595   40.8805   -8.5138 C   0  0  0  0  0  0  0  0  0  0  0  0
   22.8290   39.9801   -7.8275 C   0  0  0  0  0  0  0  0  0  0  0  0
   22.1286   40.3956   -6.6801 C   0  0  0  0  0  0  0  0  0  0  0  0
   22.2551   41.7200   -6.1916 C   0  0  0  0  0  0  0  0  0  0  0  0
   23.1234   42.6018   -6.8830 C   0  0  0  0  0  0  0  0  0  0  0  0
   21.4763   42.2054   -4.9480 C   0  0  0  0  0  0  0  0  0  0  0  0
   20.9551   41.0232   -4.0966 C   0  0  0  0  0  0  0  0  0  0  0  0
   22.3733   43.0395   -3.9998 C   0  0  0  0  0  0  0  0  0  0  0  0
   20.2745   42.9724   -5.3781 N   0  3  0  0  0  0  0  0  0  0  0  0
   20.4674   44.3086   -5.9993 C   0  0  0  0  0  0  0  0  0  0  0  0
   19.1434   44.9417   -6.4828 C   0  0  1  0  0  0  0  0  0  0  0  0
   19.3932   46.3077   -6.7370 O   0  0  0  0  0  0  0  0  0  0  0  0
   18.4221   44.3333   -7.7291 C   0  0  2  0  0  0  0  0  0  0  0  0
   16.9242   44.1157   -7.4356 C   0  0  0  0  0  0  0  0  0  0  0  0
   16.1400   43.3740   -8.5069 C   0  0  0  0  0  0  0  0  0  0  0  0
   15.5706   44.0712   -9.5904 C   0  0  0  0  0  0  0  0  0  0  0  0
   14.8431   43.3765  -10.5768 C   0  0  0  0  0  0  0  0  0  0  0  0
   14.1166   44.2789  -11.8588 Cl  0  0  0  0  0  0  0  0  0  0  0  0
   14.7073   41.9695  -10.5054 C   0  0  0  0  0  0  0  0  0  0  0  0
   14.0600   41.2902  -11.5017 O   0  0  0  0  0  0  0  0  0  0  0  0
   15.2582   41.2706   -9.4062 C   0  0  0  0  0  0  0  0  0  0  0  0
   15.2112   39.7515   -9.3017 C   0  0  0  0  0  0  0  0  0  0  0  0
   16.5374   39.1668   -9.8109 C   0  0  0  0  0  0  0  0  0  0  0  0
   16.8981   37.7708   -9.2792 C   0  0  0  0  0  0  0  0  0  0  0  0
   18.3290   37.3267   -9.6568 C   0  0  0  0  0  0  0  0  0  0  0  0
   19.3170   38.0928   -8.9658 O   0  0  0  0  0  0  0  0  0  0  0  0
   19.8175   39.1959   -9.6186 C   0  0  0  0  0  0  0  0  0  0  0  0
   19.7610   40.4444   -8.9715 C   0  0  0  0  0  0  0  0  0  0  0  0
   20.1570   41.5986   -9.6827 C   0  0  0  0  0  0  0  0  0  0  0  0
   20.6732   41.4364  -10.9827 C   0  0  0  0  0  0  0  0  0  0  0  0
   20.7244   40.1403  -11.5300 C   0  0  0  0  0  0  0  0  0  0  0  0
   21.2340   39.9415  -12.9385 C   0  0  0  0  0  0  0  0  0  0  0  0
   20.2931   39.0401  -10.8757 N   0  0  0  0  0  0  0  0  0  0  0  0
   19.9955   42.9671   -9.0971 C   0  0  0  0  0  0  0  0  0  0  0  0
   20.6677   43.9236   -9.4789 O   0  0  0  0  0  0  0  0  0  0  0  0
   18.9992   43.0811   -8.2069 N   0  0  0  0  0  0  0  0  0  0  0  0
   15.9539   41.9820   -8.4062 C   0  0  0  0  0  0  0  0  0  0  0  0
   18.4600   44.9558   -5.6401 H   0  0  0  0  0  0  0  0  0  0  0  0
   18.4762   45.0389   -8.5618 H   0  0  0  0  0  0  0  0  0  0  0  0
   26.1736   43.3530   -7.1428 H   0  0  0  0  0  0  0  0  0  0  0  0
   25.0583   44.7065   -7.2684 H   0  0  0  0  0  0  0  0  0  0  0  0
   26.3767   44.5490   -8.4149 H   0  0  0  0  0  0  0  0  0  0  0  0
   25.4181   42.5414   -9.3924 H   0  0  0  0  0  0  0  0  0  0  0  0
   23.3695   43.4583  -10.4495 H   0  0  0  0  0  0  0  0  0  0  0  0
   24.6241   44.6848  -10.3288 H   0  0  0  0  0  0  0  0  0  0  0  0
   23.2704   44.7031   -9.2051 H   0  0  0  0  0  0  0  0  0  0  0  0
   24.1806   40.5509   -9.4016 H   0  0  0  0  0  0  0  0  0  0  0  0
   22.7210   38.9698   -8.1942 H   0  0  0  0  0  0  0  0  0  0  0  0
   21.4911   39.6665   -6.2031 H   0  0  0  0  0  0  0  0  0  0  0  0
   23.2588   43.6126   -6.5370 H   0  0  0  0  0  0  0  0  0  0  0  0
   21.7662   40.3604   -3.7908 H   0  0  0  0  0  0  0  0  0  0  0  0
   20.2144   40.4225   -4.6260 H   0  0  0  0  0  0  0  0  0  0  0  0
   20.4670   41.3714   -3.1841 H   0  0  0  0  0  0  0  0  0  0  0  0
   23.2317   42.4558   -3.6602 H   0  0  0  0  0  0  0  0  0  0  0  0
   21.8258   43.3481   -3.1082 H   0  0  0  0  0  0  0  0  0  0  0  0
   22.7711   43.9458   -4.4526 H   0  0  0  0  0  0  0  0  0  0  0  0
   19.7643   42.3865   -6.0247 H   0  0  0  0  0  0  0  0  0  0  0  0
   20.9018   44.9661   -5.2448 H   0  0  0  0  0  0  0  0  0  0  0  0
   21.1693   44.2829   -6.8241 H   0  0  0  0  0  0  0  0  0  0  0  0
   19.9482   46.3808   -7.5026 H   0  0  0  0  0  0  0  0  0  0  0  0
   16.8608   43.5250   -6.5226 H   0  0  0  0  0  0  0  0  0  0  0  0
   16.4351   45.0698   -7.2400 H   0  0  0  0  0  0  0  0  0  0  0  0
   15.6857   45.1413   -9.6646 H   0  0  0  0  0  0  0  0  0  0  0  0
   13.4808   40.6214  -11.1505 H   0  0  0  0  0  0  0  0  0  0  0  0
   15.0594   39.4872   -8.2531 H   0  0  0  0  0  0  0  0  0  0  0  0
   14.3637   39.3318   -9.8430 H   0  0  0  0  0  0  0  0  0  0  0  0
   16.5702   39.1934  -10.8987 H   0  0  0  0  0  0  0  0  0  0  0  0
   17.3138   39.8467   -9.4805 H   0  0  0  0  0  0  0  0  0  0  0  0
   16.7919   37.7465   -8.1923 H   0  0  0  0  0  0  0  0  0  0  0  0
   16.1818   37.0487   -9.6736 H   0  0  0  0  0  0  0  0  0  0  0  0
   18.4599   36.2858   -9.3648 H   0  0  0  0  0  0  0  0  0  0  0  0
   18.4597   37.3499  -10.7366 H   0  0  0  0  0  0  0  0  0  0  0  0
   19.3640   40.4913   -7.9690 H   0  0  0  0  0  0  0  0  0  0  0  0
   21.0030   42.2889  -11.5597 H   0  0  0  0  0  0  0  0  0  0  0  0
   21.9995   40.6795  -13.1730 H   0  0  0  0  0  0  0  0  0  0  0  0
   20.4177   40.0749  -13.6434 H   0  0  0  0  0  0  0  0  0  0  0  0
   21.6598   38.9487  -13.0772 H   0  0  0  0  0  0  0  0  0  0  0  0
   18.4661   42.2422   -8.0276 H   0  0  0  0  0  0  0  0  0  0  0  0
   16.3724   41.4443   -7.5670 H   0  0  0  0  0  0  0  0  0  0  0  0
   19.6929   43.0882   -4.5618 H   0  0  0  0  0  0  0  0  0  0  0  0
  1  2  1  0  0  0  0
  1 44  1  0  0  0  0
  1 45  1  0  0  0  0
  1 46  1  0  0  0  0
  2  3  1  0  0  0  0
  2  4  1  0  0  0  0
  2 47  1  0  0  0  0
  3 48  1  0  0  0  0
  3 49  1  0  0  0  0
  3 50  1  0  0  0  0
  4  9  1  0  0  0  0
  4  5  2  0  0  0  0
  5  6  1  0  0  0  0
  5 51  1  0  0  0  0
  6  7  2  0  0  0  0
  6 52  1  0  0  0  0
  7  8  1  0  0  0  0
  7 53  1  0  0  0  0
  8  9  2  0  0  0  0
  8 10  1  0  0  0  0
  9 54  1  0  0  0  0
 10 11  1  0  0  0  0
 10 12  1  0  0  0  0
 10 13  1  0  0  0  0
 11 55  1  0  0  0  0
 11 56  1  0  0  0  0
 11 57  1  0  0  0  0
 12 58  1  0  0  0  0
 12 59  1  0  0  0  0
 12 60  1  0  0  0  0
 13 14  1  0  0  0  0
 13 61  1  0  0  0  0
 13 84  1  0  0  0  0
 14 15  1  0  0  0  0
 14 62  1  0  0  0  0
 14 63  1  0  0  0  0
 15 42  1  1  0  0  0
 15 16  1  0  0  0  0
 15 17  1  0  0  0  0
 16 64  1  0  0  0  0
 17 43  1  6  0  0  0
 17 40  1  0  0  0  0
 17 18  1  0  0  0  0
 18 19  1  0  0  0  0
 18 65  1  0  0  0  0
 18 66  1  0  0  0  0
 19 41  1  0  0  0  0
 19 20  2  0  0  0  0
 20 21  1  0  0  0  0
 20 67  1  0  0  0  0
 21 22  1  0  0  0  0
 21 23  2  0  0  0  0
 23 24  1  0  0  0  0
 23 25  1  0  0  0  0
 24 68  1  0  0  0  0
 25 26  1  0  0  0  0
 25 41  2  0  0  0  0
 26 27  1  0  0  0  0
 26 69  1  0  0  0  0
 26 70  1  0  0  0  0
 27 28  1  0  0  0  0
 27 71  1  0  0  0  0
 27 72  1  0  0  0  0
 28 29  1  0  0  0  0
 28 73  1  0  0  0  0
 28 74  1  0  0  0  0
 29 30  1  0  0  0  0
 29 75  1  0  0  0  0
 29 76  1  0  0  0  0
 30 31  1  0  0  0  0
 31 37  1  0  0  0  0
 31 32  2  0  0  0  0
 32 33  1  0  0  0  0
 32 77  1  0  0  0  0
 33 34  2  0  0  0  0
 33 38  1  0  0  0  0
 34 35  1  0  0  0  0
 34 78  1  0  0  0  0
 35 36  1  0  0  0  0
 35 37  2  0  0  0  0
 36 79  1  0  0  0  0
 36 80  1  0  0  0  0
 36 81  1  0  0  0  0
 38 39  2  0  0  0  0
 38 40  1  0  0  0  0
 40 82  1  0  0  0  0
 41 83  1  0  0  0  0
M  CHG  1  13   1
M  END
