BACE_69.smi:1
 OpenBabel09301811243D
Structure written by MMmdl.
 98100  0  0  1  0  0  0  0  0999 V2000
   23.3762   41.7850  -10.8416 C   0  0  0  0  0  0  0  0  0  0  0  0
   21.9542   41.5446  -11.3747 C   0  0  0  0  0  0  0  0  0  0  0  0
   21.1435   42.8490  -11.4280 C   0  0  0  0  0  0  0  0  0  0  0  0
   21.2210   40.4714  -10.5797 C   0  0  0  0  0  0  0  0  0  0  0  0
   21.3202   40.4312   -9.1728 C   0  0  0  0  0  0  0  0  0  0  0  0
   20.6250   39.4556   -8.4305 C   0  0  0  0  0  0  0  0  0  0  0  0
   20.7269   39.4511   -6.9197 C   0  0  0  0  0  0  0  0  0  0  0  0
   20.0600   40.6444   -6.3674 N   0  3  0  0  0  0  0  0  0  0  0  0
   20.5290   41.9227   -6.9359 C   0  0  0  0  0  0  0  0  0  0  0  0
   19.8591   43.1157   -6.2288 C   0  0  1  0  0  0  0  0  0  0  0  0
   20.1065   42.9949   -4.8405 O   0  0  0  0  0  0  0  0  0  0  0  0
   20.3636   44.4850   -6.7535 C   0  0  2  0  0  0  0  0  0  0  0  0
   21.9101   44.5920   -6.8414 C   0  0  0  0  0  0  0  0  0  0  0  0
   22.5027   45.7500   -7.6847 C   0  0  2  0  0  0  0  0  0  0  0  0
   22.2787   47.1412   -7.0650 C   0  0  0  0  0  0  0  0  0  0  0  0
   22.0745   45.6841   -9.1668 C   0  0  0  0  0  0  0  0  0  0  0  0
   22.9243   46.5709  -10.0985 C   0  0  0  0  0  0  0  0  0  0  0  0
   22.6279   46.3789  -11.5984 C   0  0  0  0  0  0  0  0  0  0  0  0
   21.5684   47.3264  -12.1918 C   0  0  0  0  0  0  0  0  0  0  0  0
   20.1441   47.1077  -11.6613 C   0  0  0  0  0  0  0  0  0  0  0  0
   19.0873   47.8913  -12.4556 C   0  0  0  0  0  0  0  0  0  0  0  0
   17.6468   47.6232  -11.9823 C   0  0  0  0  0  0  0  0  0  0  0  0
   17.3881   48.0952  -10.6156 N   0  0  0  0  0  0  0  0  0  0  0  0
   17.3164   47.0837   -9.6404 C   0  0  0  0  0  0  0  0  0  0  0  0
   18.0628   47.2187   -8.4512 C   0  0  0  0  0  0  0  0  0  0  0  0
   18.0183   46.2236   -7.4558 C   0  0  0  0  0  0  0  0  0  0  0  0
   17.1962   45.0917   -7.6383 C   0  0  0  0  0  0  0  0  0  0  0  0
   16.4253   44.9432   -8.8145 C   0  0  0  0  0  0  0  0  0  0  0  0
   16.4958   45.9449   -9.8069 C   0  0  0  0  0  0  0  0  0  0  0  0
   15.5869   43.8293   -9.0093 N   0  0  0  0  0  0  0  0  0  0  0  0
   16.0935   42.5788   -8.4562 C   0  0  0  0  0  0  0  0  0  0  0  0
   14.1232   43.7948   -9.9610 S   0  0  0  0  0  0  0  0  0  0  0  0
   13.7986   41.9989  -10.2090 C   0  0  0  0  0  0  0  0  0  0  0  0
   13.0610   44.3521   -9.1095 O   0  0  0  0  0  0  0  0  0  0  0  0
   14.4621   44.4143  -11.2511 O   0  0  0  0  0  0  0  0  0  0  0  0
   18.8044   46.4086   -6.1923 C   0  0  0  0  0  0  0  0  0  0  0  0
   18.5359   47.3425   -5.4410 O   0  0  0  0  0  0  0  0  0  0  0  0
   19.8082   45.5536   -5.9194 N   0  0  0  0  0  0  0  0  0  0  0  0
   17.4140   49.8079  -10.2598 S   0  0  0  0  0  0  0  0  0  0  0  0
   19.1200   50.3541  -10.6885 C   0  0  0  0  0  0  0  0  0  0  0  0
   16.4705   50.4271  -11.2031 O   0  0  0  0  0  0  0  0  0  0  0  0
   17.2098   49.9311   -8.8082 O   0  0  0  0  0  0  0  0  0  0  0  0
   19.8259   38.5065   -9.0999 C   0  0  0  0  0  0  0  0  0  0  0  0
   19.7279   38.5356  -10.5044 C   0  0  0  0  0  0  0  0  0  0  0  0
   20.4216   39.5150  -11.2421 C   0  0  0  0  0  0  0  0  0  0  0  0
   18.7821   43.0462   -6.3826 H   0  0  0  0  0  0  0  0  0  0  0  0
   19.9774   44.5914   -7.7657 H   0  0  0  0  0  0  0  0  0  0  0  0
   23.5810   45.5855   -7.6626 H   0  0  0  0  0  0  0  0  0  0  0  0
   23.9552   40.8608  -10.8413 H   0  0  0  0  0  0  0  0  0  0  0  0
   23.3692   42.1750   -9.8234 H   0  0  0  0  0  0  0  0  0  0  0  0
   23.9089   42.5051  -11.4633 H   0  0  0  0  0  0  0  0  0  0  0  0
   22.0553   41.1854  -12.3999 H   0  0  0  0  0  0  0  0  0  0  0  0
   20.1645   42.6824  -11.8781 H   0  0  0  0  0  0  0  0  0  0  0  0
   21.6548   43.6053  -12.0243 H   0  0  0  0  0  0  0  0  0  0  0  0
   20.9847   43.2649  -10.4329 H   0  0  0  0  0  0  0  0  0  0  0  0
   21.9265   41.1590   -8.6573 H   0  0  0  0  0  0  0  0  0  0  0  0
   20.2734   38.5481   -6.5087 H   0  0  0  0  0  0  0  0  0  0  0  0
   21.7794   39.4452   -6.6328 H   0  0  0  0  0  0  0  0  0  0  0  0
   19.0703   40.5634   -6.5498 H   0  0  0  0  0  0  0  0  0  0  0  0
   21.6164   41.9806   -6.8706 H   0  0  0  0  0  0  0  0  0  0  0  0
   20.2745   41.9340   -7.9963 H   0  0  0  0  0  0  0  0  0  0  0  0
   19.5827   42.2845   -4.5011 H   0  0  0  0  0  0  0  0  0  0  0  0
   22.3277   44.6422   -5.8349 H   0  0  0  0  0  0  0  0  0  0  0  0
   22.2981   43.6636   -7.2605 H   0  0  0  0  0  0  0  0  0  0  0  0
   21.2604   47.4955   -7.2199 H   0  0  0  0  0  0  0  0  0  0  0  0
   22.9455   47.8810   -7.5078 H   0  0  0  0  0  0  0  0  0  0  0  0
   22.4765   47.1341   -5.9931 H   0  0  0  0  0  0  0  0  0  0  0  0
   22.1547   44.6514   -9.5079 H   0  0  0  0  0  0  0  0  0  0  0  0
   21.0227   45.9477   -9.2535 H   0  0  0  0  0  0  0  0  0  0  0  0
   22.8210   47.6236   -9.8345 H   0  0  0  0  0  0  0  0  0  0  0  0
   23.9732   46.3239   -9.9306 H   0  0  0  0  0  0  0  0  0  0  0  0
   23.5553   46.5589  -12.1433 H   0  0  0  0  0  0  0  0  0  0  0  0
   22.3686   45.3407  -11.8076 H   0  0  0  0  0  0  0  0  0  0  0  0
   21.8647   48.3631  -12.0275 H   0  0  0  0  0  0  0  0  0  0  0  0
   21.5640   47.1851  -13.2733 H   0  0  0  0  0  0  0  0  0  0  0  0
   19.9014   46.0448  -11.6862 H   0  0  0  0  0  0  0  0  0  0  0  0
   20.1018   47.4197  -10.6190 H   0  0  0  0  0  0  0  0  0  0  0  0
   19.3102   48.9573  -12.4208 H   0  0  0  0  0  0  0  0  0  0  0  0
   19.1582   47.6093  -13.5065 H   0  0  0  0  0  0  0  0  0  0  0  0
   16.9431   48.1069  -12.6583 H   0  0  0  0  0  0  0  0  0  0  0  0
   17.4539   46.5580  -12.1038 H   0  0  0  0  0  0  0  0  0  0  0  0
   18.6869   48.0886   -8.3037 H   0  0  0  0  0  0  0  0  0  0  0  0
   17.1317   44.3531   -6.8542 H   0  0  0  0  0  0  0  0  0  0  0  0
   15.9009   45.8435  -10.7026 H   0  0  0  0  0  0  0  0  0  0  0  0
   17.1830   42.5393   -8.4629 H   0  0  0  0  0  0  0  0  0  0  0  0
   15.7462   41.7360   -9.0525 H   0  0  0  0  0  0  0  0  0  0  0  0
   15.7427   42.4409   -7.4332 H   0  0  0  0  0  0  0  0  0  0  0  0
   12.8433   41.8768  -10.7191 H   0  0  0  0  0  0  0  0  0  0  0  0
   13.7556   41.4971   -9.2425 H   0  0  0  0  0  0  0  0  0  0  0  0
   14.5830   41.5559  -10.8207 H   0  0  0  0  0  0  0  0  0  0  0  0
   20.2994   45.7197   -5.0527 H   0  0  0  0  0  0  0  0  0  0  0  0
   19.1900   51.4345  -10.5658 H   0  0  0  0  0  0  0  0  0  0  0  0
   19.3364   50.0962  -11.7251 H   0  0  0  0  0  0  0  0  0  0  0  0
   19.8433   49.8756  -10.0294 H   0  0  0  0  0  0  0  0  0  0  0  0
   19.2847   37.7569   -8.5412 H   0  0  0  0  0  0  0  0  0  0  0  0
   19.1152   37.8086  -11.0169 H   0  0  0  0  0  0  0  0  0  0  0  0
   20.3325   39.5296  -12.3186 H   0  0  0  0  0  0  0  0  0  0  0  0
   20.2011   40.6624   -5.3671 H   0  0  0  0  0  0  0  0  0  0  0  0
  1  2  1  0  0  0  0
  1 49  1  0  0  0  0
  1 50  1  0  0  0  0
  1 51  1  0  0  0  0
  2  3  1  0  0  0  0
  2  4  1  0  0  0  0
  2 52  1  0  0  0  0
  3 53  1  0  0  0  0
  3 54  1  0  0  0  0
  3 55  1  0  0  0  0
  4 45  1  0  0  0  0
  4  5  2  0  0  0  0
  5  6  1  0  0  0  0
  5 56  1  0  0  0  0
  6  7  1  0  0  0  0
  6 43  2  0  0  0  0
  7  8  1  0  0  0  0
  7 57  1  0  0  0  0
  7 58  1  0  0  0  0
  8  9  1  0  0  0  0
  8 59  1  0  0  0  0
  8 98  1  0  0  0  0
  9 10  1  0  0  0  0
  9 60  1  0  0  0  0
  9 61  1  0  0  0  0
 10 46  1  6  0  0  0
 10 11  1  0  0  0  0
 10 12  1  0  0  0  0
 11 62  1  0  0  0  0
 12 47  1  6  0  0  0
 12 38  1  0  0  0  0
 12 13  1  0  0  0  0
 13 14  1  0  0  0  0
 13 63  1  0  0  0  0
 13 64  1  0  0  0  0
 14 48  1  1  0  0  0
 14 15  1  0  0  0  0
 14 16  1  0  0  0  0
 15 65  1  0  0  0  0
 15 66  1  0  0  0  0
 15 67  1  0  0  0  0
 16 17  1  0  0  0  0
 16 68  1  0  0  0  0
 16 69  1  0  0  0  0
 17 18  1  0  0  0  0
 17 70  1  0  0  0  0
 17 71  1  0  0  0  0
 18 19  1  0  0  0  0
 18 72  1  0  0  0  0
 18 73  1  0  0  0  0
 19 20  1  0  0  0  0
 19 74  1  0  0  0  0
 19 75  1  0  0  0  0
 20 21  1  0  0  0  0
 20 76  1  0  0  0  0
 20 77  1  0  0  0  0
 21 22  1  0  0  0  0
 21 78  1  0  0  0  0
 21 79  1  0  0  0  0
 22 23  1  0  0  0  0
 22 80  1  0  0  0  0
 22 81  1  0  0  0  0
 23 24  1  0  0  0  0
 23 39  1  0  0  0  0
 24 29  1  0  0  0  0
 24 25  2  0  0  0  0
 25 26  1  0  0  0  0
 25 82  1  0  0  0  0
 26 27  2  0  0  0  0
 26 36  1  0  0  0  0
 27 28  1  0  0  0  0
 27 83  1  0  0  0  0
 28 29  2  0  0  0  0
 28 30  1  0  0  0  0
 29 84  1  0  0  0  0
 30 31  1  0  0  0  0
 30 32  1  0  0  0  0
 31 85  1  0  0  0  0
 31 86  1  0  0  0  0
 31 87  1  0  0  0  0
 32 33  1  0  0  0  0
 32 34  2  0  0  0  0
 32 35  2  0  0  0  0
 33 88  1  0  0  0  0
 33 89  1  0  0  0  0
 33 90  1  0  0  0  0
 36 37  2  0  0  0  0
 36 38  1  0  0  0  0
 38 91  1  0  0  0  0
 39 40  1  0  0  0  0
 39 41  2  0  0  0  0
 39 42  2  0  0  0  0
 40 92  1  0  0  0  0
 40 93  1  0  0  0  0
 40 94  1  0  0  0  0
 43 44  1  0  0  0  0
 43 95  1  0  0  0  0
 44 45  2  0  0  0  0
 44 96  1  0  0  0  0
 45 97  1  0  0  0  0
M  CHG  1   8   1
M  END
