BACE_150.smi:1
 OpenBabel09301811243D
Structure written by MMmdl.
 92 93  0  0  1  0  0  0  0  0999 V2000
   12.5651   44.1263   -8.2209 C   0  0  0  0  0  0  0  0  0  0  0  0
   12.9632   43.3333   -9.4718 C   0  0  0  0  0  0  0  0  0  0  0  0
   14.3719   42.7259   -9.3713 C   0  0  0  0  0  0  0  0  0  0  0  0
   14.7603   41.9135  -10.6197 C   0  0  0  0  0  0  0  0  0  0  0  0
   16.1899   41.6154  -10.6471 N   0  0  0  0  0  0  0  0  0  0  0  0
   17.1113   42.2281  -11.4125 C   0  0  0  0  0  0  0  0  0  0  0  0
   16.8369   43.1259  -12.2101 O   0  0  0  0  0  0  0  0  0  0  0  0
   18.5723   41.7587  -11.2704 C   0  0  2  0  0  0  0  0  0  0  0  0
   19.3941   42.1536  -12.5129 C   0  0  0  0  0  0  0  0  0  0  0  0
   18.7200   40.2478  -10.9316 C   0  0  0  0  0  0  0  0  0  0  0  0
   20.1686   39.6812  -10.8985 C   0  0  2  0  0  0  0  0  0  0  0  0
   20.0521   38.2696  -10.8345 O   0  0  0  0  0  0  0  0  0  0  0  0
   21.0174   40.1295   -9.7121 C   0  0  2  0  0  0  0  0  0  0  0  0
   20.2572   39.8122   -8.4055 C   0  0  0  0  0  0  0  0  0  0  0  0
   20.9984   40.2253   -7.1164 C   0  0  2  0  0  0  0  0  0  0  0  0
   22.4169   39.6632   -7.1437 C   0  0  0  0  0  0  0  0  0  0  0  0
   20.2965   39.7659   -5.8236 C   0  0  0  0  0  0  0  0  0  0  0  0
   21.0038   40.2661   -4.5477 C   0  0  0  0  0  0  0  0  0  0  0  0
   20.7336   41.7542   -4.2375 C   0  0  0  0  0  0  0  0  0  0  0  0
   21.6356   42.3518   -3.1365 C   0  0  0  0  0  0  0  0  0  0  0  0
   23.1436   42.4329   -3.4777 C   0  0  0  0  0  0  0  0  0  0  0  0
   23.4941   43.1129   -4.8197 C   0  0  0  0  0  0  0  0  0  0  0  0
   23.0593   44.5920   -4.9171 C   0  0  0  0  0  0  0  0  0  0  0  0
   23.3403   45.2415   -6.2962 C   0  0  2  0  0  0  0  0  0  0  0  0
   23.0820   46.6654   -6.2227 N   0  0  0  0  0  0  0  0  0  0  0  0
   22.8861   47.3909   -5.1052 C   0  0  0  0  0  0  0  0  0  0  0  0
   23.2571   47.0375   -3.9847 O   0  0  0  0  0  0  0  0  0  0  0  0
   22.2231   48.7259   -5.3071 C   0  0  0  0  0  0  0  0  0  0  0  0
   22.3135   49.7292   -4.3148 C   0  0  0  0  0  0  0  0  0  0  0  0
   21.6594   50.9595   -4.5312 C   0  0  0  0  0  0  0  0  0  0  0  0
   20.9382   51.2332   -5.6393 N   0  0  0  0  0  0  0  0  0  0  0  0
   20.8430   50.2701   -6.5807 C   0  0  0  0  0  0  0  0  0  0  0  0
   21.4580   49.0065   -6.4646 C   0  0  0  0  0  0  0  0  0  0  0  0
   22.4783   44.6984   -7.4438 C   0  0  0  0  0  0  0  0  0  0  0  0
   21.2717   44.5921   -7.2977 O   0  0  0  0  0  0  0  0  0  0  0  0
   23.1214   44.3719   -8.5753 N   0  0  0  0  0  0  0  0  0  0  0  0
   22.4348   43.7255   -9.7157 C   0  0  1  0  0  0  0  0  0  0  0  0
   23.1854   44.0666  -10.9998 C   0  0  0  0  0  0  0  0  0  0  0  0
   22.4383   42.1869   -9.5724 C   0  0  0  0  0  0  0  0  0  0  0  0
   23.4490   41.5842   -9.2502 O   0  0  0  0  0  0  0  0  0  0  0  0
   21.2834   41.5650   -9.8489 N   0  0  0  0  0  0  0  0  0  0  0  0
   18.9980   42.3313  -10.4454 H   0  0  0  0  0  0  0  0  0  0  0  0
   20.6896   39.9394  -11.8210 H   0  0  0  0  0  0  0  0  0  0  0  0
   21.9306   39.5367   -9.7640 H   0  0  0  0  0  0  0  0  0  0  0  0
   21.1087   41.3097   -7.1055 H   0  0  0  0  0  0  0  0  0  0  0  0
   24.4000   45.1486   -6.5342 H   0  0  0  0  0  0  0  0  0  0  0  0
   21.4227   44.1062   -9.8528 H   0  0  0  0  0  0  0  0  0  0  0  0
   11.5626   44.5411   -8.3288 H   0  0  0  0  0  0  0  0  0  0  0  0
   13.2491   44.9568   -8.0438 H   0  0  0  0  0  0  0  0  0  0  0  0
   12.5672   43.4934   -7.3330 H   0  0  0  0  0  0  0  0  0  0  0  0
   12.9075   43.9897  -10.3410 H   0  0  0  0  0  0  0  0  0  0  0  0
   12.2327   42.5405   -9.6372 H   0  0  0  0  0  0  0  0  0  0  0  0
   14.4256   42.0889   -8.4874 H   0  0  0  0  0  0  0  0  0  0  0  0
   15.0997   43.5244   -9.2200 H   0  0  0  0  0  0  0  0  0  0  0  0
   14.5271   42.4858  -11.5182 H   0  0  0  0  0  0  0  0  0  0  0  0
   14.1728   40.9960  -10.6823 H   0  0  0  0  0  0  0  0  0  0  0  0
   16.5070   40.8811  -10.0303 H   0  0  0  0  0  0  0  0  0  0  0  0
   20.4596   42.0003  -12.3388 H   0  0  0  0  0  0  0  0  0  0  0  0
   19.2604   43.2065  -12.7658 H   0  0  0  0  0  0  0  0  0  0  0  0
   19.1188   41.5635  -13.3879 H   0  0  0  0  0  0  0  0  0  0  0  0
   18.1430   39.6710  -11.6564 H   0  0  0  0  0  0  0  0  0  0  0  0
   18.2276   40.0788   -9.9757 H   0  0  0  0  0  0  0  0  0  0  0  0
   19.7134   38.0349   -9.9841 H   0  0  0  0  0  0  0  0  0  0  0  0
   19.2758   40.2857   -8.4322 H   0  0  0  0  0  0  0  0  0  0  0  0
   20.0629   38.7400   -8.3782 H   0  0  0  0  0  0  0  0  0  0  0  0
   22.9870   39.9525   -6.2617 H   0  0  0  0  0  0  0  0  0  0  0  0
   22.9799   40.0241   -8.0034 H   0  0  0  0  0  0  0  0  0  0  0  0
   22.4150   38.5735   -7.1874 H   0  0  0  0  0  0  0  0  0  0  0  0
   19.2553   40.0884   -5.8201 H   0  0  0  0  0  0  0  0  0  0  0  0
   20.2701   38.6763   -5.8096 H   0  0  0  0  0  0  0  0  0  0  0  0
   22.0736   40.0796   -4.6425 H   0  0  0  0  0  0  0  0  0  0  0  0
   20.6777   39.6692   -3.6960 H   0  0  0  0  0  0  0  0  0  0  0  0
   20.8259   42.3601   -5.1389 H   0  0  0  0  0  0  0  0  0  0  0  0
   19.6915   41.8615   -3.9363 H   0  0  0  0  0  0  0  0  0  0  0  0
   21.5085   41.7803   -2.2171 H   0  0  0  0  0  0  0  0  0  0  0  0
   21.2743   43.3523   -2.8991 H   0  0  0  0  0  0  0  0  0  0  0  0
   23.6600   42.9503   -2.6691 H   0  0  0  0  0  0  0  0  0  0  0  0
   23.5621   41.4264   -3.4802 H   0  0  0  0  0  0  0  0  0  0  0  0
   23.0613   42.5367   -5.6375 H   0  0  0  0  0  0  0  0  0  0  0  0
   24.5720   43.0529   -4.9704 H   0  0  0  0  0  0  0  0  0  0  0  0
   22.0004   44.6941   -4.6796 H   0  0  0  0  0  0  0  0  0  0  0  0
   23.5818   45.1598   -4.1472 H   0  0  0  0  0  0  0  0  0  0  0  0
   23.0530   47.1571   -7.1045 H   0  0  0  0  0  0  0  0  0  0  0  0
   22.8747   49.5734   -3.4046 H   0  0  0  0  0  0  0  0  0  0  0  0
   21.7164   51.7448   -3.7919 H   0  0  0  0  0  0  0  0  0  0  0  0
   20.2544   50.5117   -7.4535 H   0  0  0  0  0  0  0  0  0  0  0  0
   21.3306   48.2782   -7.2524 H   0  0  0  0  0  0  0  0  0  0  0  0
   24.1239   44.4925   -8.5977 H   0  0  0  0  0  0  0  0  0  0  0  0
   22.7154   43.6022  -11.8677 H   0  0  0  0  0  0  0  0  0  0  0  0
   24.2212   43.7265  -10.9625 H   0  0  0  0  0  0  0  0  0  0  0  0
   23.1987   45.1423  -11.1783 H   0  0  0  0  0  0  0  0  0  0  0  0
   20.5068   42.1471  -10.1284 H   0  0  0  0  0  0  0  0  0  0  0  0
  1  2  1  0  0  0  0
  1 48  1  0  0  0  0
  1 49  1  0  0  0  0
  1 50  1  0  0  0  0
  2  3  1  0  0  0  0
  2 51  1  0  0  0  0
  2 52  1  0  0  0  0
  3  4  1  0  0  0  0
  3 53  1  0  0  0  0
  3 54  1  0  0  0  0
  4  5  1  0  0  0  0
  4 55  1  0  0  0  0
  4 56  1  0  0  0  0
  5  6  1  0  0  0  0
  5 57  1  0  0  0  0
  6  7  2  0  0  0  0
  6  8  1  0  0  0  0
  8 42  1  1  0  0  0
  8  9  1  0  0  0  0
  8 10  1  0  0  0  0
  9 58  1  0  0  0  0
  9 59  1  0  0  0  0
  9 60  1  0  0  0  0
 10 11  1  0  0  0  0
 10 61  1  0  0  0  0
 10 62  1  0  0  0  0
 11 43  1  6  0  0  0
 11 12  1  0  0  0  0
 11 13  1  0  0  0  0
 12 63  1  0  0  0  0
 13 44  1  6  0  0  0
 13 41  1  0  0  0  0
 13 14  1  0  0  0  0
 14 15  1  0  0  0  0
 14 64  1  0  0  0  0
 14 65  1  0  0  0  0
 15 45  1  1  0  0  0
 15 16  1  0  0  0  0
 15 17  1  0  0  0  0
 16 66  1  0  0  0  0
 16 67  1  0  0  0  0
 16 68  1  0  0  0  0
 17 18  1  0  0  0  0
 17 69  1  0  0  0  0
 17 70  1  0  0  0  0
 18 19  1  0  0  0  0
 18 71  1  0  0  0  0
 18 72  1  0  0  0  0
 19 20  1  0  0  0  0
 19 73  1  0  0  0  0
 19 74  1  0  0  0  0
 20 21  1  0  0  0  0
 20 75  1  0  0  0  0
 20 76  1  0  0  0  0
 21 22  1  0  0  0  0
 21 77  1  0  0  0  0
 21 78  1  0  0  0  0
 22 23  1  0  0  0  0
 22 79  1  0  0  0  0
 22 80  1  0  0  0  0
 23 24  1  0  0  0  0
 23 81  1  0  0  0  0
 23 82  1  0  0  0  0
 24 46  1  6  0  0  0
 24 25  1  0  0  0  0
 24 34  1  0  0  0  0
 25 26  1  0  0  0  0
 25 83  1  0  0  0  0
 26 27  2  0  0  0  0
 26 28  1  0  0  0  0
 28 33  1  0  0  0  0
 28 29  2  0  0  0  0
 29 30  1  0  0  0  0
 29 84  1  0  0  0  0
 30 31  2  0  0  0  0
 30 85  1  0  0  0  0
 31 32  1  0  0  0  0
 32 33  2  0  0  0  0
 32 86  1  0  0  0  0
 33 87  1  0  0  0  0
 34 35  2  0  0  0  0
 34 36  1  0  0  0  0
 36 37  1  0  0  0  0
 36 88  1  0  0  0  0
 37 47  1  6  0  0  0
 37 38  1  0  0  0  0
 37 39  1  0  0  0  0
 38 89  1  0  0  0  0
 38 90  1  0  0  0  0
 38 91  1  0  0  0  0
 39 40  2  0  0  0  0
 39 41  1  0  0  0  0
 41 92  1  0  0  0  0
M  END
