BACE_144.smi:1
 OpenBabel09301811243D
Structure written by MMmdl.
 88 92  0  0  1  0  0  0  0  0999 V2000
   12.0600   48.8840  -13.5790 C   0  0  0  0  0  0  0  0  0  0  0  0
   13.3633   48.4581  -13.2401 O   0  0  0  0  0  0  0  0  0  0  0  0
   13.4942   47.0490  -13.1765 C   0  0  0  0  0  0  0  0  0  0  0  0
   14.9131   46.6276  -12.8406 C   0  0  0  0  0  0  0  0  0  0  0  0
   16.0005   47.4707  -13.1573 C   0  0  0  0  0  0  0  0  0  0  0  0
   17.3252   47.0562  -12.9184 C   0  0  0  0  0  0  0  0  0  0  0  0
   17.5604   45.7639  -12.4027 C   0  0  0  0  0  0  0  0  0  0  0  0
   16.4831   44.9117  -12.0841 C   0  0  0  0  0  0  0  0  0  0  0  0
   15.1564   45.3578  -12.2795 C   0  0  0  0  0  0  0  0  0  0  0  0
   16.7800   43.5598  -11.5615 C   0  0  0  0  0  0  0  0  0  0  0  0
   17.7869   42.9264  -11.8740 O   0  0  0  0  0  0  0  0  0  0  0  0
   15.8294   43.1377  -10.7008 O   0  0  0  0  0  0  0  0  0  0  0  0
   16.0558   42.1640   -9.6783 C   0  0  1  0  0  0  0  0  0  0  0  0
   16.5715   40.7802  -10.1403 C   0  0  0  0  0  0  0  0  0  0  0  0
   16.5277   39.8747   -8.9965 N   0  0  0  0  0  0  0  0  0  0  0  0
   17.4382   38.7403   -9.0143 C   0  0  0  0  0  0  0  0  0  0  0  0
   16.9844   37.4440   -9.6398 C   0  0  0  0  0  0  0  0  0  0  0  0
   16.9740   37.6045   -8.1426 C   0  0  0  0  0  0  0  0  0  0  0  0
   18.8930   39.1257   -8.9496 C   0  0  0  0  0  0  0  0  0  0  0  0
   19.5937   39.4792  -10.1236 C   0  0  0  0  0  0  0  0  0  0  0  0
   20.9210   39.9598  -10.0670 C   0  0  0  0  0  0  0  0  0  0  0  0
   21.5825   39.9882   -8.8205 C   0  0  0  0  0  0  0  0  0  0  0  0
   20.9122   39.5936   -7.6478 C   0  0  0  0  0  0  0  0  0  0  0  0
   19.5673   39.1836   -7.7104 C   0  0  0  0  0  0  0  0  0  0  0  0
   21.6419   40.5090  -11.2984 C   0  0  0  0  0  0  0  0  0  0  0  0
   21.0593   40.0342  -12.6427 C   0  0  0  0  0  0  0  0  0  0  0  0
   21.6841   42.0444  -11.2563 C   0  0  0  0  0  0  0  0  0  0  0  0
   16.8486   42.7997   -8.4988 C   0  0  1  0  0  0  0  0  0  0  0  0
   16.4599   42.1499   -7.2400 N   0  3  0  0  0  0  0  0  0  0  0  0
   18.3928   42.8058   -8.6204 C   0  0  0  0  0  0  0  0  0  0  0  0
   19.0254   43.9243   -7.8150 C   0  0  0  0  0  0  0  0  0  0  0  0
   19.1331   45.2084   -8.3870 C   0  0  0  0  0  0  0  0  0  0  0  0
   19.7075   46.2695   -7.6563 C   0  0  0  0  0  0  0  0  0  0  0  0
   20.1504   46.0476   -6.3372 C   0  0  0  0  0  0  0  0  0  0  0  0
   20.0626   44.7612   -5.7689 C   0  0  0  0  0  0  0  0  0  0  0  0
   19.5070   43.6988   -6.5090 C   0  0  0  0  0  0  0  0  0  0  0  0
   19.8131   47.5205   -8.2061 O   0  0  0  0  0  0  0  0  0  0  0  0
   20.7299   47.6092   -9.2910 C   0  0  0  0  0  0  0  0  0  0  0  0
   20.4323   48.8768  -10.1044 C   0  0  0  0  0  0  0  0  0  0  0  0
   19.2100   48.7429  -11.0303 C   0  0  0  0  0  0  0  0  0  0  0  0
   19.5271   48.0027  -12.3433 C   0  0  0  0  0  0  0  0  0  0  0  0
   18.3712   47.9351  -13.2299 N   0  0  0  0  0  0  0  0  0  0  0  0
   15.0447   41.9915   -9.3056 H   0  0  0  0  0  0  0  0  0  0  0  0
   16.5116   43.8338   -8.4117 H   0  0  0  0  0  0  0  0  0  0  0  0
   12.0602   49.9712  -13.6314 H   0  0  0  0  0  0  0  0  0  0  0  0
   11.3410   48.5735  -12.8196 H   0  0  0  0  0  0  0  0  0  0  0  0
   11.7488   48.4953  -14.5488 H   0  0  0  0  0  0  0  0  0  0  0  0
   13.2241   46.6093  -14.1382 H   0  0  0  0  0  0  0  0  0  0  0  0
   12.8068   46.6463  -12.4317 H   0  0  0  0  0  0  0  0  0  0  0  0
   15.8186   48.4428  -13.5914 H   0  0  0  0  0  0  0  0  0  0  0  0
   18.5707   45.4134  -12.2522 H   0  0  0  0  0  0  0  0  0  0  0  0
   14.3214   44.7080  -12.0559 H   0  0  0  0  0  0  0  0  0  0  0  0
   17.5801   40.8882  -10.5213 H   0  0  0  0  0  0  0  0  0  0  0  0
   15.9616   40.3747  -10.9489 H   0  0  0  0  0  0  0  0  0  0  0  0
   15.5857   39.5542   -8.8089 H   0  0  0  0  0  0  0  0  0  0  0  0
   16.0099   37.4028  -10.1200 H   0  0  0  0  0  0  0  0  0  0  0  0
   17.7449   36.7785  -10.0401 H   0  0  0  0  0  0  0  0  0  0  0  0
   17.7080   37.0217   -7.5897 H   0  0  0  0  0  0  0  0  0  0  0  0
   16.0165   37.7500   -7.6433 H   0  0  0  0  0  0  0  0  0  0  0  0
   19.0706   39.4248  -11.0659 H   0  0  0  0  0  0  0  0  0  0  0  0
   22.6029   40.3384   -8.7568 H   0  0  0  0  0  0  0  0  0  0  0  0
   21.4206   39.6289   -6.6954 H   0  0  0  0  0  0  0  0  0  0  0  0
   19.0509   38.9192   -6.7996 H   0  0  0  0  0  0  0  0  0  0  0  0
   22.6706   40.1515  -11.2399 H   0  0  0  0  0  0  0  0  0  0  0  0
   21.0454   38.9488  -12.7048 H   0  0  0  0  0  0  0  0  0  0  0  0
   21.6605   40.3990  -13.4734 H   0  0  0  0  0  0  0  0  0  0  0  0
   20.0442   40.3980  -12.8032 H   0  0  0  0  0  0  0  0  0  0  0  0
   22.1746   42.4045  -10.3526 H   0  0  0  0  0  0  0  0  0  0  0  0
   20.6801   42.4686  -11.2837 H   0  0  0  0  0  0  0  0  0  0  0  0
   22.2379   42.4432  -12.1071 H   0  0  0  0  0  0  0  0  0  0  0  0
   15.5427   42.4410   -6.9165 H   0  0  0  0  0  0  0  0  0  0  0  0
   16.4703   41.1456   -7.3774 H   0  0  0  0  0  0  0  0  0  0  0  0
   18.8110   41.8500   -8.3070 H   0  0  0  0  0  0  0  0  0  0  0  0
   18.7263   42.9357   -9.6436 H   0  0  0  0  0  0  0  0  0  0  0  0
   18.7699   45.3851   -9.3889 H   0  0  0  0  0  0  0  0  0  0  0  0
   20.5819   46.8590   -5.7695 H   0  0  0  0  0  0  0  0  0  0  0  0
   20.4258   44.5852   -4.7671 H   0  0  0  0  0  0  0  0  0  0  0  0
   19.4487   42.7145   -6.0658 H   0  0  0  0  0  0  0  0  0  0  0  0
   21.7366   47.6704   -8.8737 H   0  0  0  0  0  0  0  0  0  0  0  0
   20.7104   46.7301   -9.9368 H   0  0  0  0  0  0  0  0  0  0  0  0
   20.2765   49.7064   -9.4139 H   0  0  0  0  0  0  0  0  0  0  0  0
   21.3059   49.1442  -10.6999 H   0  0  0  0  0  0  0  0  0  0  0  0
   18.3960   48.2501  -10.4968 H   0  0  0  0  0  0  0  0  0  0  0  0
   18.8499   49.7425  -11.2764 H   0  0  0  0  0  0  0  0  0  0  0  0
   20.3140   48.5370  -12.8760 H   0  0  0  0  0  0  0  0  0  0  0  0
   19.9318   47.0123  -12.1462 H   0  0  0  0  0  0  0  0  0  0  0  0
   18.1115   48.8064  -13.6710 H   0  0  0  0  0  0  0  0  0  0  0  0
   17.1198   42.3618   -6.5015 H   0  0  0  0  0  0  0  0  0  0  0  0
  1  2  1  0  0  0  0
  1 45  1  0  0  0  0
  1 46  1  0  0  0  0
  1 47  1  0  0  0  0
  2  3  1  0  0  0  0
  3  4  1  0  0  0  0
  3 48  1  0  0  0  0
  3 49  1  0  0  0  0
  4  9  1  0  0  0  0
  4  5  2  0  0  0  0
  5  6  1  0  0  0  0
  5 50  1  0  0  0  0
  6 42  1  0  0  0  0
  6  7  2  0  0  0  0
  7  8  1  0  0  0  0
  7 51  1  0  0  0  0
  8  9  2  0  0  0  0
  8 10  1  0  0  0  0
  9 52  1  0  0  0  0
 10 11  2  0  0  0  0
 10 12  1  0  0  0  0
 12 13  1  0  0  0  0
 13 43  1  0  0  0  0
 13 14  1  0  0  0  0
 13 28  1  1  0  0  0
 14 15  1  0  0  0  0
 14 53  1  0  0  0  0
 14 54  1  0  0  0  0
 15 16  1  0  0  0  0
 15 55  1  0  0  0  0
 16 18  1  0  0  0  0
 16 17  1  0  0  0  0
 16 19  1  0  0  0  0
 17 18  1  0  0  0  0
 17 56  1  0  0  0  0
 17 57  1  0  0  0  0
 18 58  1  0  0  0  0
 18 59  1  0  0  0  0
 19 24  1  0  0  0  0
 19 20  2  0  0  0  0
 20 21  1  0  0  0  0
 20 60  1  0  0  0  0
 21 22  2  0  0  0  0
 21 25  1  0  0  0  0
 22 23  1  0  0  0  0
 22 61  1  0  0  0  0
 23 24  2  0  0  0  0
 23 62  1  0  0  0  0
 24 63  1  0  0  0  0
 25 26  1  0  0  0  0
 25 27  1  0  0  0  0
 25 64  1  0  0  0  0
 26 65  1  0  0  0  0
 26 66  1  0  0  0  0
 26 67  1  0  0  0  0
 27 68  1  0  0  0  0
 27 69  1  0  0  0  0
 27 70  1  0  0  0  0
 28 44  1  1  0  0  0
 28 29  1  0  0  0  0
 28 30  1  0  0  0  0
 29 71  1  0  0  0  0
 29 72  1  0  0  0  0
 29 88  1  0  0  0  0
 30 31  1  0  0  0  0
 30 73  1  0  0  0  0
 30 74  1  0  0  0  0
 31 36  1  0  0  0  0
 31 32  2  0  0  0  0
 32 33  1  0  0  0  0
 32 75  1  0  0  0  0
 33 34  2  0  0  0  0
 33 37  1  0  0  0  0
 34 35  1  0  0  0  0
 34 76  1  0  0  0  0
 35 36  2  0  0  0  0
 35 77  1  0  0  0  0
 36 78  1  0  0  0  0
 37 38  1  0  0  0  0
 38 39  1  0  0  0  0
 38 79  1  0  0  0  0
 38 80  1  0  0  0  0
 39 40  1  0  0  0  0
 39 81  1  0  0  0  0
 39 82  1  0  0  0  0
 40 41  1  0  0  0  0
 40 83  1  0  0  0  0
 40 84  1  0  0  0  0
 41 42  1  0  0  0  0
 41 85  1  0  0  0  0
 41 86  1  0  0  0  0
 42 87  1  0  0  0  0
M  CHG  1  29   1
M  END
