BACE_156.smi:1
 OpenBabel09301811243D
Structure written by MMmdl.
 74 75  0  0  1  0  0  0  0  0999 V2000
   31.2979   42.9921  -11.4444 C   0  0  0  0  0  0  0  0  0  0  0  0
   30.6420   42.2690  -12.6284 C   0  0  0  0  0  0  0  0  0  0  0  0
   29.1603   41.9221  -12.3982 C   0  0  0  0  0  0  0  0  0  0  0  0
   28.2357   43.1509  -12.5038 C   0  0  0  0  0  0  0  0  0  0  0  0
   26.8494   42.8498  -12.1547 N   0  0  0  0  0  0  0  0  0  0  0  0
   26.3883   42.7773  -10.8963 C   0  0  0  0  0  0  0  0  0  0  0  0
   27.1295   42.8459   -9.9159 O   0  0  0  0  0  0  0  0  0  0  0  0
   24.8660   42.6619  -10.6986 C   0  0  2  0  0  0  0  0  0  0  0  0
   24.4014   43.8846   -9.8777 C   0  0  0  0  0  0  0  0  0  0  0  0
   24.5289   41.2772  -10.0742 C   0  0  0  0  0  0  0  0  0  0  0  0
   23.0452   40.8143   -9.9587 C   0  0  2  0  0  0  0  0  0  0  0  0
   22.4599   40.8269  -11.2400 O   0  0  0  0  0  0  0  0  0  0  0  0
   22.1731   41.5923   -8.9303 C   0  0  2  0  0  0  0  0  0  0  0  0
   22.7882   41.4795   -7.5083 C   0  0  0  0  0  0  0  0  0  0  0  0
   21.9478   41.9851   -6.3395 C   0  0  0  0  0  0  0  0  0  0  0  0
   21.9741   41.2856   -5.1139 C   0  0  0  0  0  0  0  0  0  0  0  0
   21.2555   41.7693   -4.0057 C   0  0  0  0  0  0  0  0  0  0  0  0
   20.4979   42.9492   -4.1194 C   0  0  0  0  0  0  0  0  0  0  0  0
   20.4450   43.6574   -5.3374 C   0  0  0  0  0  0  0  0  0  0  0  0
   21.1913   43.1737   -6.4417 C   0  0  0  0  0  0  0  0  0  0  0  0
   19.6600   44.7925   -5.3685 O   0  0  0  0  0  0  0  0  0  0  0  0
   19.2514   45.3204   -6.6274 C   0  0  0  0  0  0  0  0  0  0  0  0
   18.2086   44.4213   -7.3239 C   0  0  0  0  0  0  0  0  0  0  0  0
   17.9035   44.8914   -8.7522 C   0  0  0  0  0  0  0  0  0  0  0  0
   16.9518   43.9598   -9.5235 C   0  0  0  0  0  0  0  0  0  0  0  0
   17.3044   43.9325  -11.3394 S   0  0  0  0  0  0  0  0  0  0  0  0
   16.0293   43.7166  -12.0393 O   0  0  0  0  0  0  0  0  0  0  0  0
   18.0980   45.1210  -11.6829 O   0  0  0  0  0  0  0  0  0  0  0  0
   18.3124   42.3922  -11.6285 C   0  0  0  0  0  0  0  0  0  0  0  0
   19.7132   42.2449  -10.9518 C   0  0  1  0  0  0  0  0  0  0  0  0
   20.5923   43.5106  -11.0188 C   0  0  0  0  0  0  0  0  0  0  0  0
   19.6771   41.4998   -9.5841 C   0  0  0  0  0  0  0  0  0  0  0  0
   18.5919   41.1280   -9.1478 O   0  0  0  0  0  0  0  0  0  0  0  0
   20.7785   41.1341   -8.8932 N   0  0  0  0  0  0  0  0  0  0  0  0
   24.3988   42.7214  -11.6831 H   0  0  0  0  0  0  0  0  0  0  0  0
   23.0570   39.7623   -9.6572 H   0  0  0  0  0  0  0  0  0  0  0  0
   22.1534   42.6448   -9.1690 H   0  0  0  0  0  0  0  0  0  0  0  0
   20.1849   41.5209  -11.6115 H   0  0  0  0  0  0  0  0  0  0  0  0
   32.3601   43.1517  -11.6306 H   0  0  0  0  0  0  0  0  0  0  0  0
   31.2081   42.4089  -10.5281 H   0  0  0  0  0  0  0  0  0  0  0  0
   30.8457   43.9663  -11.2663 H   0  0  0  0  0  0  0  0  0  0  0  0
   30.7493   42.8647  -13.5366 H   0  0  0  0  0  0  0  0  0  0  0  0
   31.1952   41.3504  -12.8126 H   0  0  0  0  0  0  0  0  0  0  0  0
   28.8586   41.1817  -13.1407 H   0  0  0  0  0  0  0  0  0  0  0  0
   29.0475   41.4356  -11.4271 H   0  0  0  0  0  0  0  0  0  0  0  0
   28.5941   43.9571  -11.8610 H   0  0  0  0  0  0  0  0  0  0  0  0
   28.2579   43.5431  -13.5202 H   0  0  0  0  0  0  0  0  0  0  0  0
   26.1848   42.7728  -12.9108 H   0  0  0  0  0  0  0  0  0  0  0  0
   24.9732   44.7788  -10.1270 H   0  0  0  0  0  0  0  0  0  0  0  0
   24.5198   43.7224   -8.8068 H   0  0  0  0  0  0  0  0  0  0  0  0
   23.3648   44.1412  -10.0783 H   0  0  0  0  0  0  0  0  0  0  0  0
   25.0406   40.5459  -10.6967 H   0  0  0  0  0  0  0  0  0  0  0  0
   25.0153   41.1850   -9.1045 H   0  0  0  0  0  0  0  0  0  0  0  0
   23.1107   40.5514  -11.8835 H   0  0  0  0  0  0  0  0  0  0  0  0
   23.0375   40.4350   -7.3147 H   0  0  0  0  0  0  0  0  0  0  0  0
   23.7300   42.0233   -7.4657 H   0  0  0  0  0  0  0  0  0  0  0  0
   22.5577   40.3829   -5.0126 H   0  0  0  0  0  0  0  0  0  0  0  0
   21.2823   41.2340   -3.0681 H   0  0  0  0  0  0  0  0  0  0  0  0
   19.9425   43.3106   -3.2658 H   0  0  0  0  0  0  0  0  0  0  0  0
   21.1937   43.7020   -7.3807 H   0  0  0  0  0  0  0  0  0  0  0  0
   18.7996   46.2946   -6.4369 H   0  0  0  0  0  0  0  0  0  0  0  0
   20.1096   45.5241   -7.2670 H   0  0  0  0  0  0  0  0  0  0  0  0
   18.5717   43.3948   -7.3616 H   0  0  0  0  0  0  0  0  0  0  0  0
   17.2872   44.3927   -6.7421 H   0  0  0  0  0  0  0  0  0  0  0  0
   17.4937   45.9021   -8.7394 H   0  0  0  0  0  0  0  0  0  0  0  0
   18.8465   44.9722   -9.2830 H   0  0  0  0  0  0  0  0  0  0  0  0
   16.9714   42.9368   -9.1549 H   0  0  0  0  0  0  0  0  0  0  0  0
   15.9259   44.2983   -9.3895 H   0  0  0  0  0  0  0  0  0  0  0  0
   17.6721   41.5403  -11.3953 H   0  0  0  0  0  0  0  0  0  0  0  0
   18.4581   42.3433  -12.7063 H   0  0  0  0  0  0  0  0  0  0  0  0
   21.6230   43.2503  -11.2471 H   0  0  0  0  0  0  0  0  0  0  0  0
   20.5958   44.0781  -10.0918 H   0  0  0  0  0  0  0  0  0  0  0  0
   20.3011   44.1714  -11.8310 H   0  0  0  0  0  0  0  0  0  0  0  0
   20.5655   40.5600   -8.0899 H   0  0  0  0  0  0  0  0  0  0  0  0
  1  2  1  0  0  0  0
  1 39  1  0  0  0  0
  1 40  1  0  0  0  0
  1 41  1  0  0  0  0
  2  3  1  0  0  0  0
  2 42  1  0  0  0  0
  2 43  1  0  0  0  0
  3  4  1  0  0  0  0
  3 44  1  0  0  0  0
  3 45  1  0  0  0  0
  4  5  1  0  0  0  0
  4 46  1  0  0  0  0
  4 47  1  0  0  0  0
  5  6  1  0  0  0  0
  5 48  1  0  0  0  0
  6  7  2  0  0  0  0
  6  8  1  0  0  0  0
  8 35  1  6  0  0  0
  8  9  1  0  0  0  0
  8 10  1  0  0  0  0
  9 49  1  0  0  0  0
  9 50  1  0  0  0  0
  9 51  1  0  0  0  0
 10 11  1  0  0  0  0
 10 52  1  0  0  0  0
 10 53  1  0  0  0  0
 11 36  1  1  0  0  0
 11 12  1  0  0  0  0
 11 13  1  0  0  0  0
 12 54  1  0  0  0  0
 13 37  1  6  0  0  0
 13 34  1  0  0  0  0
 13 14  1  0  0  0  0
 14 15  1  0  0  0  0
 14 55  1  0  0  0  0
 14 56  1  0  0  0  0
 15 20  1  0  0  0  0
 15 16  2  0  0  0  0
 16 17  1  0  0  0  0
 16 57  1  0  0  0  0
 17 18  2  0  0  0  0
 17 58  1  0  0  0  0
 18 19  1  0  0  0  0
 18 59  1  0  0  0  0
 19 20  2  0  0  0  0
 19 21  1  0  0  0  0
 20 60  1  0  0  0  0
 21 22  1  0  0  0  0
 22 23  1  0  0  0  0
 22 61  1  0  0  0  0
 22 62  1  0  0  0  0
 23 24  1  0  0  0  0
 23 63  1  0  0  0  0
 23 64  1  0  0  0  0
 24 25  1  0  0  0  0
 24 65  1  0  0  0  0
 24 66  1  0  0  0  0
 25 26  1  0  0  0  0
 25 67  1  0  0  0  0
 25 68  1  0  0  0  0
 26 27  2  0  0  0  0
 26 28  2  0  0  0  0
 26 29  1  0  0  0  0
 29 30  1  0  0  0  0
 29 69  1  0  0  0  0
 29 70  1  0  0  0  0
 30 38  1  6  0  0  0
 30 31  1  0  0  0  0
 30 32  1  0  0  0  0
 31 71  1  0  0  0  0
 31 72  1  0  0  0  0
 31 73  1  0  0  0  0
 32 33  2  0  0  0  0
 32 34  1  0  0  0  0
 34 74  1  0  0  0  0
M  END
