BACE_6.smi:1
 OpenBabel09301811243D
Structure written by MMmdl.
 83 85  0  0  1  0  0  0  0  0999 V2000
   22.6354   47.6154  -15.1849 C   0  0  0  0  0  0  0  0  0  0  0  0
   22.4947   48.3329  -13.8310 C   0  0  0  0  0  0  0  0  0  0  0  0
   21.3560   47.8337  -13.0377 N   0  0  0  0  0  0  0  0  0  0  0  0
   21.7448   47.1525  -11.7859 C   0  0  0  0  0  0  0  0  0  0  0  0
   22.1835   45.7001  -12.0507 C   0  0  0  0  0  0  0  0  0  0  0  0
   22.7956   44.9657  -10.8492 C   0  0  0  0  0  0  0  0  0  0  0  0
   21.8337   44.6861   -9.6850 C   0  0  0  0  0  0  0  0  0  0  0  0
   20.5774   43.8770  -10.0678 C   0  0  0  0  0  0  0  0  0  0  0  0
   19.8822   43.1942   -8.8664 C   0  0  1  0  0  0  0  0  0  0  0  0
   19.5987   44.1566   -7.6970 C   0  0  0  0  0  0  0  0  0  0  0  0
   18.6985   42.2477   -9.2589 C   0  0  0  0  0  0  0  0  0  0  0  0
   17.2688   42.7972   -9.5831 C   0  0  2  0  0  0  0  0  0  0  0  0
   17.3008   44.1537  -10.1077 N   0  0  0  0  0  0  0  0  0  0  0  0
   17.2385   44.5253  -11.3926 C   0  0  0  0  0  0  0  0  0  0  0  0
   17.0412   43.7655  -12.3441 O   0  0  0  0  0  0  0  0  0  0  0  0
   17.5253   45.9785  -11.5860 C   0  0  0  0  0  0  0  0  0  0  0  0
   18.6066   46.3751  -12.3992 C   0  0  0  0  0  0  0  0  0  0  0  0
   18.9369   47.7402  -12.5312 C   0  0  0  0  0  0  0  0  0  0  0  0
   18.1404   48.7114  -11.8878 C   0  0  0  0  0  0  0  0  0  0  0  0
   17.0566   48.3195  -11.0798 C   0  0  0  0  0  0  0  0  0  0  0  0
   16.7530   46.9551  -10.9208 C   0  0  0  0  0  0  0  0  0  0  0  0
   20.0876   48.1809  -13.3884 C   0  0  0  0  0  0  0  0  0  0  0  0
   19.8338   48.8842  -14.3671 O   0  0  0  0  0  0  0  0  0  0  0  0
   16.2301   42.7178   -8.4243 C   0  0  2  0  0  0  0  0  0  0  0  0
   16.8600   43.1540   -7.2400 O   0  0  0  0  0  0  0  0  0  0  0  0
   15.5898   41.3127   -8.2378 C   0  0  0  0  0  0  0  0  0  0  0  0
   15.6600   40.8107   -6.8404 N   0  3  0  0  0  0  0  0  0  0  0  0
   15.8465   39.3503   -6.6824 C   0  0  0  0  0  0  0  0  0  0  0  0
   16.9975   38.7837   -7.5085 C   0  0  0  0  0  0  0  0  0  0  0  0
   18.3313   39.1899   -7.2835 C   0  0  0  0  0  0  0  0  0  0  0  0
   19.3861   38.7067   -8.0913 C   0  0  0  0  0  0  0  0  0  0  0  0
   19.0928   37.7522   -9.0921 C   0  0  0  0  0  0  0  0  0  0  0  0
   17.7724   37.3083   -9.2862 C   0  0  0  0  0  0  0  0  0  0  0  0
   16.7253   37.8356   -8.5140 C   0  0  0  0  0  0  0  0  0  0  0  0
   20.8006   39.2532   -7.8763 C   0  0  0  0  0  0  0  0  0  0  0  0
   21.7909   38.9371   -9.0136 C   0  0  0  0  0  0  0  0  0  0  0  0
   21.3787   38.8318   -6.5201 C   0  0  0  0  0  0  0  0  0  0  0  0
   20.6441   42.5201   -8.4768 H   0  0  0  0  0  0  0  0  0  0  0  0
   16.8684   42.1635  -10.3772 H   0  0  0  0  0  0  0  0  0  0  0  0
   15.4156   43.4162   -8.6246 H   0  0  0  0  0  0  0  0  0  0  0  0
   23.4827   48.0163  -15.7436 H   0  0  0  0  0  0  0  0  0  0  0  0
   21.7488   47.7370  -15.8085 H   0  0  0  0  0  0  0  0  0  0  0  0
   22.8078   46.5484  -15.0551 H   0  0  0  0  0  0  0  0  0  0  0  0
   23.4316   48.2197  -13.2851 H   0  0  0  0  0  0  0  0  0  0  0  0
   22.3870   49.4061  -13.9932 H   0  0  0  0  0  0  0  0  0  0  0  0
   22.5610   47.7022  -11.3139 H   0  0  0  0  0  0  0  0  0  0  0  0
   20.9458   47.1698  -11.0448 H   0  0  0  0  0  0  0  0  0  0  0  0
   21.3505   45.1215  -12.4356 H   0  0  0  0  0  0  0  0  0  0  0  0
   22.9341   45.6981  -12.8405 H   0  0  0  0  0  0  0  0  0  0  0  0
   23.2009   44.0152  -11.1995 H   0  0  0  0  0  0  0  0  0  0  0  0
   23.6523   45.5308  -10.4796 H   0  0  0  0  0  0  0  0  0  0  0  0
   22.3925   44.1426   -8.9226 H   0  0  0  0  0  0  0  0  0  0  0  0
   21.5378   45.6294   -9.2255 H   0  0  0  0  0  0  0  0  0  0  0  0
   19.8925   44.5390  -10.5866 H   0  0  0  0  0  0  0  0  0  0  0  0
   20.8584   43.1055  -10.7863 H   0  0  0  0  0  0  0  0  0  0  0  0
   18.8359   44.8923   -7.9471 H   0  0  0  0  0  0  0  0  0  0  0  0
   20.4890   44.7023   -7.3883 H   0  0  0  0  0  0  0  0  0  0  0  0
   19.2775   43.6061   -6.8134 H   0  0  0  0  0  0  0  0  0  0  0  0
   19.0276   41.6554  -10.1129 H   0  0  0  0  0  0  0  0  0  0  0  0
   18.5920   41.5184   -8.4616 H   0  0  0  0  0  0  0  0  0  0  0  0
   17.4976   44.8757   -9.4309 H   0  0  0  0  0  0  0  0  0  0  0  0
   19.2016   45.6236  -12.8933 H   0  0  0  0  0  0  0  0  0  0  0  0
   18.3695   49.7614  -12.0025 H   0  0  0  0  0  0  0  0  0  0  0  0
   16.4621   49.0665  -10.5766 H   0  0  0  0  0  0  0  0  0  0  0  0
   15.9262   46.6647  -10.2902 H   0  0  0  0  0  0  0  0  0  0  0  0
   16.1911   43.3501   -6.5835 H   0  0  0  0  0  0  0  0  0  0  0  0
   14.5422   41.3315   -8.5407 H   0  0  0  0  0  0  0  0  0  0  0  0
   16.0650   40.6199   -8.9302 H   0  0  0  0  0  0  0  0  0  0  0  0
   16.4743   41.2447   -6.4165 H   0  0  0  0  0  0  0  0  0  0  0  0
   16.0599   39.1528   -5.6401 H   0  0  0  0  0  0  0  0  0  0  0  0
   14.9151   38.8323   -6.9156 H   0  0  0  0  0  0  0  0  0  0  0  0
   18.5499   39.9071   -6.5082 H   0  0  0  0  0  0  0  0  0  0  0  0
   19.8695   37.3501   -9.7224 H   0  0  0  0  0  0  0  0  0  0  0  0
   17.5591   36.5669  -10.0399 H   0  0  0  0  0  0  0  0  0  0  0  0
   15.7142   37.4937   -8.6809 H   0  0  0  0  0  0  0  0  0  0  0  0
   20.7004   40.3366   -7.8465 H   0  0  0  0  0  0  0  0  0  0  0  0
   21.4198   39.2890   -9.9764 H   0  0  0  0  0  0  0  0  0  0  0  0
   21.9894   37.8680   -9.0957 H   0  0  0  0  0  0  0  0  0  0  0  0
   22.7504   39.4267   -8.8402 H   0  0  0  0  0  0  0  0  0  0  0  0
   20.7476   39.1644   -5.6963 H   0  0  0  0  0  0  0  0  0  0  0  0
   22.3679   39.2614   -6.3634 H   0  0  0  0  0  0  0  0  0  0  0  0
   21.4758   37.7500   -6.4562 H   0  0  0  0  0  0  0  0  0  0  0  0
   14.8449   41.1054   -6.3041 H   0  0  0  0  0  0  0  0  0  0  0  0
  1  2  1  0  0  0  0
  1 41  1  0  0  0  0
  1 42  1  0  0  0  0
  1 43  1  0  0  0  0
  2  3  1  0  0  0  0
  2 44  1  0  0  0  0
  2 45  1  0  0  0  0
  3 22  1  0  0  0  0
  3  4  1  0  0  0  0
  4  5  1  0  0  0  0
  4 46  1  0  0  0  0
  4 47  1  0  0  0  0
  5  6  1  0  0  0  0
  5 48  1  0  0  0  0
  5 49  1  0  0  0  0
  6  7  1  0  0  0  0
  6 50  1  0  0  0  0
  6 51  1  0  0  0  0
  7  8  1  0  0  0  0
  7 52  1  0  0  0  0
  7 53  1  0  0  0  0
  8  9  1  0  0  0  0
  8 54  1  0  0  0  0
  8 55  1  0  0  0  0
  9 38  1  1  0  0  0
  9 10  1  0  0  0  0
  9 11  1  0  0  0  0
 10 56  1  0  0  0  0
 10 57  1  0  0  0  0
 10 58  1  0  0  0  0
 11 12  1  0  0  0  0
 11 59  1  0  0  0  0
 11 60  1  0  0  0  0
 12 39  1  6  0  0  0
 12 13  1  0  0  0  0
 12 24  1  0  0  0  0
 13 14  1  0  0  0  0
 13 61  1  0  0  0  0
 14 15  2  0  0  0  0
 14 16  1  0  0  0  0
 16 21  1  0  0  0  0
 16 17  2  0  0  0  0
 17 18  1  0  0  0  0
 17 62  1  0  0  0  0
 18 19  2  0  0  0  0
 18 22  1  0  0  0  0
 19 20  1  0  0  0  0
 19 63  1  0  0  0  0
 20 21  2  0  0  0  0
 20 64  1  0  0  0  0
 21 65  1  0  0  0  0
 22 23  2  0  0  0  0
 24 40  1  6  0  0  0
 24 25  1  0  0  0  0
 24 26  1  0  0  0  0
 25 66  1  0  0  0  0
 26 27  1  0  0  0  0
 26 67  1  0  0  0  0
 26 68  1  0  0  0  0
 27 28  1  0  0  0  0
 27 69  1  0  0  0  0
 27 83  1  0  0  0  0
 28 29  1  0  0  0  0
 28 70  1  0  0  0  0
 28 71  1  0  0  0  0
 29 34  1  0  0  0  0
 29 30  2  0  0  0  0
 30 31  1  0  0  0  0
 30 72  1  0  0  0  0
 31 32  2  0  0  0  0
 31 35  1  0  0  0  0
 32 33  1  0  0  0  0
 32 73  1  0  0  0  0
 33 34  2  0  0  0  0
 33 74  1  0  0  0  0
 34 75  1  0  0  0  0
 35 36  1  0  0  0  0
 35 37  1  0  0  0  0
 35 76  1  0  0  0  0
 36 77  1  0  0  0  0
 36 78  1  0  0  0  0
 36 79  1  0  0  0  0
 37 80  1  0  0  0  0
 37 81  1  0  0  0  0
 37 82  1  0  0  0  0
M  CHG  1  27   1
M  END
