BACE_65.smi:1
 OpenBabel09301811243D
Structure written by MMmdl.
 81 83  0  0  1  0  0  0  0  0999 V2000
   19.8474   42.3673   -1.9382 C   0  0  0  0  0  0  0  0  0  0  0  0
   20.4604   41.1911   -2.4463 O   0  0  0  0  0  0  0  0  0  0  0  0
   21.7998   41.3869   -2.8822 C   0  0  0  0  0  0  0  0  0  0  0  0
   21.9147   42.1586   -4.1837 C   0  0  0  0  0  0  0  0  0  0  0  0
   23.0546   42.9394   -4.4399 C   0  0  0  0  0  0  0  0  0  0  0  0
   23.1560   43.7134   -5.6133 C   0  0  0  0  0  0  0  0  0  0  0  0
   22.1127   43.6531   -6.5641 C   0  0  0  0  0  0  0  0  0  0  0  0
   21.0098   42.7977   -6.3622 C   0  0  0  0  0  0  0  0  0  0  0  0
   20.9057   42.0796   -5.1552 C   0  0  0  0  0  0  0  0  0  0  0  0
   19.9665   42.6750   -7.4284 C   0  0  0  0  0  0  0  0  0  0  0  0
   19.1875   43.6036   -7.6241 O   0  0  0  0  0  0  0  0  0  0  0  0
   19.9274   41.5667   -8.1986 N   0  0  0  0  0  0  0  0  0  0  0  0
   20.7296   40.3297   -8.2014 C   0  0  1  0  0  0  0  0  0  0  0  0
   22.2645   40.5820   -8.2374 C   0  0  0  0  0  0  0  0  0  0  0  0
   22.7885   41.5404   -9.3292 C   0  0  2  0  0  0  0  0  0  0  0  0
   22.4795   40.9944  -10.7316 C   0  0  0  0  0  0  0  0  0  0  0  0
   24.3024   41.7574   -9.1109 C   0  0  0  0  0  0  0  0  0  0  0  0
   24.9716   42.7454  -10.0849 C   0  0  0  0  0  0  0  0  0  0  0  0
   26.4026   43.1469   -9.6767 C   0  0  0  0  0  0  0  0  0  0  0  0
   26.5567   43.9060   -8.3375 C   0  0  0  0  0  0  0  0  0  0  0  0
   26.0693   45.3691   -8.3496 C   0  0  0  0  0  0  0  0  0  0  0  0
   24.5728   45.5853   -8.0457 C   0  0  0  0  0  0  0  0  0  0  0  0
   24.2153   45.7437   -6.5546 C   0  0  0  0  0  0  0  0  0  0  0  0
   24.2999   44.5058   -5.7876 N   0  0  0  0  0  0  0  0  0  0  0  0
   20.2929   39.3148   -7.1024 C   0  0  2  0  0  0  0  0  0  0  0  0
   21.1744   38.2157   -7.1331 O   0  0  0  0  0  0  0  0  0  0  0  0
   18.8692   38.7282   -7.2354 C   0  0  0  0  0  0  0  0  0  0  0  0
   17.8106   39.7489   -7.0882 N   0  3  0  0  0  0  0  0  0  0  0  0
   16.4445   39.2275   -6.8771 C   0  0  0  0  0  0  0  0  0  0  0  0
   15.8645   38.5506   -8.1300 C   0  0  0  0  0  0  0  0  0  0  0  0
   15.7307   39.5416   -9.2686 C   0  0  0  0  0  0  0  0  0  0  0  0
   14.5195   40.2271   -9.4583 C   0  0  0  0  0  0  0  0  0  0  0  0
   14.4500   41.2204  -10.4481 C   0  0  0  0  0  0  0  0  0  0  0  0
   15.4943   41.5444  -11.2400 N   0  0  0  0  0  0  0  0  0  0  0  0
   16.6499   40.8664  -11.0712 C   0  0  0  0  0  0  0  0  0  0  0  0
   16.8225   39.8568  -10.1045 C   0  0  0  0  0  0  0  0  0  0  0  0
   20.4815   39.8505   -9.1493 H   0  0  0  0  0  0  0  0  0  0  0  0
   22.2990   42.5083   -9.2291 H   0  0  0  0  0  0  0  0  0  0  0  0
   20.4108   39.7350   -6.1112 H   0  0  0  0  0  0  0  0  0  0  0  0
   18.8296   42.1415   -1.6259 H   0  0  0  0  0  0  0  0  0  0  0  0
   19.7931   43.1546   -2.6909 H   0  0  0  0  0  0  0  0  0  0  0  0
   20.3856   42.7546   -1.0728 H   0  0  0  0  0  0  0  0  0  0  0  0
   22.3693   41.8993   -2.1051 H   0  0  0  0  0  0  0  0  0  0  0  0
   22.2601   40.4106   -3.0258 H   0  0  0  0  0  0  0  0  0  0  0  0
   23.8440   42.9473   -3.7075 H   0  0  0  0  0  0  0  0  0  0  0  0
   22.1607   44.2235   -7.4780 H   0  0  0  0  0  0  0  0  0  0  0  0
   20.0600   41.4523   -4.9556 H   0  0  0  0  0  0  0  0  0  0  0  0
   19.2600   41.6329   -8.9523 H   0  0  0  0  0  0  0  0  0  0  0  0
   22.6006   40.9185   -7.2580 H   0  0  0  0  0  0  0  0  0  0  0  0
   22.7828   39.6341   -8.3822 H   0  0  0  0  0  0  0  0  0  0  0  0
   22.9282   40.0104  -10.8510 H   0  0  0  0  0  0  0  0  0  0  0  0
   22.8588   41.6483  -11.5155 H   0  0  0  0  0  0  0  0  0  0  0  0
   21.4088   40.9018  -10.9048 H   0  0  0  0  0  0  0  0  0  0  0  0
   24.4324   42.1134   -8.0910 H   0  0  0  0  0  0  0  0  0  0  0  0
   24.8288   40.8016   -9.1606 H   0  0  0  0  0  0  0  0  0  0  0  0
   25.0252   42.2789  -11.0684 H   0  0  0  0  0  0  0  0  0  0  0  0
   24.3570   43.6328  -10.2286 H   0  0  0  0  0  0  0  0  0  0  0  0
   27.0101   42.2408   -9.6412 H   0  0  0  0  0  0  0  0  0  0  0  0
   26.8399   43.7452  -10.4755 H   0  0  0  0  0  0  0  0  0  0  0  0
   26.1148   43.3572   -7.5085 H   0  0  0  0  0  0  0  0  0  0  0  0
   27.6242   43.9284   -8.1150 H   0  0  0  0  0  0  0  0  0  0  0  0
   26.6556   45.9463   -7.6330 H   0  0  0  0  0  0  0  0  0  0  0  0
   26.3018   45.8037   -9.3225 H   0  0  0  0  0  0  0  0  0  0  0  0
   24.2736   46.5097   -8.5408 H   0  0  0  0  0  0  0  0  0  0  0  0
   23.9659   44.8111   -8.5035 H   0  0  0  0  0  0  0  0  0  0  0  0
   24.8772   46.4801   -6.0960 H   0  0  0  0  0  0  0  0  0  0  0  0
   23.2095   46.1543   -6.4621 H   0  0  0  0  0  0  0  0  0  0  0  0
   24.9124   44.5474   -4.9786 H   0  0  0  0  0  0  0  0  0  0  0  0
   21.1202   37.7906   -7.9791 H   0  0  0  0  0  0  0  0  0  0  0  0
   18.7572   38.2150   -8.1892 H   0  0  0  0  0  0  0  0  0  0  0  0
   18.7270   37.9771   -6.4563 H   0  0  0  0  0  0  0  0  0  0  0  0
   18.0165   40.3158   -6.2663 H   0  0  0  0  0  0  0  0  0  0  0  0
   16.4638   38.5500   -6.0386 H   0  0  0  0  0  0  0  0  0  0  0  0
   15.7997   40.0539   -6.5760 H   0  0  0  0  0  0  0  0  0  0  0  0
   16.4695   37.7000   -8.4409 H   0  0  0  0  0  0  0  0  0  0  0  0
   14.8806   38.1440   -7.8896 H   0  0  0  0  0  0  0  0  0  0  0  0
   13.6601   40.0084   -8.8408 H   0  0  0  0  0  0  0  0  0  0  0  0
   13.5356   41.7711  -10.6076 H   0  0  0  0  0  0  0  0  0  0  0  0
   17.4638   41.1370  -11.7281 H   0  0  0  0  0  0  0  0  0  0  0  0
   17.7687   39.3461  -10.0188 H   0  0  0  0  0  0  0  0  0  0  0  0
   17.8027   40.3611   -7.8907 H   0  0  0  0  0  0  0  0  0  0  0  0
  1  2  1  0  0  0  0
  1 40  1  0  0  0  0
  1 41  1  0  0  0  0
  1 42  1  0  0  0  0
  2  3  1  0  0  0  0
  3  4  1  0  0  0  0
  3 43  1  0  0  0  0
  3 44  1  0  0  0  0
  4  9  1  0  0  0  0
  4  5  2  0  0  0  0
  5  6  1  0  0  0  0
  5 45  1  0  0  0  0
  6 24  1  0  0  0  0
  6  7  2  0  0  0  0
  7  8  1  0  0  0  0
  7 46  1  0  0  0  0
  8  9  2  0  0  0  0
  8 10  1  0  0  0  0
  9 47  1  0  0  0  0
 10 11  2  0  0  0  0
 10 12  1  0  0  0  0
 12 13  1  0  0  0  0
 12 48  1  0  0  0  0
 13 37  1  6  0  0  0
 13 14  1  0  0  0  0
 13 25  1  0  0  0  0
 14 15  1  0  0  0  0
 14 49  1  0  0  0  0
 14 50  1  0  0  0  0
 15 38  1  1  0  0  0
 15 16  1  0  0  0  0
 15 17  1  0  0  0  0
 16 51  1  0  0  0  0
 16 52  1  0  0  0  0
 16 53  1  0  0  0  0
 17 18  1  0  0  0  0
 17 54  1  0  0  0  0
 17 55  1  0  0  0  0
 18 19  1  0  0  0  0
 18 56  1  0  0  0  0
 18 57  1  0  0  0  0
 19 20  1  0  0  0  0
 19 58  1  0  0  0  0
 19 59  1  0  0  0  0
 20 21  1  0  0  0  0
 20 60  1  0  0  0  0
 20 61  1  0  0  0  0
 21 22  1  0  0  0  0
 21 62  1  0  0  0  0
 21 63  1  0  0  0  0
 22 23  1  0  0  0  0
 22 64  1  0  0  0  0
 22 65  1  0  0  0  0
 23 24  1  0  0  0  0
 23 66  1  0  0  0  0
 23 67  1  0  0  0  0
 24 68  1  0  0  0  0
 25 39  1  1  0  0  0
 25 26  1  0  0  0  0
 25 27  1  0  0  0  0
 26 69  1  0  0  0  0
 27 28  1  0  0  0  0
 27 70  1  0  0  0  0
 27 71  1  0  0  0  0
 28 29  1  0  0  0  0
 28 72  1  0  0  0  0
 28 81  1  0  0  0  0
 29 30  1  0  0  0  0
 29 73  1  0  0  0  0
 29 74  1  0  0  0  0
 30 31  1  0  0  0  0
 30 75  1  0  0  0  0
 30 76  1  0  0  0  0
 31 36  1  0  0  0  0
 31 32  2  0  0  0  0
 32 33  1  0  0  0  0
 32 77  1  0  0  0  0
 33 34  2  0  0  0  0
 33 78  1  0  0  0  0
 34 35  1  0  0  0  0
 35 36  2  0  0  0  0
 35 79  1  0  0  0  0
 36 80  1  0  0  0  0
M  CHG  1  28   1
M  END
