BACE_119.smi:1
 OpenBabel09301811243D
Structure written by MMmdl.
 87 92  0  0  1  0  0  0  0  0999 V2000
   28.2212   44.7051   -5.5719 C   0  0  0  0  0  0  0  0  0  0  0  0
   27.5748   45.6474   -6.6048 C   0  0  0  0  0  0  0  0  0  0  0  0
   28.6201   46.6892   -7.0639 C   0  0  0  0  0  0  0  0  0  0  0  0
   26.4368   46.4273   -5.9063 C   0  0  0  0  0  0  0  0  0  0  0  0
   27.0613   44.8012   -7.7871 C   0  0  0  0  0  0  0  0  0  0  0  0
   25.7349   44.3133   -7.8274 C   0  0  0  0  0  0  0  0  0  0  0  0
   25.3314   43.4717   -8.8865 C   0  0  0  0  0  0  0  0  0  0  0  0
   26.1585   43.1238   -9.8953 N   0  0  0  0  0  0  0  0  0  0  0  0
   27.4180   43.5967   -9.8731 C   0  0  0  0  0  0  0  0  0  0  0  0
   27.9189   44.4185   -8.8457 C   0  0  0  0  0  0  0  0  0  0  0  0
   23.9816   42.8070   -8.8989 C   0  0  0  0  0  0  0  0  0  0  0  0
   23.8997   41.3786   -8.4043 C   0  0  0  0  0  0  0  0  0  0  0  0
   23.2647   42.4774   -7.6001 C   0  0  0  0  0  0  0  0  0  0  0  0
   23.1311   43.2290  -10.0166 N   0  0  0  0  0  0  0  0  0  0  0  0
   23.0848   42.3169  -11.1656 C   0  0  0  0  0  0  0  0  0  0  0  0
   21.6387   42.1334  -11.6652 C   0  0  1  0  0  0  0  0  0  0  0  0
   21.6600   41.3495  -12.8384 O   0  0  0  0  0  0  0  0  0  0  0  0
   20.6973   41.4669  -10.6211 C   0  0  2  0  0  0  0  0  0  0  0  0
   20.8204   39.9297  -10.4823 C   0  0  0  0  0  0  0  0  0  0  0  0
   20.0156   39.3941   -9.3065 C   0  0  0  0  0  0  0  0  0  0  0  0
   18.7197   38.8758   -9.5086 C   0  0  0  0  0  0  0  0  0  0  0  0
   17.9483   38.4424   -8.4092 C   0  0  0  0  0  0  0  0  0  0  0  0
   16.5457   37.9176   -8.6269 C   0  0  0  0  0  0  0  0  0  0  0  0
   15.4564   38.9322   -8.2351 C   0  0  0  0  0  0  0  0  0  0  0  0
   14.2942   38.9474   -9.2364 C   0  0  0  0  0  0  0  0  0  0  0  0
   14.6178   39.7549  -10.5043 C   0  0  0  0  0  0  0  0  0  0  0  0
   14.2021   41.1454  -10.3759 N   0  0  0  0  0  0  0  0  0  0  0  0
   15.0621   42.1987  -10.7012 C   0  0  0  0  0  0  0  0  0  0  0  0
   16.4539   42.1000  -10.5019 C   0  0  0  0  0  0  0  0  0  0  0  0
   17.3069   43.1647  -10.8597 C   0  0  0  0  0  0  0  0  0  0  0  0
   16.7557   44.3401  -11.4106 C   0  0  0  0  0  0  0  0  0  0  0  0
   15.3629   44.4530  -11.6106 C   0  0  0  0  0  0  0  0  0  0  0  0
   14.5203   43.3833  -11.2392 C   0  0  0  0  0  0  0  0  0  0  0  0
   14.8078   45.6531  -12.2293 C   0  0  0  0  0  0  0  0  0  0  0  0
   15.4605   46.6729  -12.7855 N   0  0  0  0  0  0  0  0  0  0  0  0
   14.4826   47.4906  -13.3288 C   0  0  0  0  0  0  0  0  0  0  0  0
   13.2645   46.9291  -13.0573 C   0  0  0  0  0  0  0  0  0  0  0  0
   13.4546   45.7671  -12.3550 O   0  0  0  0  0  0  0  0  0  0  0  0
   18.7822   43.0601  -10.6191 C   0  0  0  0  0  0  0  0  0  0  0  0
   19.4421   44.0383  -10.2710 O   0  0  0  0  0  0  0  0  0  0  0  0
   19.3085   41.8489  -10.8528 N   0  0  0  0  0  0  0  0  0  0  0  0
   18.4757   38.5141   -7.1050 C   0  0  0  0  0  0  0  0  0  0  0  0
   19.7776   39.0063   -6.9008 C   0  0  0  0  0  0  0  0  0  0  0  0
   20.5428   39.4460   -7.9976 C   0  0  0  0  0  0  0  0  0  0  0  0
   21.2691   43.1204  -11.9464 H   0  0  0  0  0  0  0  0  0  0  0  0
   20.9413   41.8776   -9.6412 H   0  0  0  0  0  0  0  0  0  0  0  0
   27.5053   43.9689   -5.2054 H   0  0  0  0  0  0  0  0  0  0  0  0
   28.5947   45.2549   -4.7074 H   0  0  0  0  0  0  0  0  0  0  0  0
   29.0592   44.1586   -6.0030 H   0  0  0  0  0  0  0  0  0  0  0  0
   28.2184   47.3330   -7.8467 H   0  0  0  0  0  0  0  0  0  0  0  0
   29.5319   46.2275   -7.4402 H   0  0  0  0  0  0  0  0  0  0  0  0
   28.9259   47.3314   -6.2358 H   0  0  0  0  0  0  0  0  0  0  0  0
   25.8906   47.0517   -6.6135 H   0  0  0  0  0  0  0  0  0  0  0  0
   26.8290   47.0812   -5.1280 H   0  0  0  0  0  0  0  0  0  0  0  0
   25.7221   45.7669   -5.4131 H   0  0  0  0  0  0  0  0  0  0  0  0
   25.0329   44.5342   -7.0416 H   0  0  0  0  0  0  0  0  0  0  0  0
   28.0582   43.2919  -10.6879 H   0  0  0  0  0  0  0  0  0  0  0  0
   28.9526   44.7243   -8.8816 H   0  0  0  0  0  0  0  0  0  0  0  0
   23.2358   40.6765   -8.8932 H   0  0  0  0  0  0  0  0  0  0  0  0
   24.8242   40.9470   -8.0406 H   0  0  0  0  0  0  0  0  0  0  0  0
   23.7372   42.7222   -6.6533 H   0  0  0  0  0  0  0  0  0  0  0  0
   22.1770   42.5005   -7.5877 H   0  0  0  0  0  0  0  0  0  0  0  0
   22.1957   43.4332   -9.6817 H   0  0  0  0  0  0  0  0  0  0  0  0
   23.7010   42.7288  -11.9652 H   0  0  0  0  0  0  0  0  0  0  0  0
   23.5238   41.3482  -10.9362 H   0  0  0  0  0  0  0  0  0  0  0  0
   22.5515   41.0149  -12.9551 H   0  0  0  0  0  0  0  0  0  0  0  0
   21.8623   39.6393  -10.3531 H   0  0  0  0  0  0  0  0  0  0  0  0
   20.4869   39.4381  -11.3979 H   0  0  0  0  0  0  0  0  0  0  0  0
   18.3064   38.8296  -10.5047 H   0  0  0  0  0  0  0  0  0  0  0  0
   16.4227   37.0064   -8.0418 H   0  0  0  0  0  0  0  0  0  0  0  0
   16.4472   37.6188   -9.6712 H   0  0  0  0  0  0  0  0  0  0  0  0
   15.8681   39.9393   -8.1568 H   0  0  0  0  0  0  0  0  0  0  0  0
   15.0901   38.6859   -7.2361 H   0  0  0  0  0  0  0  0  0  0  0  0
   13.3919   39.3459   -8.7693 H   0  0  0  0  0  0  0  0  0  0  0  0
   14.0595   37.9187   -9.5052 H   0  0  0  0  0  0  0  0  0  0  0  0
   14.0614   39.3532  -11.3455 H   0  0  0  0  0  0  0  0  0  0  0  0
   15.6621   39.6415  -10.7887 H   0  0  0  0  0  0  0  0  0  0  0  0
   13.2103   41.3043  -10.2499 H   0  0  0  0  0  0  0  0  0  0  0  0
   16.8705   41.2154  -10.0441 H   0  0  0  0  0  0  0  0  0  0  0  0
   17.4066   45.1599  -11.6831 H   0  0  0  0  0  0  0  0  0  0  0  0
   13.4529   43.4555  -11.3921 H   0  0  0  0  0  0  0  0  0  0  0  0
   14.7307   48.3941  -13.8676 H   0  0  0  0  0  0  0  0  0  0  0  0
   12.2453   47.2012  -13.2912 H   0  0  0  0  0  0  0  0  0  0  0  0
   18.6866   41.1164  -11.1604 H   0  0  0  0  0  0  0  0  0  0  0  0
   17.8815   38.1890   -6.2627 H   0  0  0  0  0  0  0  0  0  0  0  0
   20.1843   39.0613   -5.9025 H   0  0  0  0  0  0  0  0  0  0  0  0
   21.5328   39.8322   -7.8182 H   0  0  0  0  0  0  0  0  0  0  0  0
  1  2  1  0  0  0  0
  1 47  1  0  0  0  0
  1 48  1  0  0  0  0
  1 49  1  0  0  0  0
  2  3  1  0  0  0  0
  2  4  1  0  0  0  0
  2  5  1  0  0  0  0
  3 50  1  0  0  0  0
  3 51  1  0  0  0  0
  3 52  1  0  0  0  0
  4 53  1  0  0  0  0
  4 54  1  0  0  0  0
  4 55  1  0  0  0  0
  5 10  1  0  0  0  0
  5  6  2  0  0  0  0
  6  7  1  0  0  0  0
  6 56  1  0  0  0  0
  7  8  2  0  0  0  0
  7 11  1  0  0  0  0
  8  9  1  0  0  0  0
  9 10  2  0  0  0  0
  9 57  1  0  0  0  0
 10 58  1  0  0  0  0
 11 13  1  0  0  0  0
 11 12  1  0  0  0  0
 11 14  1  0  0  0  0
 12 13  1  0  0  0  0
 12 59  1  0  0  0  0
 12 60  1  0  0  0  0
 13 61  1  0  0  0  0
 13 62  1  0  0  0  0
 14 15  1  0  0  0  0
 14 63  1  0  0  0  0
 15 16  1  0  0  0  0
 15 64  1  0  0  0  0
 15 65  1  0  0  0  0
 16 45  1  6  0  0  0
 16 17  1  0  0  0  0
 16 18  1  0  0  0  0
 17 66  1  0  0  0  0
 18 46  1  1  0  0  0
 18 41  1  0  0  0  0
 18 19  1  0  0  0  0
 19 20  1  0  0  0  0
 19 67  1  0  0  0  0
 19 68  1  0  0  0  0
 20 44  1  0  0  0  0
 20 21  2  0  0  0  0
 21 22  1  0  0  0  0
 21 69  1  0  0  0  0
 22 23  1  0  0  0  0
 22 42  2  0  0  0  0
 23 24  1  0  0  0  0
 23 70  1  0  0  0  0
 23 71  1  0  0  0  0
 24 25  1  0  0  0  0
 24 72  1  0  0  0  0
 24 73  1  0  0  0  0
 25 26  1  0  0  0  0
 25 74  1  0  0  0  0
 25 75  1  0  0  0  0
 26 27  1  0  0  0  0
 26 76  1  0  0  0  0
 26 77  1  0  0  0  0
 27 28  1  0  0  0  0
 27 78  1  0  0  0  0
 28 33  1  0  0  0  0
 28 29  2  0  0  0  0
 29 30  1  0  0  0  0
 29 79  1  0  0  0  0
 30 31  2  0  0  0  0
 30 39  1  0  0  0  0
 31 32  1  0  0  0  0
 31 80  1  0  0  0  0
 32 33  2  0  0  0  0
 32 34  1  0  0  0  0
 33 81  1  0  0  0  0
 34 38  1  0  0  0  0
 34 35  2  0  0  0  0
 35 36  1  0  0  0  0
 36 37  2  0  0  0  0
 36 82  1  0  0  0  0
 37 38  1  0  0  0  0
 37 83  1  0  0  0  0
 39 40  2  0  0  0  0
 39 41  1  0  0  0  0
 41 84  1  0  0  0  0
 42 43  1  0  0  0  0
 42 85  1  0  0  0  0
 43 44  2  0  0  0  0
 43 86  1  0  0  0  0
 44 87  1  0  0  0  0
M  END
