BACE_1.smi:1
 OpenBabel09301811243D
Structure written by MMmdl.
 87 88  0  0  1  0  0  0  0  0999 V2000
   28.2450   42.1422  -12.4394 C   0  0  0  0  0  0  0  0  0  0  0  0
   27.2458   41.4113  -11.5405 C   0  0  0  0  0  0  0  0  0  0  0  0
   26.0723   42.3028  -11.1258 C   0  0  0  0  0  0  0  0  0  0  0  0
   25.1312   41.5958  -10.1295 C   0  0  0  0  0  0  0  0  0  0  0  0
   24.1884   42.5139   -9.5003 N   0  0  0  0  0  0  0  0  0  0  0  0
   24.5308   43.4871   -8.6385 C   0  0  0  0  0  0  0  0  0  0  0  0
   25.6999   43.7500   -8.3552 O   0  0  0  0  0  0  0  0  0  0  0  0
   23.3874   44.2658   -7.9770 C   0  0  2  0  0  0  0  0  0  0  0  0
   22.9531   45.4462   -8.8636 C   0  0  0  0  0  0  0  0  0  0  0  0
   23.8025   44.7268   -6.5535 C   0  0  0  0  0  0  0  0  0  0  0  0
   22.6653   45.2345   -5.6420 C   0  0  2  0  0  0  0  0  0  0  0  0
   23.2582   45.7213   -4.4468 O   0  0  0  0  0  0  0  0  0  0  0  0
   21.5517   44.2069   -5.2993 C   0  0  2  0  0  0  0  0  0  0  0  0
   22.0719   42.7907   -4.9432 C   0  0  0  0  0  0  0  0  0  0  0  0
   20.9891   41.8238   -4.4044 C   0  0  2  0  0  0  0  0  0  0  0  0
   20.6685   42.1321   -2.9283 C   0  0  0  0  0  0  0  0  0  0  0  0
   21.4068   40.3428   -4.5725 C   0  0  0  0  0  0  0  0  0  0  0  0
   21.2761   39.7553   -5.9991 C   0  0  0  0  0  0  0  0  0  0  0  0
   19.8258   39.4717   -6.4347 C   0  0  0  0  0  0  0  0  0  0  0  0
   19.6808   38.9484   -7.8766 C   0  0  0  0  0  0  0  0  0  0  0  0
   18.2125   38.7942   -8.3414 C   0  0  0  0  0  0  0  0  0  0  0  0
   17.4842   40.0746   -8.3110 N   0  0  0  0  0  0  0  0  0  0  0  0
   16.4994   40.2258   -7.2292 C   0  0  0  0  0  0  0  0  0  0  0  0
   15.0909   39.8249   -7.6872 C   0  0  0  0  0  0  0  0  0  0  0  0
   17.6645   41.0041   -9.2805 C   0  0  0  0  0  0  0  0  0  0  0  0
   18.0219   40.7266  -10.4260 O   0  0  0  0  0  0  0  0  0  0  0  0
   17.5891   42.4516   -8.8856 C   0  0  0  0  0  0  0  0  0  0  0  0
   16.8028   43.3658   -9.6142 C   0  0  0  0  0  0  0  0  0  0  0  0
   16.8414   44.7467   -9.3257 C   0  0  0  0  0  0  0  0  0  0  0  0
   17.6755   45.2124   -8.2747 C   0  0  0  0  0  0  0  0  0  0  0  0
   18.4878   44.3107   -7.5507 C   0  0  0  0  0  0  0  0  0  0  0  0
   18.4208   42.9353   -7.8554 C   0  0  0  0  0  0  0  0  0  0  0  0
   19.4024   44.7927   -6.4599 C   0  0  0  0  0  0  0  0  0  0  0  0
   19.1009   45.7483   -5.7420 O   0  0  0  0  0  0  0  0  0  0  0  0
   20.5565   44.1118   -6.3643 N   0  0  0  0  0  0  0  0  0  0  0  0
   16.0575   45.5663  -10.1066 O   0  0  0  0  0  0  0  0  0  0  0  0
   16.4586   46.9244  -10.2801 C   0  0  0  0  0  0  0  0  0  0  0  0
   17.7292   47.0301  -11.1421 C   0  0  0  0  0  0  0  0  0  0  0  0
   22.5598   43.5630   -7.8981 H   0  0  0  0  0  0  0  0  0  0  0  0
   22.1989   46.1075   -6.1010 H   0  0  0  0  0  0  0  0  0  0  0  0
   21.0131   44.5884   -4.4400 H   0  0  0  0  0  0  0  0  0  0  0  0
   20.0626   41.9698   -4.9596 H   0  0  0  0  0  0  0  0  0  0  0  0
   29.0224   41.4602  -12.7876 H   0  0  0  0  0  0  0  0  0  0  0  0
   28.7283   42.9603  -11.9061 H   0  0  0  0  0  0  0  0  0  0  0  0
   27.7499   42.5612  -13.3136 H   0  0  0  0  0  0  0  0  0  0  0  0
   26.8666   40.5212  -12.0385 H   0  0  0  0  0  0  0  0  0  0  0  0
   27.7633   41.0628  -10.6490 H   0  0  0  0  0  0  0  0  0  0  0  0
   26.4824   43.2147  -10.6944 H   0  0  0  0  0  0  0  0  0  0  0  0
   25.5075   42.6083  -12.0076 H   0  0  0  0  0  0  0  0  0  0  0  0
   24.5725   40.8138  -10.6427 H   0  0  0  0  0  0  0  0  0  0  0  0
   25.6985   41.0927   -9.3475 H   0  0  0  0  0  0  0  0  0  0  0  0
   23.2078   42.3651   -9.6927 H   0  0  0  0  0  0  0  0  0  0  0  0
   22.7101   45.1144   -9.8738 H   0  0  0  0  0  0  0  0  0  0  0  0
   23.7401   46.1963   -8.9393 H   0  0  0  0  0  0  0  0  0  0  0  0
   22.0644   45.9344   -8.4654 H   0  0  0  0  0  0  0  0  0  0  0  0
   24.3311   43.9171   -6.0435 H   0  0  0  0  0  0  0  0  0  0  0  0
   24.5418   45.5244   -6.6543 H   0  0  0  0  0  0  0  0  0  0  0  0
   23.8628   45.0698   -4.1047 H   0  0  0  0  0  0  0  0  0  0  0  0
   22.5311   42.3592   -5.8296 H   0  0  0  0  0  0  0  0  0  0  0  0
   22.8784   42.8721   -4.2120 H   0  0  0  0  0  0  0  0  0  0  0  0
   21.5412   41.9895   -2.2944 H   0  0  0  0  0  0  0  0  0  0  0  0
   19.8774   41.4815   -2.5578 H   0  0  0  0  0  0  0  0  0  0  0  0
   20.3226   43.1577   -2.7959 H   0  0  0  0  0  0  0  0  0  0  0  0
   22.4320   40.2246   -4.2234 H   0  0  0  0  0  0  0  0  0  0  0  0
   20.8001   39.7503   -3.8932 H   0  0  0  0  0  0  0  0  0  0  0  0
   21.7586   40.4134   -6.7199 H   0  0  0  0  0  0  0  0  0  0  0  0
   21.8330   38.8188   -6.0399 H   0  0  0  0  0  0  0  0  0  0  0  0
   19.3479   38.7741   -5.7476 H   0  0  0  0  0  0  0  0  0  0  0  0
   19.2611   40.3900   -6.3465 H   0  0  0  0  0  0  0  0  0  0  0  0
   20.2073   39.6146   -8.5593 H   0  0  0  0  0  0  0  0  0  0  0  0
   20.1811   37.9831   -7.9598 H   0  0  0  0  0  0  0  0  0  0  0  0
   18.1875   38.3798   -9.3508 H   0  0  0  0  0  0  0  0  0  0  0  0
   17.7050   38.0538   -7.7197 H   0  0  0  0  0  0  0  0  0  0  0  0
   16.7826   39.6037   -6.3786 H   0  0  0  0  0  0  0  0  0  0  0  0
   16.4657   41.2417   -6.8406 H   0  0  0  0  0  0  0  0  0  0  0  0
   14.3807   39.9323   -6.8681 H   0  0  0  0  0  0  0  0  0  0  0  0
   15.0641   38.7853   -8.0096 H   0  0  0  0  0  0  0  0  0  0  0  0
   14.7437   40.4474   -8.5083 H   0  0  0  0  0  0  0  0  0  0  0  0
   16.1846   43.0085  -10.4242 H   0  0  0  0  0  0  0  0  0  0  0  0
   17.7280   46.2598   -8.0187 H   0  0  0  0  0  0  0  0  0  0  0  0
   19.0348   42.2369   -7.3121 H   0  0  0  0  0  0  0  0  0  0  0  0
   20.6916   43.3674   -7.0297 H   0  0  0  0  0  0  0  0  0  0  0  0
   15.6483   47.4297  -10.8057 H   0  0  0  0  0  0  0  0  0  0  0  0
   16.5633   47.4606   -9.3343 H   0  0  0  0  0  0  0  0  0  0  0  0
   17.9929   48.0728  -11.3156 H   0  0  0  0  0  0  0  0  0  0  0  0
   17.5792   46.5570  -12.1132 H   0  0  0  0  0  0  0  0  0  0  0  0
   18.5810   46.5488  -10.6603 H   0  0  0  0  0  0  0  0  0  0  0  0
  1  2  1  0  0  0  0
  1 43  1  0  0  0  0
  1 44  1  0  0  0  0
  1 45  1  0  0  0  0
  2  3  1  0  0  0  0
  2 46  1  0  0  0  0
  2 47  1  0  0  0  0
  3  4  1  0  0  0  0
  3 48  1  0  0  0  0
  3 49  1  0  0  0  0
  4  5  1  0  0  0  0
  4 50  1  0  0  0  0
  4 51  1  0  0  0  0
  5  6  1  0  0  0  0
  5 52  1  0  0  0  0
  6  7  2  0  0  0  0
  6  8  1  0  0  0  0
  8 39  1  1  0  0  0
  8  9  1  0  0  0  0
  8 10  1  0  0  0  0
  9 53  1  0  0  0  0
  9 54  1  0  0  0  0
  9 55  1  0  0  0  0
 10 11  1  0  0  0  0
 10 56  1  0  0  0  0
 10 57  1  0  0  0  0
 11 40  1  6  0  0  0
 11 12  1  0  0  0  0
 11 13  1  0  0  0  0
 12 58  1  0  0  0  0
 13 41  1  1  0  0  0
 13 35  1  0  0  0  0
 13 14  1  0  0  0  0
 14 15  1  0  0  0  0
 14 59  1  0  0  0  0
 14 60  1  0  0  0  0
 15 42  1  6  0  0  0
 15 16  1  0  0  0  0
 15 17  1  0  0  0  0
 16 61  1  0  0  0  0
 16 62  1  0  0  0  0
 16 63  1  0  0  0  0
 17 18  1  0  0  0  0
 17 64  1  0  0  0  0
 17 65  1  0  0  0  0
 18 19  1  0  0  0  0
 18 66  1  0  0  0  0
 18 67  1  0  0  0  0
 19 20  1  0  0  0  0
 19 68  1  0  0  0  0
 19 69  1  0  0  0  0
 20 21  1  0  0  0  0
 20 70  1  0  0  0  0
 20 71  1  0  0  0  0
 21 22  1  0  0  0  0
 21 72  1  0  0  0  0
 21 73  1  0  0  0  0
 22 23  1  0  0  0  0
 22 25  1  0  0  0  0
 23 24  1  0  0  0  0
 23 74  1  0  0  0  0
 23 75  1  0  0  0  0
 24 76  1  0  0  0  0
 24 77  1  0  0  0  0
 24 78  1  0  0  0  0
 25 26  2  0  0  0  0
 25 27  1  0  0  0  0
 27 32  1  0  0  0  0
 27 28  2  0  0  0  0
 28 29  1  0  0  0  0
 28 79  1  0  0  0  0
 29 30  2  0  0  0  0
 29 36  1  0  0  0  0
 30 31  1  0  0  0  0
 30 80  1  0  0  0  0
 31 32  2  0  0  0  0
 31 33  1  0  0  0  0
 32 81  1  0  0  0  0
 33 34  2  0  0  0  0
 33 35  1  0  0  0  0
 35 82  1  0  0  0  0
 36 37  1  0  0  0  0
 37 38  1  0  0  0  0
 37 83  1  0  0  0  0
 37 84  1  0  0  0  0
 38 85  1  0  0  0  0
 38 86  1  0  0  0  0
 38 87  1  0  0  0  0
M  END
