BACE_11.smi:1
 OpenBabel10031817133D
Structure written by MMmdl.
 81 83  0  0  1  0  0  0  0  0999 V2000
   22.2602   41.6068   -4.3662 C   0  0  0  0  0  0  0  0  0  0  0  0
   21.7257   41.6602   -5.8130 C   0  0  1  0  0  0  0  0  0  0  0  0
   20.8500   40.4643   -6.2432 C   0  0  0  0  0  0  0  0  0  0  0  0
   21.1809   39.3475   -5.8738 O   0  0  0  0  0  0  0  0  0  0  0  0
   19.8333   40.6723   -7.1003 N   0  0  0  0  0  0  0  0  0  0  0  0
   19.0398   39.6703   -7.8313 C   0  0  1  0  0  0  0  0  0  0  0  0
   19.8821   38.7649   -8.7687 C   0  0  0  0  0  0  0  0  0  0  0  0
   20.5373   39.5586   -9.8894 C   0  0  0  0  0  0  0  0  0  0  0  0
   19.9705   39.5705  -11.1807 C   0  0  0  0  0  0  0  0  0  0  0  0
   20.5365   40.3731  -12.1892 C   0  0  0  0  0  0  0  0  0  0  0  0
   21.6461   41.1927  -11.9038 C   0  0  0  0  0  0  0  0  0  0  0  0
   22.2164   41.1970  -10.6080 C   0  0  0  0  0  0  0  0  0  0  0  0
   21.6825   40.3398   -9.6300 C   0  0  0  0  0  0  0  0  0  0  0  0
   23.2570   42.0073  -10.2154 O   0  0  0  0  0  0  0  0  0  0  0  0
   23.6993   43.0181  -11.1073 C   0  0  0  0  0  0  0  0  0  0  0  0
   24.5910   44.0054  -10.3400 C   0  0  0  0  0  0  0  0  0  0  0  0
   23.8183   44.9770   -9.4175 C   0  0  0  0  0  0  0  0  0  0  0  0
   24.1405   44.8279   -7.9165 C   0  0  0  0  0  0  0  0  0  0  0  0
   23.4066   43.6656   -7.2136 C   0  0  0  0  0  0  0  0  0  0  0  0
   21.9364   43.9482   -6.8306 C   0  0  0  0  0  0  0  0  0  0  0  0
   21.4411   45.0355   -7.1357 O   0  0  0  0  0  0  0  0  0  0  0  0
   21.2242   43.0110   -6.1500 N   0  0  0  0  0  0  0  0  0  0  0  0
   19.9188   43.3791   -5.5851 C   0  0  0  0  0  0  0  0  0  0  0  0
   17.9561   38.9472   -6.9754 C   0  0  1  0  0  0  0  0  0  0  0  0
   16.6939   38.5676   -7.7937 C   0  0  0  0  0  0  0  0  0  0  0  0
   15.4172   38.9500   -7.1326 N   0  3  0  0  0  0  0  0  0  0  0  0
   15.1310   40.3992   -6.9869 C   0  0  0  0  0  0  0  0  0  0  0  0
   15.5122   41.2223   -8.2100 C   0  0  0  0  0  0  0  0  0  0  0  0
   14.8596   40.9975   -9.4402 C   0  0  0  0  0  0  0  0  0  0  0  0
   15.2493   41.7087  -10.5882 C   0  0  0  0  0  0  0  0  0  0  0  0
   16.2859   42.6567  -10.5127 C   0  0  0  0  0  0  0  0  0  0  0  0
   16.9245   42.9181   -9.2804 C   0  0  0  0  0  0  0  0  0  0  0  0
   16.5322   42.1947   -8.1315 C   0  0  0  0  0  0  0  0  0  0  0  0
   18.0389   43.9539   -9.1880 C   0  0  0  0  0  0  0  0  0  0  0  0
   17.6491   45.3015   -9.8171 C   0  0  0  0  0  0  0  0  0  0  0  0
   19.3513   43.4133   -9.7755 C   0  0  0  0  0  0  0  0  0  0  0  0
   18.4600   37.7501   -6.4321 O   0  0  0  0  0  0  0  0  0  0  0  0
   22.6049   41.4490   -6.4150 H   0  0  0  0  0  0  0  0  0  0  0  0
   18.4743   40.3118   -8.5063 H   0  0  0  0  0  0  0  0  0  0  0  0
   17.6707   39.5722   -6.1395 H   0  0  0  0  0  0  0  0  0  0  0  0
   22.7230   40.6438   -4.1459 H   0  0  0  0  0  0  0  0  0  0  0  0
   21.4635   41.7592   -3.6381 H   0  0  0  0  0  0  0  0  0  0  0  0
   23.0180   42.3714   -4.1931 H   0  0  0  0  0  0  0  0  0  0  0  0
   19.6384   41.6349   -7.3284 H   0  0  0  0  0  0  0  0  0  0  0  0
   20.6454   38.2208   -8.2120 H   0  0  0  0  0  0  0  0  0  0  0  0
   19.2439   38.0001   -9.2126 H   0  0  0  0  0  0  0  0  0  0  0  0
   19.0981   38.9722  -11.4024 H   0  0  0  0  0  0  0  0  0  0  0  0
   20.1080   40.3707  -13.1804 H   0  0  0  0  0  0  0  0  0  0  0  0
   22.0490   41.8024  -12.6978 H   0  0  0  0  0  0  0  0  0  0  0  0
   22.1376   40.3278   -8.6527 H   0  0  0  0  0  0  0  0  0  0  0  0
   24.2688   42.5528  -11.9128 H   0  0  0  0  0  0  0  0  0  0  0  0
   22.8657   43.5601  -11.5561 H   0  0  0  0  0  0  0  0  0  0  0  0
   25.3548   43.4577   -9.7866 H   0  0  0  0  0  0  0  0  0  0  0  0
   25.1362   44.5987  -11.0753 H   0  0  0  0  0  0  0  0  0  0  0  0
   24.0837   45.9938   -9.7102 H   0  0  0  0  0  0  0  0  0  0  0  0
   22.7432   44.9063   -9.5859 H   0  0  0  0  0  0  0  0  0  0  0  0
   25.2164   44.7039   -7.7897 H   0  0  0  0  0  0  0  0  0  0  0  0
   23.9058   45.7634   -7.4059 H   0  0  0  0  0  0  0  0  0  0  0  0
   23.4672   42.7825   -7.8466 H   0  0  0  0  0  0  0  0  0  0  0  0
   23.9430   43.4309   -6.2938 H   0  0  0  0  0  0  0  0  0  0  0  0
   19.1333   43.2701   -6.3280 H   0  0  0  0  0  0  0  0  0  0  0  0
   19.9037   44.4067   -5.2184 H   0  0  0  0  0  0  0  0  0  0  0  0
   19.6605   42.7503   -4.7342 H   0  0  0  0  0  0  0  0  0  0  0  0
   16.7252   39.0013   -8.7918 H   0  0  0  0  0  0  0  0  0  0  0  0
   16.6654   37.4936   -7.9903 H   0  0  0  0  0  0  0  0  0  0  0  0
   14.6692   38.5649   -7.6903 H   0  0  0  0  0  0  0  0  0  0  0  0
   14.0600   40.5087   -6.8399 H   0  0  0  0  0  0  0  0  0  0  0  0
   15.6183   40.7882   -6.0912 H   0  0  0  0  0  0  0  0  0  0  0  0
   14.0648   40.2679   -9.5102 H   0  0  0  0  0  0  0  0  0  0  0  0
   14.7527   41.5191  -11.5265 H   0  0  0  0  0  0  0  0  0  0  0  0
   16.5856   43.1852  -11.4045 H   0  0  0  0  0  0  0  0  0  0  0  0
   17.0220   42.3729   -7.1846 H   0  0  0  0  0  0  0  0  0  0  0  0
   18.2077   44.1554   -8.1315 H   0  0  0  0  0  0  0  0  0  0  0  0
   16.7314   45.6882   -9.3735 H   0  0  0  0  0  0  0  0  0  0  0  0
   17.4965   45.2224  -10.8927 H   0  0  0  0  0  0  0  0  0  0  0  0
   18.4317   46.0441   -9.6562 H   0  0  0  0  0  0  0  0  0  0  0  0
   19.6633   42.5032   -9.2656 H   0  0  0  0  0  0  0  0  0  0  0  0
   20.1609   44.1364   -9.6704 H   0  0  0  0  0  0  0  0  0  0  0  0
   19.2525   43.1777  -10.8358 H   0  0  0  0  0  0  0  0  0  0  0  0
   17.7456   37.2545   -6.0443 H   0  0  0  0  0  0  0  0  0  0  0  0
   15.3615   38.4943   -6.2211 H   0  0  0  0  0  0  0  0  0  0  0  0
  1  2  1  0  0  0  0
  1 41  1  0  0  0  0
  1 42  1  0  0  0  0
  1 43  1  0  0  0  0
  2 38  1  6  0  0  0
  2 22  1  0  0  0  0
  2  3  1  0  0  0  0
  3  4  2  0  0  0  0
  3  5  1  0  0  0  0
  5  6  1  0  0  0  0
  5 44  1  0  0  0  0
  6 39  1  6  0  0  0
  6  7  1  0  0  0  0
  6 24  1  0  0  0  0
  7  8  1  0  0  0  0
  7 45  1  0  0  0  0
  7 46  1  0  0  0  0
  8 13  1  0  0  0  0
  8  9  2  0  0  0  0
  9 10  1  0  0  0  0
  9 47  1  0  0  0  0
 10 11  2  0  0  0  0
 10 48  1  0  0  0  0
 11 12  1  0  0  0  0
 11 49  1  0  0  0  0
 12 13  2  0  0  0  0
 12 14  1  0  0  0  0
 13 50  1  0  0  0  0
 14 15  1  0  0  0  0
 15 16  1  0  0  0  0
 15 51  1  0  0  0  0
 15 52  1  0  0  0  0
 16 17  1  0  0  0  0
 16 53  1  0  0  0  0
 16 54  1  0  0  0  0
 17 18  1  0  0  0  0
 17 55  1  0  0  0  0
 17 56  1  0  0  0  0
 18 19  1  0  0  0  0
 18 57  1  0  0  0  0
 18 58  1  0  0  0  0
 19 20  1  0  0  0  0
 19 59  1  0  0  0  0
 19 60  1  0  0  0  0
 20 21  2  0  0  0  0
 20 22  1  0  0  0  0
 22 23  1  0  0  0  0
 23 61  1  0  0  0  0
 23 62  1  0  0  0  0
 23 63  1  0  0  0  0
 24 40  1  1  0  0  0
 24 25  1  0  0  0  0
 24 37  1  0  0  0  0
 25 26  1  0  0  0  0
 25 64  1  0  0  0  0
 25 65  1  0  0  0  0
 26 27  1  0  0  0  0
 26 66  1  0  0  0  0
 26 81  1  0  0  0  0
 27 28  1  0  0  0  0
 27 67  1  0  0  0  0
 27 68  1  0  0  0  0
 28 33  1  0  0  0  0
 28 29  2  0  0  0  0
 29 30  1  0  0  0  0
 29 69  1  0  0  0  0
 30 31  2  0  0  0  0
 30 70  1  0  0  0  0
 31 32  1  0  0  0  0
 31 71  1  0  0  0  0
 32 33  2  0  0  0  0
 32 34  1  0  0  0  0
 33 72  1  0  0  0  0
 34 35  1  0  0  0  0
 34 36  1  0  0  0  0
 34 73  1  0  0  0  0
 35 74  1  0  0  0  0
 35 75  1  0  0  0  0
 35 76  1  0  0  0  0
 36 77  1  0  0  0  0
 36 78  1  0  0  0  0
 36 79  1  0  0  0  0
 37 80  1  0  0  0  0
M  CHG  1  26   1
M  END
>  <s_m_source_file>
BACE_11.smi

>  <i_m_source_file_index>
1

>  <i_lp_mmshare_version>
42013

>  <i_f3d_flags>
0

>  <s_epik_input>
YzEyW2NIXVtjSF1bY0hdYyhbY0hdMilPW0NIMl1bQ0gyXVtDSDJdW0NIMl1bQ0gyXUMoPU8pTihbQ0gzXSlbQ0BASF0oW0NIM10pQyg9TylbTkhdW0NAQEhdKFtDSDJdMSlbQ0BIXShbT0hdKVtDSDJdW05IXVtDSDJdYzNbY0hdW2NIXVtjSF1jKFtjSF0zKVtDSF0oW0NIM10pW0NIM10=

>  <s_epik_cmdline>
J2VwaWtfcHl0aG9uJywgJy1waCcsICc3LjAnLCAnLXRuJywgJzgnLCAnLW1hJywgJzIwMCcsICctaW1hZScsICc8aW5maWxlLm1hZT4nLCAnLW9tYWUnLCAnPG91dGZpbGUubWFlPic=

>  <r_lp_tautomer_probability>
1

>  <r_epik_Ionization_Penalty>
0.021

>  <r_epik_Ionization_Penalty_Charging>
0.021

>  <r_epik_Ionization_Penalty_Neutral>
0

>  <r_epik_State_Penalty>
0.0169

>  <r_epik_Charging_Adjusted_Penalty>
0.0378979

>  <i_epik_Tot_Q>
1

>  <i_epik_Tot_abs_Q>
1

>  <s_lp_Force_Field>
OPLS_2005

>  <r_lp_Energy>
36.6322

>  <b_lp_Chiralities_Consistent>
1

>  <s_lp_Variant>
BACE_11.smi:1-1

>  <chiral flag>
1

>  <version>
0

>  <r_i_glide_lipo>
-0.730831

>  <r_i_glide_hbond>
-0.32

>  <r_i_glide_metal>
-0

>  <r_i_glide_rewards>
-0.348713

>  <r_i_glide_erotb>
0.39279

>  <r_i_glide_esite>
-0.036294

>  <s_i_glide_gridfile>
second_dock_grid_2

>  <i_i_glide_lignum>
22

>  <i_i_glide_rotatable_bonds>
7

>  <r_i_docking_score>
-6.01365

>  <r_i_glide_ligand_efficiency>
-0.162531

>  <r_i_glide_ligand_efficiency_sa>
-0.54159

>  <r_i_glide_ligand_efficiency_ln>
-1.30422

>  <r_glide_XP_GScore>
-6.03055

>  <r_i_glide_gscore>
-6.03055

>  <r_i_glide_evdw>
-35.6611

>  <r_i_glide_ecoul>
-12.5861

>  <r_i_glide_energy>
-48.2472

>  <r_i_glide_einternal>
12.2678

>  <r_i_glide_emodel>
-57.2097

>  <r_glide_XP_HBond>
-0.319272

>  <i_i_glide_confnum>
1

>  <i_i_glide_posenum>
42

>  <r_i_glide_eff_state_penalty>
0.0169

>  <i_glide_XP_PoseRank>
3

>  <chiral flag>
1

$$$$
