BACE_2.smi:1
 OpenBabel10031817233D
Structure written by MMmdl.
 96 98  0  0  1  0  0  0  0  0999 V2000
   31.9423   43.4958  -12.0627 C   0  0  0  0  0  0  0  0  0  0  0  0
   32.0044   43.0020  -13.3751 C   0  0  0  0  0  0  0  0  0  0  0  0
   30.8576   42.4477  -13.9812 C   0  0  0  0  0  0  0  0  0  0  0  0
   30.9133   41.9441  -15.4166 C   0  0  0  0  0  0  0  0  0  0  0  0
   30.9264   43.1129  -16.4101 C   0  0  0  0  0  0  0  0  0  0  0  0
   32.0973   40.9922  -15.6555 C   0  0  0  0  0  0  0  0  0  0  0  0
   29.6494   42.3830  -13.2524 C   0  0  0  0  0  0  0  0  0  0  0  0
   29.5781   42.8715  -11.9263 C   0  0  0  0  0  0  0  0  0  0  0  0
   30.7349   43.4563  -11.3421 C   0  0  0  0  0  0  0  0  0  0  0  0
   28.2719   42.8253  -11.1352 C   0  0  2  0  0  0  0  0  0  0  0  0
   28.5644   43.0847   -9.6431 C   0  0  0  0  0  0  0  0  0  0  0  0
   29.5003   44.3023   -9.4589 C   0  0  0  0  0  0  0  0  0  0  0  0
   30.7474   44.0065  -10.0795 O   0  0  0  0  0  0  0  0  0  0  0  0
   28.9233   45.6057  -10.0548 C   0  0  0  0  0  0  0  0  0  0  0  0
   29.8394   44.5495   -7.9790 C   0  0  0  0  0  0  0  0  0  0  0  0
   27.5064   41.5704  -11.3748 N   0  3  0  0  0  0  0  0  0  0  0  0
   26.2113   41.3794  -10.6619 C   0  0  0  0  0  0  0  0  0  0  0  0
   25.2646   42.6083  -10.7010 C   0  0  1  0  0  0  0  0  0  0  0  0
   25.0117   42.9524  -12.0401 O   0  0  0  0  0  0  0  0  0  0  0  0
   23.8974   42.4968   -9.9645 C   0  0  1  0  0  0  0  0  0  0  0  0
   23.2423   41.2197  -10.2701 N   0  0  0  0  0  0  0  0  0  0  0  0
   21.9501   41.0827  -10.6181 C   0  0  0  0  0  0  0  0  0  0  0  0
   21.1924   42.0417  -10.7720 O   0  0  0  0  0  0  0  0  0  0  0  0
   21.4222   39.6477  -10.8102 C   0  0  2  0  0  0  0  0  0  0  0  0
   20.9495   39.5107  -12.2767 C   0  0  0  0  0  0  0  0  0  0  0  0
   23.9948   42.6537   -8.4243 C   0  0  0  0  0  0  0  0  0  0  0  0
   23.9189   44.0944   -7.8438 C   0  0  2  0  0  0  0  0  0  0  0  0
   24.8599   45.1117   -8.5133 C   0  0  0  0  0  0  0  0  0  0  0  0
   24.1837   44.1134   -6.3191 C   0  0  0  0  0  0  0  0  0  0  0  0
   23.2147   43.2960   -5.4498 C   0  0  0  0  0  0  0  0  0  0  0  0
   21.7600   43.7888   -5.5030 C   0  0  0  0  0  0  0  0  0  0  0  0
   20.8328   43.0757   -4.5044 C   0  0  0  0  0  0  0  0  0  0  0  0
   20.8033   41.5406   -4.6236 C   0  0  0  0  0  0  0  0  0  0  0  0
   20.4599   41.0284   -6.0337 C   0  0  0  0  0  0  0  0  0  0  0  0
   20.1218   39.5285   -6.0444 C   0  0  0  0  0  0  0  0  0  0  0  0
   19.6477   39.0098   -7.4158 C   0  0  0  0  0  0  0  0  0  0  0  0
   20.7208   39.1006   -8.5226 C   0  0  0  0  0  0  0  0  0  0  0  0
   21.9004   38.9463   -8.1969 O   0  0  0  0  0  0  0  0  0  0  0  0
   20.3571   39.3687   -9.8071 N   0  0  0  0  0  0  0  0  0  0  0  0
   18.9336   39.4530  -10.1888 C   0  0  0  0  0  0  0  0  0  0  0  0
   27.6697   43.6425  -11.5301 H   0  0  0  0  0  0  0  0  0  0  0  0
   25.7918   43.4589  -10.2873 H   0  0  0  0  0  0  0  0  0  0  0  0
   23.2646   43.3133  -10.3181 H   0  0  0  0  0  0  0  0  0  0  0  0
   22.2353   38.9356  -10.6631 H   0  0  0  0  0  0  0  0  0  0  0  0
   22.9075   44.4630   -8.0199 H   0  0  0  0  0  0  0  0  0  0  0  0
   32.8213   43.9361  -11.6133 H   0  0  0  0  0  0  0  0  0  0  0  0
   32.9357   43.0696  -13.9183 H   0  0  0  0  0  0  0  0  0  0  0  0
   30.0034   41.3708  -15.6003 H   0  0  0  0  0  0  0  0  0  0  0  0
   30.0599   43.7579  -16.2637 H   0  0  0  0  0  0  0  0  0  0  0  0
   30.8997   42.7520  -17.4382 H   0  0  0  0  0  0  0  0  0  0  0  0
   31.8214   43.7245  -16.2941 H   0  0  0  0  0  0  0  0  0  0  0  0
   32.0600   40.1528  -14.9608 H   0  0  0  0  0  0  0  0  0  0  0  0
   33.0622   41.4828  -15.5372 H   0  0  0  0  0  0  0  0  0  0  0  0
   32.0641   40.5794  -16.6648 H   0  0  0  0  0  0  0  0  0  0  0  0
   28.7785   41.9643  -13.7294 H   0  0  0  0  0  0  0  0  0  0  0  0
   27.6513   43.2155   -9.0641 H   0  0  0  0  0  0  0  0  0  0  0  0
   29.0651   42.2058   -9.2402 H   0  0  0  0  0  0  0  0  0  0  0  0
   27.9547   45.8434   -9.6135 H   0  0  0  0  0  0  0  0  0  0  0  0
   28.7969   45.5607  -11.1349 H   0  0  0  0  0  0  0  0  0  0  0  0
   29.5858   46.4502   -9.8615 H   0  0  0  0  0  0  0  0  0  0  0  0
   28.9383   44.6458   -7.3733 H   0  0  0  0  0  0  0  0  0  0  0  0
   30.4179   45.4653   -7.8555 H   0  0  0  0  0  0  0  0  0  0  0  0
   30.4501   43.7497   -7.5608 H   0  0  0  0  0  0  0  0  0  0  0  0
   27.2941   41.5589  -12.3616 H   0  0  0  0  0  0  0  0  0  0  0  0
   25.7218   40.5124  -11.1060 H   0  0  0  0  0  0  0  0  0  0  0  0
   26.4307   41.0972   -9.6380 H   0  0  0  0  0  0  0  0  0  0  0  0
   24.4600   42.2785  -12.4283 H   0  0  0  0  0  0  0  0  0  0  0  0
   23.7699   40.3705  -10.1229 H   0  0  0  0  0  0  0  0  0  0  0  0
   21.7941   39.5668  -12.9636 H   0  0  0  0  0  0  0  0  0  0  0  0
   20.2502   40.2950  -12.5732 H   0  0  0  0  0  0  0  0  0  0  0  0
   20.4603   38.5521  -12.4403 H   0  0  0  0  0  0  0  0  0  0  0  0
   23.1629   42.1033   -7.9824 H   0  0  0  0  0  0  0  0  0  0  0  0
   24.8802   42.1476   -8.0556 H   0  0  0  0  0  0  0  0  0  0  0  0
   24.7621   46.0949   -8.0517 H   0  0  0  0  0  0  0  0  0  0  0  0
   24.6294   45.2476   -9.5698 H   0  0  0  0  0  0  0  0  0  0  0  0
   25.9026   44.8130   -8.4127 H   0  0  0  0  0  0  0  0  0  0  0  0
   25.1986   43.7593   -6.1303 H   0  0  0  0  0  0  0  0  0  0  0  0
   24.1679   45.1432   -5.9614 H   0  0  0  0  0  0  0  0  0  0  0  0
   23.5640   43.3433   -4.4192 H   0  0  0  0  0  0  0  0  0  0  0  0
   23.2609   42.2438   -5.7227 H   0  0  0  0  0  0  0  0  0  0  0  0
   21.7307   44.8615   -5.3023 H   0  0  0  0  0  0  0  0  0  0  0  0
   21.3663   43.6620   -6.5117 H   0  0  0  0  0  0  0  0  0  0  0  0
   19.8188   43.4573   -4.6357 H   0  0  0  0  0  0  0  0  0  0  0  0
   21.1209   43.3466   -3.4866 H   0  0  0  0  0  0  0  0  0  0  0  0
   21.7541   41.1161   -4.3008 H   0  0  0  0  0  0  0  0  0  0  0  0
   20.0603   41.1669   -3.9167 H   0  0  0  0  0  0  0  0  0  0  0  0
   21.2962   41.2243   -6.7038 H   0  0  0  0  0  0  0  0  0  0  0  0
   19.6170   41.5877   -6.4398 H   0  0  0  0  0  0  0  0  0  0  0  0
   20.9800   38.9534   -5.6975 H   0  0  0  0  0  0  0  0  0  0  0  0
   19.3213   39.3501   -5.3257 H   0  0  0  0  0  0  0  0  0  0  0  0
   18.7497   39.5696   -7.6707 H   0  0  0  0  0  0  0  0  0  0  0  0
   19.3461   37.9657   -7.3238 H   0  0  0  0  0  0  0  0  0  0  0  0
   18.7201   39.3655  -11.2495 H   0  0  0  0  0  0  0  0  0  0  0  0
   18.5189   40.4079   -9.8633 H   0  0  0  0  0  0  0  0  0  0  0  0
   18.3563   38.6510   -9.7248 H   0  0  0  0  0  0  0  0  0  0  0  0
   28.0926   40.7674  -11.1737 H   0  0  0  0  0  0  0  0  0  0  0  0
  1  9  1  0  0  0  0
  1  2  2  0  0  0  0
  1 46  1  0  0  0  0
  2  3  1  0  0  0  0
  2 47  1  0  0  0  0
  3  4  1  0  0  0  0
  3  7  2  0  0  0  0
  4  5  1  0  0  0  0
  4  6  1  0  0  0  0
  4 48  1  0  0  0  0
  5 49  1  0  0  0  0
  5 50  1  0  0  0  0
  5 51  1  0  0  0  0
  6 52  1  0  0  0  0
  6 53  1  0  0  0  0
  6 54  1  0  0  0  0
  7  8  1  0  0  0  0
  7 55  1  0  0  0  0
  8  9  2  0  0  0  0
  8 10  1  0  0  0  0
  9 13  1  0  0  0  0
 10 41  1  6  0  0  0
 10 11  1  0  0  0  0
 10 16  1  0  0  0  0
 11 12  1  0  0  0  0
 11 56  1  0  0  0  0
 11 57  1  0  0  0  0
 12 13  1  0  0  0  0
 12 14  1  0  0  0  0
 12 15  1  0  0  0  0
 14 58  1  0  0  0  0
 14 59  1  0  0  0  0
 14 60  1  0  0  0  0
 15 61  1  0  0  0  0
 15 62  1  0  0  0  0
 15 63  1  0  0  0  0
 16 17  1  0  0  0  0
 16 64  1  0  0  0  0
 16 96  1  0  0  0  0
 17 18  1  0  0  0  0
 17 65  1  0  0  0  0
 17 66  1  0  0  0  0
 18 42  1  1  0  0  0
 18 19  1  0  0  0  0
 18 20  1  0  0  0  0
 19 67  1  0  0  0  0
 20 43  1  6  0  0  0
 20 21  1  0  0  0  0
 20 26  1  0  0  0  0
 21 22  1  0  0  0  0
 21 68  1  0  0  0  0
 22 23  2  0  0  0  0
 22 24  1  0  0  0  0
 24 44  1  1  0  0  0
 24 39  1  0  0  0  0
 24 25  1  0  0  0  0
 25 69  1  0  0  0  0
 25 70  1  0  0  0  0
 25 71  1  0  0  0  0
 26 27  1  0  0  0  0
 26 72  1  0  0  0  0
 26 73  1  0  0  0  0
 27 45  1  6  0  0  0
 27 28  1  0  0  0  0
 27 29  1  0  0  0  0
 28 74  1  0  0  0  0
 28 75  1  0  0  0  0
 28 76  1  0  0  0  0
 29 30  1  0  0  0  0
 29 77  1  0  0  0  0
 29 78  1  0  0  0  0
 30 31  1  0  0  0  0
 30 79  1  0  0  0  0
 30 80  1  0  0  0  0
 31 32  1  0  0  0  0
 31 81  1  0  0  0  0
 31 82  1  0  0  0  0
 32 33  1  0  0  0  0
 32 83  1  0  0  0  0
 32 84  1  0  0  0  0
 33 34  1  0  0  0  0
 33 85  1  0  0  0  0
 33 86  1  0  0  0  0
 34 35  1  0  0  0  0
 34 87  1  0  0  0  0
 34 88  1  0  0  0  0
 35 36  1  0  0  0  0
 35 89  1  0  0  0  0
 35 90  1  0  0  0  0
 36 37  1  0  0  0  0
 36 91  1  0  0  0  0
 36 92  1  0  0  0  0
 37 38  2  0  0  0  0
 37 39  1  0  0  0  0
 39 40  1  0  0  0  0
 40 93  1  0  0  0  0
 40 94  1  0  0  0  0
 40 95  1  0  0  0  0
M  CHG  1  16   1
M  END
