BACE_2.smi:1
 OpenBabel10031817233D
Structure written by MMmdl.
 95 97  0  0  1  0  0  0  0  0999 V2000
   22.7271   50.5207   -3.1103 C   0  0  0  0  0  0  0  0  0  0  0  0
   23.7604   50.4314   -2.1574 C   0  0  0  0  0  0  0  0  0  0  0  0
   24.5976   49.3000   -2.1308 C   0  0  0  0  0  0  0  0  0  0  0  0
   25.7144   49.2028   -1.1013 C   0  0  0  0  0  0  0  0  0  0  0  0
   26.5695   50.4815   -1.0527 C   0  0  0  0  0  0  0  0  0  0  0  0
   25.1859   48.8128    0.2905 C   0  0  0  0  0  0  0  0  0  0  0  0
   24.3976   48.2561   -3.0540 C   0  0  0  0  0  0  0  0  0  0  0  0
   23.3627   48.3421   -4.0081 C   0  0  0  0  0  0  0  0  0  0  0  0
   22.5261   49.4865   -4.0460 C   0  0  0  0  0  0  0  0  0  0  0  0
   23.1485   47.2028   -4.9879 C   0  0  2  0  0  0  0  0  0  0  0  0
   21.7935   47.3154   -5.6914 C   0  0  0  0  0  0  0  0  0  0  0  0
   21.5367   48.7707   -6.0962 C   0  0  0  0  0  0  0  0  0  0  0  0
   21.4951   49.6180   -4.9497 O   0  0  0  0  0  0  0  0  0  0  0  0
   22.6160   49.2622   -7.0565 C   0  0  0  0  0  0  0  0  0  0  0  0
   20.2054   48.8826   -6.8337 C   0  0  0  0  0  0  0  0  0  0  0  0
   23.2593   45.9088   -4.2972 N   0  0  0  0  0  0  0  0  0  0  0  0
   22.7133   44.7520   -5.0130 C   0  0  0  0  0  0  0  0  0  0  0  0
   23.5166   44.4366   -6.2941 C   0  0  1  0  0  0  0  0  0  0  0  0
   24.7757   43.9429   -5.8768 O   0  0  0  0  0  0  0  0  0  0  0  0
   22.8322   43.4188   -7.2602 C   0  0  1  0  0  0  0  0  0  0  0  0
   21.5717   43.9702   -7.7733 N   0  0  0  0  0  0  0  0  0  0  0  0
   20.3597   43.4121   -7.6538 C   0  0  0  0  0  0  0  0  0  0  0  0
   20.1615   42.3738   -7.0446 O   0  0  0  0  0  0  0  0  0  0  0  0
   19.2018   44.1964   -8.3160 C   0  0  2  0  0  0  0  0  0  0  0  0
   18.5181   45.0088   -7.2200 C   0  0  0  0  0  0  0  0  0  0  0  0
   23.7282   42.9397   -8.4413 C   0  0  0  0  0  0  0  0  0  0  0  0
   23.1660   41.7581   -9.2635 C   0  0  2  0  0  0  0  0  0  0  0  0
   21.7347   42.0742   -9.6881 C   0  0  0  0  0  0  0  0  0  0  0  0
   23.2342   40.3990   -8.5345 C   0  0  0  0  0  0  0  0  0  0  0  0
   22.4352   39.2830   -9.2373 C   0  0  0  0  0  0  0  0  0  0  0  0
   20.9209   39.3794   -8.9726 C   0  0  0  0  0  0  0  0  0  0  0  0
   20.0844   38.3541   -9.7620 C   0  0  0  0  0  0  0  0  0  0  0  0
   18.5919   38.3167   -9.3586 C   0  0  0  0  0  0  0  0  0  0  0  0
   17.8666   39.6799   -9.3523 C   0  0  0  0  0  0  0  0  0  0  0  0
   17.7659   40.3575  -10.7359 C   0  0  0  0  0  0  0  0  0  0  0  0
   17.2830   41.8269  -10.6691 C   0  0  0  0  0  0  0  0  0  0  0  0
   18.3575   42.8027  -10.1760 C   0  0  0  0  0  0  0  0  0  0  0  0
   19.2955   43.0780  -10.9059 O   0  0  0  0  0  0  0  0  0  0  0  0
   18.1996   43.3044   -8.9415 N   0  0  0  0  0  0  0  0  0  0  0  0
   17.0464   42.8695   -8.1796 C   0  0  0  0  0  0  0  0  0  0  0  0
   23.9502   47.2383   -5.7254 H   0  0  0  0  0  0  0  0  0  0  0  0
   23.7023   45.3793   -6.8106 H   0  0  0  0  0  0  0  0  0  0  0  0
   22.5753   42.5399   -6.6699 H   0  0  0  0  0  0  0  0  0  0  0  0
   19.5850   44.9243   -9.0311 H   0  0  0  0  0  0  0  0  0  0  0  0
   23.7259   41.6764  -10.1952 H   0  0  0  0  0  0  0  0  0  0  0  0
   22.0875   51.3908   -3.1246 H   0  0  0  0  0  0  0  0  0  0  0  0
   23.9095   51.2311   -1.4471 H   0  0  0  0  0  0  0  0  0  0  0  0
   26.3800   48.3979   -1.4156 H   0  0  0  0  0  0  0  0  0  0  0  0
   26.9890   50.7103   -2.0330 H   0  0  0  0  0  0  0  0  0  0  0  0
   27.4051   50.3675   -0.3615 H   0  0  0  0  0  0  0  0  0  0  0  0
   25.9930   51.3478   -0.7272 H   0  0  0  0  0  0  0  0  0  0  0  0
   24.6358   47.8719    0.2516 H   0  0  0  0  0  0  0  0  0  0  0  0
   24.5196   49.5708    0.7030 H   0  0  0  0  0  0  0  0  0  0  0  0
   26.0056   48.6796    0.9972 H   0  0  0  0  0  0  0  0  0  0  0  0
   25.0391   47.3877   -3.0253 H   0  0  0  0  0  0  0  0  0  0  0  0
   21.7577   46.6544   -6.5574 H   0  0  0  0  0  0  0  0  0  0  0  0
   21.0004   46.9917   -5.0174 H   0  0  0  0  0  0  0  0  0  0  0  0
   22.6429   48.6580   -7.9642 H   0  0  0  0  0  0  0  0  0  0  0  0
   23.6137   49.2334   -6.6191 H   0  0  0  0  0  0  0  0  0  0  0  0
   22.4328   50.2941   -7.3585 H   0  0  0  0  0  0  0  0  0  0  0  0
   20.1850   48.2501   -7.7220 H   0  0  0  0  0  0  0  0  0  0  0  0
   20.0141   49.9070   -7.1555 H   0  0  0  0  0  0  0  0  0  0  0  0
   19.3704   48.5844   -6.1985 H   0  0  0  0  0  0  0  0  0  0  0  0
   24.2266   45.7368   -4.0424 H   0  0  0  0  0  0  0  0  0  0  0  0
   22.7421   43.8770   -4.3633 H   0  0  0  0  0  0  0  0  0  0  0  0
   21.6630   44.9164   -5.2536 H   0  0  0  0  0  0  0  0  0  0  0  0
   24.9534   44.2705   -5.0084 H   0  0  0  0  0  0  0  0  0  0  0  0
   21.6212   44.8412   -8.2822 H   0  0  0  0  0  0  0  0  0  0  0  0
   19.2149   45.7026   -6.7477 H   0  0  0  0  0  0  0  0  0  0  0  0
   18.1058   44.3724   -6.4362 H   0  0  0  0  0  0  0  0  0  0  0  0
   17.6983   45.6045   -7.6228 H   0  0  0  0  0  0  0  0  0  0  0  0
   23.9055   43.7842   -9.1072 H   0  0  0  0  0  0  0  0  0  0  0  0
   24.7126   42.6729   -8.0566 H   0  0  0  0  0  0  0  0  0  0  0  0
   21.3028   41.2687  -10.2813 H   0  0  0  0  0  0  0  0  0  0  0  0
   21.6820   42.9717  -10.3032 H   0  0  0  0  0  0  0  0  0  0  0  0
   21.0857   42.2275   -8.8251 H   0  0  0  0  0  0  0  0  0  0  0  0
   24.2793   40.0990   -8.4579 H   0  0  0  0  0  0  0  0  0  0  0  0
   22.8823   40.4945   -7.5073 H   0  0  0  0  0  0  0  0  0  0  0  0
   22.7892   38.3147   -8.8834 H   0  0  0  0  0  0  0  0  0  0  0  0
   22.6377   39.3003  -10.3082 H   0  0  0  0  0  0  0  0  0  0  0  0
   20.7366   39.2571   -7.9053 H   0  0  0  0  0  0  0  0  0  0  0  0
   20.5756   40.3826   -9.2225 H   0  0  0  0  0  0  0  0  0  0  0  0
   20.5042   37.3583   -9.6201 H   0  0  0  0  0  0  0  0  0  0  0  0
   20.1760   38.5577  -10.8289 H   0  0  0  0  0  0  0  0  0  0  0  0
   18.0604   37.6248  -10.0120 H   0  0  0  0  0  0  0  0  0  0  0  0
   18.5161   37.8864   -8.3601 H   0  0  0  0  0  0  0  0  0  0  0  0
   18.3594   40.3413   -8.6397 H   0  0  0  0  0  0  0  0  0  0  0  0
   16.8603   39.5428   -8.9565 H   0  0  0  0  0  0  0  0  0  0  0  0
   18.7219   40.3152  -11.2579 H   0  0  0  0  0  0  0  0  0  0  0  0
   17.0772   39.7812  -11.3535 H   0  0  0  0  0  0  0  0  0  0  0  0
   16.3803   41.9067  -10.0634 H   0  0  0  0  0  0  0  0  0  0  0  0
   16.9878   42.1615  -11.6635 H   0  0  0  0  0  0  0  0  0  0  0  0
   16.9098   43.4143   -7.2474 H   0  0  0  0  0  0  0  0  0  0  0  0
   17.1182   41.8112   -7.9257 H   0  0  0  0  0  0  0  0  0  0  0  0
   16.1233   43.0360   -8.7363 H   0  0  0  0  0  0  0  0  0  0  0  0
  1  9  1  0  0  0  0
  1  2  2  0  0  0  0
  1 46  1  0  0  0  0
  2  3  1  0  0  0  0
  2 47  1  0  0  0  0
  3  4  1  0  0  0  0
  3  7  2  0  0  0  0
  4  5  1  0  0  0  0
  4  6  1  0  0  0  0
  4 48  1  0  0  0  0
  5 49  1  0  0  0  0
  5 50  1  0  0  0  0
  5 51  1  0  0  0  0
  6 52  1  0  0  0  0
  6 53  1  0  0  0  0
  6 54  1  0  0  0  0
  7  8  1  0  0  0  0
  7 55  1  0  0  0  0
  8  9  2  0  0  0  0
  8 10  1  0  0  0  0
  9 13  1  0  0  0  0
 10 41  1  6  0  0  0
 10 11  1  0  0  0  0
 10 16  1  0  0  0  0
 11 12  1  0  0  0  0
 11 56  1  0  0  0  0
 11 57  1  0  0  0  0
 12 13  1  0  0  0  0
 12 14  1  0  0  0  0
 12 15  1  0  0  0  0
 14 58  1  0  0  0  0
 14 59  1  0  0  0  0
 14 60  1  0  0  0  0
 15 61  1  0  0  0  0
 15 62  1  0  0  0  0
 15 63  1  0  0  0  0
 16 17  1  0  0  0  0
 16 64  1  0  0  0  0
 17 18  1  0  0  0  0
 17 65  1  0  0  0  0
 17 66  1  0  0  0  0
 18 42  1  6  0  0  0
 18 19  1  0  0  0  0
 18 20  1  0  0  0  0
 19 67  1  0  0  0  0
 20 43  1  1  0  0  0
 20 21  1  0  0  0  0
 20 26  1  0  0  0  0
 21 22  1  0  0  0  0
 21 68  1  0  0  0  0
 22 23  2  0  0  0  0
 22 24  1  0  0  0  0
 24 44  1  6  0  0  0
 24 39  1  0  0  0  0
 24 25  1  0  0  0  0
 25 69  1  0  0  0  0
 25 70  1  0  0  0  0
 25 71  1  0  0  0  0
 26 27  1  0  0  0  0
 26 72  1  0  0  0  0
 26 73  1  0  0  0  0
 27 45  1  6  0  0  0
 27 28  1  0  0  0  0
 27 29  1  0  0  0  0
 28 74  1  0  0  0  0
 28 75  1  0  0  0  0
 28 76  1  0  0  0  0
 29 30  1  0  0  0  0
 29 77  1  0  0  0  0
 29 78  1  0  0  0  0
 30 31  1  0  0  0  0
 30 79  1  0  0  0  0
 30 80  1  0  0  0  0
 31 32  1  0  0  0  0
 31 81  1  0  0  0  0
 31 82  1  0  0  0  0
 32 33  1  0  0  0  0
 32 83  1  0  0  0  0
 32 84  1  0  0  0  0
 33 34  1  0  0  0  0
 33 85  1  0  0  0  0
 33 86  1  0  0  0  0
 34 35  1  0  0  0  0
 34 87  1  0  0  0  0
 34 88  1  0  0  0  0
 35 36  1  0  0  0  0
 35 89  1  0  0  0  0
 35 90  1  0  0  0  0
 36 37  1  0  0  0  0
 36 91  1  0  0  0  0
 36 92  1  0  0  0  0
 37 38  2  0  0  0  0
 37 39  1  0  0  0  0
 39 40  1  0  0  0  0
 40 93  1  0  0  0  0
 40 94  1  0  0  0  0
 40 95  1  0  0  0  0
M  END
