BACE_14.smi:1
 OpenBabel10031817133D
Structure written by MMmdl.
 86 90  0  0  1  0  0  0  0  0999 V2000
   21.9836   39.7759  -10.2073 C   0  0  0  0  0  0  0  0  0  0  0  0
   20.4921   40.1264  -10.3879 C   0  0  0  0  0  0  0  0  0  0  0  0
   20.0380   39.6427  -11.7768 C   0  0  0  0  0  0  0  0  0  0  0  0
   19.5842   39.6011   -9.2646 C   0  0  0  0  0  0  0  0  0  0  0  0
   20.1178   39.0535   -8.0745 C   0  0  0  0  0  0  0  0  0  0  0  0
   19.2662   38.5521   -7.0744 C   0  0  0  0  0  0  0  0  0  0  0  0
   17.8726   38.5730   -7.2499 C   0  0  0  0  0  0  0  0  0  0  0  0
   17.3134   39.1350   -8.4159 C   0  0  0  0  0  0  0  0  0  0  0  0
   18.1758   39.6661   -9.4023 C   0  0  0  0  0  0  0  0  0  0  0  0
   15.8200   39.1557   -8.6007 C   0  0  0  0  0  0  0  0  0  0  0  0
   15.0654   37.9108   -8.9893 C   0  0  0  0  0  0  0  0  0  0  0  0
   15.1629   39.0555   -9.9640 C   0  0  0  0  0  0  0  0  0  0  0  0
   15.0761   39.9939   -7.6311 N   0  3  0  0  0  0  0  0  0  0  0  0
   15.5006   41.4112   -7.5631 C   0  0  0  0  0  0  0  0  0  0  0  0
   15.4081   42.1657   -8.9201 C   0  0  2  0  0  0  0  0  0  0  0  0
   16.2685   43.4551   -9.0225 C   0  0  2  0  0  0  0  0  0  0  0  0
   16.2444   44.0066  -10.4722 C   0  0  0  0  0  0  0  0  0  0  0  0
   17.2008   45.1581  -10.7311 C   0  0  0  0  0  0  0  0  0  0  0  0
   16.7867   46.4910  -10.5362 C   0  0  0  0  0  0  0  0  0  0  0  0
   17.6929   47.5453  -10.7535 C   0  0  0  0  0  0  0  0  0  0  0  0
   19.0213   47.2705  -11.1343 C   0  0  0  0  0  0  0  0  0  0  0  0
   19.4526   45.9325  -11.3153 C   0  0  0  0  0  0  0  0  0  0  0  0
   18.5221   44.8903  -11.1453 C   0  0  0  0  0  0  0  0  0  0  0  0
   20.7403   45.5682  -11.6397 O   0  0  0  0  0  0  0  0  0  0  0  0
   21.7624   46.5462  -11.5106 C   0  0  0  0  0  0  0  0  0  0  0  0
   23.1294   45.8529  -11.4335 C   0  0  0  0  0  0  0  0  0  0  0  0
   23.3124   44.9961  -10.1661 C   0  0  0  0  0  0  0  0  0  0  0  0
   22.8669   43.5341  -10.3398 C   0  0  0  0  0  0  0  0  0  0  0  0
   22.9477   42.7902   -9.0875 N   0  0  0  0  0  0  0  0  0  0  0  0
   21.9584   42.9023   -8.0987 C   0  0  0  0  0  0  0  0  0  0  0  0
   20.6436   43.3433   -8.3763 C   0  0  0  0  0  0  0  0  0  0  0  0
   19.6916   43.4511   -7.3431 C   0  0  0  0  0  0  0  0  0  0  0  0
   20.0604   43.1394   -6.0196 C   0  0  0  0  0  0  0  0  0  0  0  0
   21.3610   42.6685   -5.7233 C   0  0  0  0  0  0  0  0  0  0  0  0
   22.2954   42.5494   -6.7753 C   0  0  0  0  0  0  0  0  0  0  0  0
   21.7546   42.2894   -4.3361 C   0  0  0  0  0  0  0  0  0  0  0  0
   22.8668   41.8527   -4.0398 O   0  0  0  0  0  0  0  0  0  0  0  0
   20.7162   42.4559   -3.2277 C   0  0  0  0  0  0  0  0  0  0  0  0
   18.2998   43.9188   -7.6348 C   0  0  0  0  0  0  0  0  0  0  0  0
   17.8123   44.8564   -7.0060 O   0  0  0  0  0  0  0  0  0  0  0  0
   17.6498   43.2214   -8.5816 N   0  0  0  0  0  0  0  0  0  0  0  0
   14.0619   42.5466   -9.1534 O   0  0  0  0  0  0  0  0  0  0  0  0
   15.7250   41.5112   -9.7297 H   0  0  0  0  0  0  0  0  0  0  0  0
   15.8178   44.2091   -8.3710 H   0  0  0  0  0  0  0  0  0  0  0  0
   22.5790   40.1607  -11.0344 H   0  0  0  0  0  0  0  0  0  0  0  0
   22.1434   38.6981  -10.1641 H   0  0  0  0  0  0  0  0  0  0  0  0
   22.3972   40.2065   -9.2967 H   0  0  0  0  0  0  0  0  0  0  0  0
   20.4082   41.2119  -10.3676 H   0  0  0  0  0  0  0  0  0  0  0  0
   20.6958   40.0258  -12.5575 H   0  0  0  0  0  0  0  0  0  0  0  0
   19.0334   39.9785  -12.0311 H   0  0  0  0  0  0  0  0  0  0  0  0
   20.0568   38.5551  -11.8389 H   0  0  0  0  0  0  0  0  0  0  0  0
   21.1820   38.9941   -7.9027 H   0  0  0  0  0  0  0  0  0  0  0  0
   19.6848   38.1395   -6.1687 H   0  0  0  0  0  0  0  0  0  0  0  0
   17.2392   38.1549   -6.4799 H   0  0  0  0  0  0  0  0  0  0  0  0
   17.7430   40.1035  -10.2860 H   0  0  0  0  0  0  0  0  0  0  0  0
   15.6429   37.0122   -9.2047 H   0  0  0  0  0  0  0  0  0  0  0  0
   14.0774   37.7557   -8.5635 H   0  0  0  0  0  0  0  0  0  0  0  0
   14.2416   39.6036  -10.1541 H   0  0  0  0  0  0  0  0  0  0  0  0
   15.7954   38.9026  -10.8340 H   0  0  0  0  0  0  0  0  0  0  0  0
   15.1971   39.5919   -6.7089 H   0  0  0  0  0  0  0  0  0  0  0  0
   16.5065   41.4383   -7.1461 H   0  0  0  0  0  0  0  0  0  0  0  0
   14.8587   41.8916   -6.8404 H   0  0  0  0  0  0  0  0  0  0  0  0
   16.4922   43.2071  -11.1719 H   0  0  0  0  0  0  0  0  0  0  0  0
   15.2339   44.3266  -10.7372 H   0  0  0  0  0  0  0  0  0  0  0  0
   15.7775   46.7083  -10.2204 H   0  0  0  0  0  0  0  0  0  0  0  0
   17.3757   48.5678  -10.6122 H   0  0  0  0  0  0  0  0  0  0  0  0
   19.6936   48.1034  -11.2822 H   0  0  0  0  0  0  0  0  0  0  0  0
   18.8458   43.8703  -11.2850 H   0  0  0  0  0  0  0  0  0  0  0  0
   21.7317   47.2147  -12.3718 H   0  0  0  0  0  0  0  0  0  0  0  0
   21.6288   47.1500  -10.6113 H   0  0  0  0  0  0  0  0  0  0  0  0
   23.3045   45.2547  -12.3299 H   0  0  0  0  0  0  0  0  0  0  0  0
   23.8946   46.6301  -11.4353 H   0  0  0  0  0  0  0  0  0  0  0  0
   24.3664   45.0044   -9.8849 H   0  0  0  0  0  0  0  0  0  0  0  0
   22.7804   45.4577   -9.3324 H   0  0  0  0  0  0  0  0  0  0  0  0
   21.8696   43.4692  -10.7687 H   0  0  0  0  0  0  0  0  0  0  0  0
   23.5192   43.0432  -11.0658 H   0  0  0  0  0  0  0  0  0  0  0  0
   23.8627   42.4599   -8.8111 H   0  0  0  0  0  0  0  0  0  0  0  0
   20.3511   43.6116   -9.3778 H   0  0  0  0  0  0  0  0  0  0  0  0
   19.3172   43.2333   -5.2422 H   0  0  0  0  0  0  0  0  0  0  0  0
   23.2927   42.1929   -6.5659 H   0  0  0  0  0  0  0  0  0  0  0  0
   19.8740   41.7832   -3.3926 H   0  0  0  0  0  0  0  0  0  0  0  0
   20.3484   43.4818   -3.1960 H   0  0  0  0  0  0  0  0  0  0  0  0
   21.1553   42.2227   -2.2575 H   0  0  0  0  0  0  0  0  0  0  0  0
   18.1553   42.4609   -9.0109 H   0  0  0  0  0  0  0  0  0  0  0  0
   13.4738   41.8093   -9.0372 H   0  0  0  0  0  0  0  0  0  0  0  0
   14.0886   39.9533   -7.8416 H   0  0  0  0  0  0  0  0  0  0  0  0
  1  2  1  0  0  0  0
  1 45  1  0  0  0  0
  1 46  1  0  0  0  0
  1 47  1  0  0  0  0
  2  3  1  0  0  0  0
  2  4  1  0  0  0  0
  2 48  1  0  0  0  0
  3 49  1  0  0  0  0
  3 50  1  0  0  0  0
  3 51  1  0  0  0  0
  4  9  1  0  0  0  0
  4  5  2  0  0  0  0
  5  6  1  0  0  0  0
  5 52  1  0  0  0  0
  6  7  2  0  0  0  0
  6 53  1  0  0  0  0
  7  8  1  0  0  0  0
  7 54  1  0  0  0  0
  8  9  2  0  0  0  0
  8 10  1  0  0  0  0
  9 55  1  0  0  0  0
 10 12  1  0  0  0  0
 10 11  1  0  0  0  0
 10 13  1  0  0  0  0
 11 12  1  0  0  0  0
 11 56  1  0  0  0  0
 11 57  1  0  0  0  0
 12 58  1  0  0  0  0
 12 59  1  0  0  0  0
 13 14  1  0  0  0  0
 13 60  1  0  0  0  0
 13 86  1  0  0  0  0
 14 15  1  0  0  0  0
 14 61  1  0  0  0  0
 14 62  1  0  0  0  0
 15 43  1  6  0  0  0
 15 16  1  0  0  0  0
 15 42  1  0  0  0  0
 16 44  1  1  0  0  0
 16 41  1  0  0  0  0
 16 17  1  0  0  0  0
 17 18  1  0  0  0  0
 17 63  1  0  0  0  0
 17 64  1  0  0  0  0
 18 23  1  0  0  0  0
 18 19  2  0  0  0  0
 19 20  1  0  0  0  0
 19 65  1  0  0  0  0
 20 21  2  0  0  0  0
 20 66  1  0  0  0  0
 21 22  1  0  0  0  0
 21 67  1  0  0  0  0
 22 23  2  0  0  0  0
 22 24  1  0  0  0  0
 23 68  1  0  0  0  0
 24 25  1  0  0  0  0
 25 26  1  0  0  0  0
 25 69  1  0  0  0  0
 25 70  1  0  0  0  0
 26 27  1  0  0  0  0
 26 71  1  0  0  0  0
 26 72  1  0  0  0  0
 27 28  1  0  0  0  0
 27 73  1  0  0  0  0
 27 74  1  0  0  0  0
 28 29  1  0  0  0  0
 28 75  1  0  0  0  0
 28 76  1  0  0  0  0
 29 30  1  0  0  0  0
 29 77  1  0  0  0  0
 30 35  1  0  0  0  0
 30 31  2  0  0  0  0
 31 32  1  0  0  0  0
 31 78  1  0  0  0  0
 32 33  2  0  0  0  0
 32 39  1  0  0  0  0
 33 34  1  0  0  0  0
 33 79  1  0  0  0  0
 34 35  2  0  0  0  0
 34 36  1  0  0  0  0
 35 80  1  0  0  0  0
 36 37  2  0  0  0  0
 36 38  1  0  0  0  0
 38 81  1  0  0  0  0
 38 82  1  0  0  0  0
 38 83  1  0  0  0  0
 39 40  2  0  0  0  0
 39 41  1  0  0  0  0
 41 84  1  0  0  0  0
 42 85  1  0  0  0  0
M  CHG  1  13   1
M  END
>  <s_m_source_file>
BACE_14.smi

>  <i_m_source_file_index>
1

>  <i_lp_mmshare_version>
42013

>  <i_f3d_flags>
0

>  <s_epik_input>
W0NIM11bQ0hdKFtDSDNdKWMxW2NIXVtjSF1bY0hdYyhbY0hdMSlDMihbQ0gyXVtDSDJdMilbTkhdW0NIMl1bQ0BASF0oW09IXSlbQ0BIXShbQ0gyXTMpW05IXUMoPU8pYyhbY0hdYyhbY0hdNClDKD1PKVtDSDNdKVtjSF1jNFtOSF1bQ0gyXVtDSDJdW0NIMl1bQ0gyXU9jKFtjSF01KVtjSF1bY0hdW2NIXWMzNQ==

>  <s_epik_cmdline>
J2VwaWtfcHl0aG9uJywgJy1waCcsICc3LjAnLCAnLXRuJywgJzgnLCAnLW1hJywgJzIwMCcsICctaW1hZScsICc8aW5maWxlLm1hZT4nLCAnLW9tYWUnLCAnPG91dGZpbGUubWFlPic=

>  <r_lp_tautomer_probability>
0.99995

>  <r_epik_Ionization_Penalty>
0.5137

>  <r_epik_Ionization_Penalty_Charging>
0.5137

>  <r_epik_Ionization_Penalty_Neutral>
0

>  <r_epik_State_Penalty>
0.5212

>  <r_epik_Charging_Adjusted_Penalty>
1.03485

>  <i_epik_Tot_Q>
1

>  <i_epik_Tot_abs_Q>
1

>  <s_lp_Force_Field>
OPLS_2005

>  <r_lp_Energy>
46.5551

>  <b_lp_Chiralities_Consistent>
1

>  <s_lp_Variant>
BACE_14.smi:1-2

>  <chiral flag>
1

>  <version>
0

>  <r_i_glide_lipo>
-0.49017

>  <r_i_glide_hbond>
-0.608

>  <r_i_glide_metal>
-0

>  <r_i_glide_rewards>
0

>  <r_i_glide_erotb>
0.229446

>  <r_i_glide_esite>
-0.0798175

>  <s_i_glide_gridfile>
second_dock_grid_2

>  <i_i_glide_lignum>
29

>  <i_i_glide_rotatable_bonds>
8

>  <r_i_docking_score>
-4.59756

>  <r_i_glide_ligand_efficiency>
-0.109466

>  <r_i_glide_ligand_efficiency_sa>
-0.380506

>  <r_i_glide_ligand_efficiency_ln>
-0.970426

>  <r_glide_XP_GScore>
-5.11876

>  <r_i_glide_gscore>
-5.11876

>  <r_i_glide_evdw>
-39.9896

>  <r_i_glide_ecoul>
-15.2291

>  <r_i_glide_energy>
-55.2187

>  <r_i_glide_einternal>
12.4212

>  <r_i_glide_emodel>
-72.8468

>  <r_glide_XP_HBond>
-1.23713

>  <i_i_glide_confnum>
1

>  <i_i_glide_posenum>
62

>  <r_i_glide_eff_state_penalty>
0.5212

>  <i_glide_XP_PoseRank>
3

>  <chiral flag>
1

$$$$
