BACE_8.smi:1
 OpenBabel10031817133D
Structure written by MMmdl.
 78 80  0  0  1  0  0  0  0  0999 V2000
   19.5282   45.8798   -7.1267 C   0  0  0  0  0  0  0  0  0  0  0  0
   19.4197   46.3736   -8.5822 C   0  0  2  0  0  0  0  0  0  0  0  0
   19.7082   47.8913   -8.6832 C   0  0  0  0  0  0  0  0  0  0  0  0
   21.1743   48.2819   -8.4214 C   0  0  0  0  0  0  0  0  0  0  0  0
   21.9917   47.7322   -9.4415 O   0  0  0  0  0  0  0  0  0  0  0  0
   23.3831   47.8622   -9.1885 C   0  0  0  0  0  0  0  0  0  0  0  0
   24.1898   47.2597  -10.3517 C   0  0  0  0  0  0  0  0  0  0  0  0
   24.1643   45.7202  -10.4313 C   0  0  0  0  0  0  0  0  0  0  0  0
   22.7685   45.1550  -10.7190 C   0  0  0  0  0  0  0  0  0  0  0  0
   22.7675   43.7128  -10.8961 N   0  0  0  0  0  0  0  0  0  0  0  0
   21.5807   43.0410  -11.2040 C   0  0  0  0  0  0  0  0  0  0  0  0
   20.3187   43.6763  -11.2418 C   0  0  0  0  0  0  0  0  0  0  0  0
   19.1886   42.9191  -11.6223 C   0  0  0  0  0  0  0  0  0  0  0  0
   19.3672   41.5609  -11.9384 C   0  0  0  0  0  0  0  0  0  0  0  0
   20.6561   41.0141  -11.8435 C   0  0  0  0  0  0  0  0  0  0  0  0
   21.7349   41.7362  -11.4881 N   0  0  0  0  0  0  0  0  0  0  0  0
   20.8601   39.3500  -12.1917 Cl  0  0  0  0  0  0  0  0  0  0  0  0
   17.8369   43.5413  -11.7980 C   0  0  0  0  0  0  0  0  0  0  0  0
   17.2144   43.3501  -12.8401 O   0  0  0  0  0  0  0  0  0  0  0  0
   17.3024   44.2698  -10.8053 N   0  0  0  0  0  0  0  0  0  0  0  0
   17.7790   44.4897   -9.4398 C   0  0  1  0  0  0  0  0  0  0  0  0
   18.0756   46.0157   -9.2749 C   0  0  0  0  0  0  0  0  0  0  0  0
   16.7002   43.9118   -8.4793 C   0  0  1  0  0  0  0  0  0  0  0  0
   16.8515   42.3963   -8.2268 C   0  0  0  0  0  0  0  0  0  0  0  0
   15.6431   41.7487   -7.6400 N   0  3  0  0  0  0  0  0  0  0  0  0
   15.7989   40.3568   -7.1256 C   0  0  0  0  0  0  0  0  0  0  0  0
   16.8254   39.5270   -7.8916 C   0  0  0  0  0  0  0  0  0  0  0  0
   16.4296   38.6247   -8.8993 C   0  0  0  0  0  0  0  0  0  0  0  0
   17.4079   37.9318   -9.6398 C   0  0  0  0  0  0  0  0  0  0  0  0
   18.7795   38.1625   -9.4112 C   0  0  0  0  0  0  0  0  0  0  0  0
   19.1839   39.0640   -8.4049 C   0  0  0  0  0  0  0  0  0  0  0  0
   18.1995   39.6920   -7.6211 C   0  0  0  0  0  0  0  0  0  0  0  0
   20.6552   39.4013   -8.1904 C   0  0  0  0  0  0  0  0  0  0  0  0
   21.1829   38.8215   -6.8723 C   0  0  0  0  0  0  0  0  0  0  0  0
   20.9019   40.9198   -8.2300 C   0  0  0  0  0  0  0  0  0  0  0  0
   16.8597   44.5394   -7.2400 O   0  0  0  0  0  0  0  0  0  0  0  0
   20.1975   45.8626   -9.1402 H   0  0  0  0  0  0  0  0  0  0  0  0
   18.7022   43.9449   -9.2489 H   0  0  0  0  0  0  0  0  0  0  0  0
   15.7004   44.1454   -8.8493 H   0  0  0  0  0  0  0  0  0  0  0  0
   18.7642   46.3303   -6.4928 H   0  0  0  0  0  0  0  0  0  0  0  0
   20.4979   46.1117   -6.6895 H   0  0  0  0  0  0  0  0  0  0  0  0
   19.4262   44.7962   -7.0671 H   0  0  0  0  0  0  0  0  0  0  0  0
   19.4443   48.2511   -9.6782 H   0  0  0  0  0  0  0  0  0  0  0  0
   19.0606   48.4286   -7.9904 H   0  0  0  0  0  0  0  0  0  0  0  0
   21.2758   49.3675   -8.4314 H   0  0  0  0  0  0  0  0  0  0  0  0
   21.4992   47.9446   -7.4380 H   0  0  0  0  0  0  0  0  0  0  0  0
   23.6293   48.9204   -9.0844 H   0  0  0  0  0  0  0  0  0  0  0  0
   23.6495   47.3724   -8.2511 H   0  0  0  0  0  0  0  0  0  0  0  0
   23.8499   47.6886  -11.2947 H   0  0  0  0  0  0  0  0  0  0  0  0
   25.2292   47.5715  -10.2408 H   0  0  0  0  0  0  0  0  0  0  0  0
   24.8476   45.4033  -11.2201 H   0  0  0  0  0  0  0  0  0  0  0  0
   24.5494   45.2980   -9.5025 H   0  0  0  0  0  0  0  0  0  0  0  0
   22.1204   45.3754   -9.8775 H   0  0  0  0  0  0  0  0  0  0  0  0
   22.3441   45.6305  -11.6040 H   0  0  0  0  0  0  0  0  0  0  0  0
   23.6403   43.2083  -10.9619 H   0  0  0  0  0  0  0  0  0  0  0  0
   20.2130   44.7323  -11.0498 H   0  0  0  0  0  0  0  0  0  0  0  0
   18.5360   40.9432  -12.2477 H   0  0  0  0  0  0  0  0  0  0  0  0
   16.4094   44.6841  -11.0204 H   0  0  0  0  0  0  0  0  0  0  0  0
   17.2478   46.5240   -8.7781 H   0  0  0  0  0  0  0  0  0  0  0  0
   18.1118   46.4692  -10.2667 H   0  0  0  0  0  0  0  0  0  0  0  0
   17.0801   41.8946   -9.1683 H   0  0  0  0  0  0  0  0  0  0  0  0
   17.7110   42.2550   -7.5724 H   0  0  0  0  0  0  0  0  0  0  0  0
   15.3036   42.2976   -6.8547 H   0  0  0  0  0  0  0  0  0  0  0  0
   16.0600   40.3854   -6.0683 H   0  0  0  0  0  0  0  0  0  0  0  0
   14.8263   39.8633   -7.1589 H   0  0  0  0  0  0  0  0  0  0  0  0
   15.3822   38.4628   -9.1093 H   0  0  0  0  0  0  0  0  0  0  0  0
   17.1051   37.2399  -10.4112 H   0  0  0  0  0  0  0  0  0  0  0  0
   19.5161   37.6555  -10.0178 H   0  0  0  0  0  0  0  0  0  0  0  0
   18.5103   40.3636   -6.8401 H   0  0  0  0  0  0  0  0  0  0  0  0
   21.2194   38.9501   -9.0098 H   0  0  0  0  0  0  0  0  0  0  0  0
   21.0276   37.7484   -6.8395 H   0  0  0  0  0  0  0  0  0  0  0  0
   20.6732   39.2539   -6.0100 H   0  0  0  0  0  0  0  0  0  0  0  0
   22.2523   39.0069   -6.7574 H   0  0  0  0  0  0  0  0  0  0  0  0
   20.4428   41.3704   -9.1074 H   0  0  0  0  0  0  0  0  0  0  0  0
   21.9684   41.1441   -8.2600 H   0  0  0  0  0  0  0  0  0  0  0  0
   20.4856   41.4231   -7.3564 H   0  0  0  0  0  0  0  0  0  0  0  0
   16.2299   44.1895   -6.6166 H   0  0  0  0  0  0  0  0  0  0  0  0
   14.9224   41.7241   -8.3462 H   0  0  0  0  0  0  0  0  0  0  0  0
  1  2  1  0  0  0  0
  1 40  1  0  0  0  0
  1 41  1  0  0  0  0
  1 42  1  0  0  0  0
  2 37  1  6  0  0  0
  2 22  1  0  0  0  0
  2  3  1  0  0  0  0
  3  4  1  0  0  0  0
  3 43  1  0  0  0  0
  3 44  1  0  0  0  0
  4  5  1  0  0  0  0
  4 45  1  0  0  0  0
  4 46  1  0  0  0  0
  5  6  1  0  0  0  0
  6  7  1  0  0  0  0
  6 47  1  0  0  0  0
  6 48  1  0  0  0  0
  7  8  1  0  0  0  0
  7 49  1  0  0  0  0
  7 50  1  0  0  0  0
  8  9  1  0  0  0  0
  8 51  1  0  0  0  0
  8 52  1  0  0  0  0
  9 10  1  0  0  0  0
  9 53  1  0  0  0  0
  9 54  1  0  0  0  0
 10 11  1  0  0  0  0
 10 55  1  0  0  0  0
 11 16  1  0  0  0  0
 11 12  2  0  0  0  0
 12 13  1  0  0  0  0
 12 56  1  0  0  0  0
 13 14  2  0  0  0  0
 13 18  1  0  0  0  0
 14 15  1  0  0  0  0
 14 57  1  0  0  0  0
 15 16  2  0  0  0  0
 15 17  1  0  0  0  0
 18 19  2  0  0  0  0
 18 20  1  0  0  0  0
 20 21  1  0  0  0  0
 20 58  1  0  0  0  0
 21 38  1  1  0  0  0
 21 22  1  0  0  0  0
 21 23  1  0  0  0  0
 22 59  1  0  0  0  0
 22 60  1  0  0  0  0
 23 39  1  6  0  0  0
 23 24  1  0  0  0  0
 23 36  1  0  0  0  0
 24 25  1  0  0  0  0
 24 61  1  0  0  0  0
 24 62  1  0  0  0  0
 25 26  1  0  0  0  0
 25 63  1  0  0  0  0
 25 78  1  0  0  0  0
 26 27  1  0  0  0  0
 26 64  1  0  0  0  0
 26 65  1  0  0  0  0
 27 32  1  0  0  0  0
 27 28  2  0  0  0  0
 28 29  1  0  0  0  0
 28 66  1  0  0  0  0
 29 30  2  0  0  0  0
 29 67  1  0  0  0  0
 30 31  1  0  0  0  0
 30 68  1  0  0  0  0
 31 32  2  0  0  0  0
 31 33  1  0  0  0  0
 32 69  1  0  0  0  0
 33 34  1  0  0  0  0
 33 35  1  0  0  0  0
 33 70  1  0  0  0  0
 34 71  1  0  0  0  0
 34 72  1  0  0  0  0
 34 73  1  0  0  0  0
 35 74  1  0  0  0  0
 35 75  1  0  0  0  0
 35 76  1  0  0  0  0
 36 77  1  0  0  0  0
M  CHG  1  25   1
M  END
>  <s_m_source_file>
BACE_8.smi

>  <i_m_source_file_index>
1

>  <i_lp_mmshare_version>
42013

>  <i_f3d_flags>
0

>  <s_epik_input>
W05IXTFbQ0gyXVtDSDJdW0NIMl1bQ0gyXU9bQ0gyXVtDSDJdW0NAQEhdKFtDSDNdKVtDSDJdW0NASF0oW05IXUMoPU8pYyhbY0hdYzEyKVtjSF1jKG4yKUNsKVtDQEhdKFtPSF0pW0NIMl1bTkhdW0NIMl1jM1tjSF1bY0hdW2NIXWMoW2NIXTMpW0NIXShbQ0gzXSlbQ0gzXQ==

>  <s_epik_cmdline>
J2VwaWtfcHl0aG9uJywgJy1waCcsICc3LjAnLCAnLXRuJywgJzgnLCAnLW1hJywgJzIwMCcsICctaW1hZScsICc8aW5maWxlLm1hZT4nLCAnLW9tYWUnLCAnPG91dGZpbGUubWFlPic=

>  <r_lp_tautomer_probability>
1

>  <r_epik_Ionization_Penalty>
0.0176

>  <r_epik_Ionization_Penalty_Charging>
0.0176

>  <r_epik_Ionization_Penalty_Neutral>
0

>  <r_epik_State_Penalty>
0.0139

>  <r_epik_Charging_Adjusted_Penalty>
0.0314671

>  <i_epik_Tot_Q>
1

>  <i_epik_Tot_abs_Q>
1

>  <s_lp_Force_Field>
OPLS_2005

>  <r_lp_Energy>
27.9011

>  <b_lp_Chiralities_Consistent>
1

>  <s_lp_Variant>
BACE_8.smi:1-1

>  <chiral flag>
1

>  <version>
0

>  <r_i_glide_lipo>
-0.615437

>  <r_i_glide_hbond>
-0.474467

>  <r_i_glide_metal>
-0

>  <r_i_glide_rewards>
0

>  <r_i_glide_erotb>
0.382514

>  <r_i_glide_esite>
-0.0838565

>  <s_i_glide_gridfile>
second_dock_grid_2

>  <i_i_glide_lignum>
16

>  <i_i_glide_rotatable_bonds>
7

>  <r_i_docking_score>
-5.21502

>  <r_i_glide_ligand_efficiency>
-0.144862

>  <r_i_glide_ligand_efficiency_sa>
-0.478323

>  <r_i_glide_ligand_efficiency_ln>
-1.13778

>  <r_glide_XP_GScore>
-5.22892

>  <r_i_glide_gscore>
-5.22892

>  <r_i_glide_evdw>
-31.1967

>  <r_i_glide_ecoul>
-17.644

>  <r_i_glide_energy>
-48.8407

>  <r_i_glide_einternal>
4.09698

>  <r_i_glide_emodel>
-65.4334

>  <r_glide_XP_HBond>
-1.33

>  <i_i_glide_confnum>
1

>  <i_i_glide_posenum>
6

>  <r_i_glide_eff_state_penalty>
0.0139

>  <i_glide_XP_PoseRank>
1

>  <chiral flag>
1

$$$$
