BACE_7.smi:1
 OpenBabel10031817233D
Structure written by MMmdl.
 99103  0  0  1  0  0  0  0  0999 V2000
   18.2972   38.4388   -6.2777 C   0  0  0  0  0  0  0  0  0  0  0  0
   18.3813   38.7328   -7.7841 C   0  0  2  0  0  0  0  0  0  0  0  0
   17.4977   37.7629   -8.6061 C   0  0  0  0  0  0  0  0  0  0  0  0
   16.0162   38.1917   -8.6528 C   0  0  0  0  0  0  0  0  0  0  0  0
   15.7599   39.3810   -9.5983 C   0  0  0  0  0  0  0  0  0  0  0  0
   14.4598   40.1377   -9.2810 C   0  0  0  0  0  0  0  0  0  0  0  0
   14.2234   41.3633  -10.1862 C   0  0  0  0  0  0  0  0  0  0  0  0
   15.2661   42.4021  -10.0206 N   0  0  0  0  0  0  0  0  0  0  0  0
   15.2000   43.2436   -8.9577 C   0  0  0  0  0  0  0  0  0  0  0  0
   14.1405   43.5949   -8.4383 O   0  0  0  0  0  0  0  0  0  0  0  0
   16.5016   43.7436   -8.4028 C   0  0  0  0  0  0  0  0  0  0  0  0
   16.7004   45.1203   -8.1847 C   0  0  0  0  0  0  0  0  0  0  0  0
   17.9178   45.5831   -7.6403 C   0  0  0  0  0  0  0  0  0  0  0  0
   18.9494   44.6647   -7.3400 C   0  0  0  0  0  0  0  0  0  0  0  0
   18.7646   43.2820   -7.5594 C   0  0  0  0  0  0  0  0  0  0  0  0
   17.5148   42.8321   -8.0418 C   0  0  0  0  0  0  0  0  0  0  0  0
   19.8615   42.3012   -7.2400 C   0  0  0  0  0  0  0  0  0  0  0  0
   20.6556   42.5113   -6.3260 O   0  0  0  0  0  0  0  0  0  0  0  0
   19.9185   41.2254   -8.0455 N   0  0  0  0  0  0  0  0  0  0  0  0
   20.6763   39.9955   -7.8033 C   0  0  1  0  0  0  0  0  0  0  0  0
   19.8412   38.7915   -8.3114 C   0  0  0  0  0  0  0  0  0  0  0  0
   22.1018   40.0277   -8.4431 C   0  0  1  0  0  0  0  0  0  0  0  0
   22.2267   40.8227   -9.7724 C   0  0  0  0  0  0  0  0  0  0  0  0
   23.6004   40.8402  -10.3433 N   0  3  0  0  0  0  0  0  0  0  0  0
   24.5234   41.8143   -9.7245 C   0  0  0  0  0  0  0  0  0  0  0  0
   25.5176   42.3657  -10.7277 C   0  0  0  0  0  0  0  0  0  0  0  0
   25.1622   43.4788  -11.5151 C   0  0  0  0  0  0  0  0  0  0  0  0
   26.0930   44.0388  -12.4082 C   0  0  0  0  0  0  0  0  0  0  0  0
   27.3822   43.4843  -12.5178 C   0  0  0  0  0  0  0  0  0  0  0  0
   27.7461   42.3524  -11.7519 C   0  0  0  0  0  0  0  0  0  0  0  0
   26.8039   41.7993  -10.8550 C   0  0  0  0  0  0  0  0  0  0  0  0
   29.1432   41.7455  -11.8479 C   0  0  0  0  0  0  0  0  0  0  0  0
   30.0673   42.3306  -10.7706 C   0  0  0  0  0  0  0  0  0  0  0  0
   29.7689   41.8545  -13.2504 C   0  0  0  0  0  0  0  0  0  0  0  0
   22.9791   40.5418   -7.4651 O   0  0  0  0  0  0  0  0  0  0  0  0
   18.1128   47.0090   -7.4188 C   0  0  0  0  0  0  0  0  0  0  0  0
   19.0035   47.6116   -6.6302 N   0  0  0  0  0  0  0  0  0  0  0  0
   18.7873   48.9685   -6.8161 C   0  0  0  0  0  0  0  0  0  0  0  0
   17.7466   49.1198   -7.6935 C   0  0  0  0  0  0  0  0  0  0  0  0
   17.3076   47.8857   -8.0815 O   0  0  0  0  0  0  0  0  0  0  0  0
   16.0192   42.7804  -11.2410 C   0  0  2  0  0  0  0  0  0  0  0  0
   17.5331   42.4715  -11.2070 C   0  0  0  0  0  0  0  0  0  0  0  0
   15.6483   44.1803  -11.7591 C   0  0  0  0  0  0  0  0  0  0  0  0
   14.2923   44.4827  -12.0250 C   0  0  0  0  0  0  0  0  0  0  0  0
   13.9141   45.7497  -12.5061 C   0  0  0  0  0  0  0  0  0  0  0  0
   14.8926   46.7362  -12.7288 C   0  0  0  0  0  0  0  0  0  0  0  0
   16.2437   46.4572  -12.4501 C   0  0  0  0  0  0  0  0  0  0  0  0
   16.6218   45.1866  -11.9713 C   0  0  0  0  0  0  0  0  0  0  0  0
   17.9479   39.7165   -7.9057 H   0  0  0  0  0  0  0  0  0  0  0  0
   20.7843   39.8587   -6.7246 H   0  0  0  0  0  0  0  0  0  0  0  0
   22.4313   39.0021   -8.6151 H   0  0  0  0  0  0  0  0  0  0  0  0
   15.6819   42.1119  -12.0184 H   0  0  0  0  0  0  0  0  0  0  0  0
   18.6555   37.4386   -6.0410 H   0  0  0  0  0  0  0  0  0  0  0  0
   17.2655   38.5074   -5.9317 H   0  0  0  0  0  0  0  0  0  0  0  0
   18.8670   39.1557   -5.6873 H   0  0  0  0  0  0  0  0  0  0  0  0
   17.8604   37.6819   -9.6305 H   0  0  0  0  0  0  0  0  0  0  0  0
   17.5752   36.7597   -8.1849 H   0  0  0  0  0  0  0  0  0  0  0  0
   15.4019   37.3514   -8.9777 H   0  0  0  0  0  0  0  0  0  0  0  0
   15.6778   38.4286   -7.6433 H   0  0  0  0  0  0  0  0  0  0  0  0
   16.5855   40.0823   -9.5345 H   0  0  0  0  0  0  0  0  0  0  0  0
   15.7486   39.0315  -10.6317 H   0  0  0  0  0  0  0  0  0  0  0  0
   13.6138   39.4559   -9.3763 H   0  0  0  0  0  0  0  0  0  0  0  0
   14.4656   40.4532   -8.2365 H   0  0  0  0  0  0  0  0  0  0  0  0
   14.1349   41.0127  -11.2135 H   0  0  0  0  0  0  0  0  0  0  0  0
   13.2423   41.7819   -9.9614 H   0  0  0  0  0  0  0  0  0  0  0  0
   15.9130   45.8186   -8.4283 H   0  0  0  0  0  0  0  0  0  0  0  0
   19.8895   45.0226   -6.9454 H   0  0  0  0  0  0  0  0  0  0  0  0
   17.3224   41.7777   -8.1573 H   0  0  0  0  0  0  0  0  0  0  0  0
   19.2344   41.1848   -8.7874 H   0  0  0  0  0  0  0  0  0  0  0  0
   20.3472   37.8578   -8.0688 H   0  0  0  0  0  0  0  0  0  0  0  0
   19.8166   38.8374   -9.4004 H   0  0  0  0  0  0  0  0  0  0  0  0
   21.5740   40.3521  -10.5080 H   0  0  0  0  0  0  0  0  0  0  0  0
   21.8694   41.8476   -9.6675 H   0  0  0  0  0  0  0  0  0  0  0  0
   24.0108   39.9154  -10.2726 H   0  0  0  0  0  0  0  0  0  0  0  0
   23.9731   42.6516   -9.2938 H   0  0  0  0  0  0  0  0  0  0  0  0
   25.0564   41.3368   -8.9020 H   0  0  0  0  0  0  0  0  0  0  0  0
   24.1802   43.9207  -11.4236 H   0  0  0  0  0  0  0  0  0  0  0  0
   25.8257   44.9005  -13.0007 H   0  0  0  0  0  0  0  0  0  0  0  0
   28.0833   43.9429  -13.1963 H   0  0  0  0  0  0  0  0  0  0  0  0
   27.0815   40.9499  -10.2480 H   0  0  0  0  0  0  0  0  0  0  0  0
   29.0467   40.6794  -11.6473 H   0  0  0  0  0  0  0  0  0  0  0  0
   29.6666   42.1557   -9.7721 H   0  0  0  0  0  0  0  0  0  0  0  0
   30.1848   43.4073  -10.8958 H   0  0  0  0  0  0  0  0  0  0  0  0
   31.0593   41.8809  -10.8134 H   0  0  0  0  0  0  0  0  0  0  0  0
   29.1270   41.3933  -14.0015 H   0  0  0  0  0  0  0  0  0  0  0  0
   30.7313   41.3480  -13.2920 H   0  0  0  0  0  0  0  0  0  0  0  0
   29.9508   42.8859  -13.5470 H   0  0  0  0  0  0  0  0  0  0  0  0
   23.8692   40.4147   -7.7400 H   0  0  0  0  0  0  0  0  0  0  0  0
   19.3808   49.7128   -6.3082 H   0  0  0  0  0  0  0  0  0  0  0  0
   17.2431   49.9719   -8.1249 H   0  0  0  0  0  0  0  0  0  0  0  0
   17.9672   42.5614  -12.2034 H   0  0  0  0  0  0  0  0  0  0  0  0
   17.7304   41.4524  -10.8772 H   0  0  0  0  0  0  0  0  0  0  0  0
   18.0917   43.1470  -10.5627 H   0  0  0  0  0  0  0  0  0  0  0  0
   13.5308   43.7327  -11.8663 H   0  0  0  0  0  0  0  0  0  0  0  0
   12.8755   45.9581  -12.7248 H   0  0  0  0  0  0  0  0  0  0  0  0
   14.6123   47.7046  -13.1160 H   0  0  0  0  0  0  0  0  0  0  0  0
   16.9949   47.2154  -12.6135 H   0  0  0  0  0  0  0  0  0  0  0  0
   17.6663   45.0085  -11.7697 H   0  0  0  0  0  0  0  0  0  0  0  0
   23.5403   41.0713  -11.3301 H   0  0  0  0  0  0  0  0  0  0  0  0
  1  2  1  0  0  0  0
  1 53  1  0  0  0  0
  1 54  1  0  0  0  0
  1 55  1  0  0  0  0
  2 49  1  6  0  0  0
  2 21  1  0  0  0  0
  2  3  1  0  0  0  0
  3  4  1  0  0  0  0
  3 56  1  0  0  0  0
  3 57  1  0  0  0  0
  4  5  1  0  0  0  0
  4 58  1  0  0  0  0
  4 59  1  0  0  0  0
  5  6  1  0  0  0  0
  5 60  1  0  0  0  0
  5 61  1  0  0  0  0
  6  7  1  0  0  0  0
  6 62  1  0  0  0  0
  6 63  1  0  0  0  0
  7  8  1  0  0  0  0
  7 64  1  0  0  0  0
  7 65  1  0  0  0  0
  8  9  1  0  0  0  0
  8 41  1  0  0  0  0
  9 10  2  0  0  0  0
  9 11  1  0  0  0  0
 11 16  1  0  0  0  0
 11 12  2  0  0  0  0
 12 13  1  0  0  0  0
 12 66  1  0  0  0  0
 13 14  2  0  0  0  0
 13 36  1  0  0  0  0
 14 15  1  0  0  0  0
 14 67  1  0  0  0  0
 15 16  2  0  0  0  0
 15 17  1  0  0  0  0
 16 68  1  0  0  0  0
 17 18  2  0  0  0  0
 17 19  1  0  0  0  0
 19 20  1  0  0  0  0
 19 69  1  0  0  0  0
 20 50  1  1  0  0  0
 20 21  1  0  0  0  0
 20 22  1  0  0  0  0
 21 70  1  0  0  0  0
 21 71  1  0  0  0  0
 22 51  1  6  0  0  0
 22 23  1  0  0  0  0
 22 35  1  0  0  0  0
 23 24  1  0  0  0  0
 23 72  1  0  0  0  0
 23 73  1  0  0  0  0
 24 25  1  0  0  0  0
 24 74  1  0  0  0  0
 24 99  1  0  0  0  0
 25 26  1  0  0  0  0
 25 75  1  0  0  0  0
 25 76  1  0  0  0  0
 26 31  1  0  0  0  0
 26 27  2  0  0  0  0
 27 28  1  0  0  0  0
 27 77  1  0  0  0  0
 28 29  2  0  0  0  0
 28 78  1  0  0  0  0
 29 30  1  0  0  0  0
 29 79  1  0  0  0  0
 30 31  2  0  0  0  0
 30 32  1  0  0  0  0
 31 80  1  0  0  0  0
 32 33  1  0  0  0  0
 32 34  1  0  0  0  0
 32 81  1  0  0  0  0
 33 82  1  0  0  0  0
 33 83  1  0  0  0  0
 33 84  1  0  0  0  0
 34 85  1  0  0  0  0
 34 86  1  0  0  0  0
 34 87  1  0  0  0  0
 35 88  1  0  0  0  0
 36 40  1  0  0  0  0
 36 37  2  0  0  0  0
 37 38  1  0  0  0  0
 38 39  2  0  0  0  0
 38 89  1  0  0  0  0
 39 40  1  0  0  0  0
 39 90  1  0  0  0  0
 41 52  1  6  0  0  0
 41 42  1  0  0  0  0
 41 43  1  0  0  0  0
 42 91  1  0  0  0  0
 42 92  1  0  0  0  0
 42 93  1  0  0  0  0
 43 48  1  0  0  0  0
 43 44  2  0  0  0  0
 44 45  1  0  0  0  0
 44 94  1  0  0  0  0
 45 46  2  0  0  0  0
 45 95  1  0  0  0  0
 46 47  1  0  0  0  0
 46 96  1  0  0  0  0
 47 48  2  0  0  0  0
 47 97  1  0  0  0  0
 48 98  1  0  0  0  0
M  CHG  1  24   1
M  END
