BACE_4.smi:1
 OpenBabel10031817233D
Structure written by MMmdl.
 89 91  0  0  1  0  0  0  0  0999 V2000
   21.2127   44.8319   -5.2032 C   0  0  0  0  0  0  0  0  0  0  0  0
   22.4959   44.1800   -4.6961 C   0  0  2  0  0  0  0  0  0  0  0  0
   23.6264   44.3576   -5.7333 C   0  0  0  0  0  0  0  0  0  0  0  0
   23.5438   45.6854   -6.5102 C   0  0  0  0  0  0  0  0  0  0  0  0
   23.7011   46.9495   -5.6404 C   0  0  0  0  0  0  0  0  0  0  0  0
   23.5248   48.2736   -6.4173 C   0  0  0  0  0  0  0  0  0  0  0  0
   22.1535   48.4682   -7.1044 C   0  0  0  0  0  0  0  0  0  0  0  0
   20.9526   48.4501   -6.1357 C   0  0  0  0  0  0  0  0  0  0  0  0
   19.5810   48.6423   -6.8207 O   0  0  0  0  0  0  0  0  0  0  0  0
   19.1211   47.4823   -7.7472 C   0  0  0  0  0  0  0  0  0  0  0  0
   18.8805   46.1250   -7.0685 C   0  0  0  0  0  0  0  0  0  0  0  0
   18.6523   46.0602   -5.8718 O   0  0  0  0  0  0  0  0  0  0  0  0
   18.9132   45.0537   -7.8757 N   0  0  0  0  0  0  0  0  0  0  0  0
   18.7951   43.6697   -7.3657 C   0  0  2  0  0  0  0  0  0  0  0  0
   20.1879   43.0552   -7.1069 C   0  0  0  0  0  0  0  0  0  0  0  0
   21.0776   43.1381   -7.9376 O   0  0  0  0  0  0  0  0  0  0  0  0
   20.3393   42.4342   -5.9242 N   0  0  0  0  0  0  0  0  0  0  0  0
   21.5822   41.8246   -5.4354 C   0  0  1  0  0  0  0  0  0  0  0  0
   22.1996   42.7109   -4.3132 C   0  0  0  0  0  0  0  0  0  0  0  0
   21.3370   40.3365   -5.0329 C   0  0  1  0  0  0  0  0  0  0  0  0
   20.8409   39.4313   -6.1819 C   0  0  0  0  0  0  0  0  0  0  0  0
   19.3785   39.3536   -6.2230 N   0  0  0  0  0  0  0  0  0  0  0  0
   18.8036   38.8645   -7.4855 C   0  0  0  0  0  0  0  0  0  0  0  0
   17.2986   38.7977   -7.5890 C   0  0  0  0  0  0  0  0  0  0  0  0
   18.1039   37.5265   -7.4633 C   0  0  0  0  0  0  0  0  0  0  0  0
   19.5808   39.2328   -8.7412 C   0  0  0  0  0  0  0  0  0  0  0  0
   20.8240   38.6221   -9.0071 C   0  0  0  0  0  0  0  0  0  0  0  0
   21.5489   38.9604  -10.1625 C   0  0  0  0  0  0  0  0  0  0  0  0
   21.0387   39.9146  -11.0616 C   0  0  0  0  0  0  0  0  0  0  0  0
   19.7958   40.5518  -10.8248 C   0  0  0  0  0  0  0  0  0  0  0  0
   19.0812   40.1938   -9.6506 C   0  0  0  0  0  0  0  0  0  0  0  0
   19.2685   41.5989  -11.8350 C   0  0  0  0  0  0  0  0  0  0  0  0
   19.6430   43.0215  -11.3582 C   0  0  0  0  0  0  0  0  0  0  0  0
   19.8945   41.3458  -13.2263 C   0  0  0  0  0  0  0  0  0  0  0  0
   17.7296   41.5627  -12.0099 C   0  0  0  0  0  0  0  0  0  0  0  0
   22.5330   39.7590   -4.5438 O   0  0  0  0  0  0  0  0  0  0  0  0
   18.1083   42.8131   -8.4255 C   0  0  0  0  0  0  0  0  0  0  0  0
   19.1927   45.2775   -9.2797 C   0  0  0  0  0  0  0  0  0  0  0  0
   22.7568   44.7364   -3.7959 H   0  0  0  0  0  0  0  0  0  0  0  0
   18.1644   43.6051   -6.4790 H   0  0  0  0  0  0  0  0  0  0  0  0
   22.2822   41.8225   -6.2705 H   0  0  0  0  0  0  0  0  0  0  0  0
   20.6054   40.2809   -4.2256 H   0  0  0  0  0  0  0  0  0  0  0  0
   21.3698   45.8786   -5.4630 H   0  0  0  0  0  0  0  0  0  0  0  0
   20.4238   44.8133   -4.4521 H   0  0  0  0  0  0  0  0  0  0  0  0
   20.8318   44.3285   -6.0926 H   0  0  0  0  0  0  0  0  0  0  0  0
   24.5973   44.2582   -5.2479 H   0  0  0  0  0  0  0  0  0  0  0  0
   23.5828   43.5531   -6.4675 H   0  0  0  0  0  0  0  0  0  0  0  0
   22.5874   45.7066   -7.0325 H   0  0  0  0  0  0  0  0  0  0  0  0
   24.3055   45.6917   -7.2899 H   0  0  0  0  0  0  0  0  0  0  0  0
   22.9965   46.9243   -4.8091 H   0  0  0  0  0  0  0  0  0  0  0  0
   24.6885   46.9400   -5.1788 H   0  0  0  0  0  0  0  0  0  0  0  0
   24.3088   48.3483   -7.1709 H   0  0  0  0  0  0  0  0  0  0  0  0
   23.6997   49.1059   -5.7356 H   0  0  0  0  0  0  0  0  0  0  0  0
   22.1636   49.4198   -7.6358 H   0  0  0  0  0  0  0  0  0  0  0  0
   22.0249   47.7114   -7.8782 H   0  0  0  0  0  0  0  0  0  0  0  0
   21.0884   49.2407   -5.3978 H   0  0  0  0  0  0  0  0  0  0  0  0
   20.9407   47.5203   -5.5669 H   0  0  0  0  0  0  0  0  0  0  0  0
   19.8356   47.3602   -8.5612 H   0  0  0  0  0  0  0  0  0  0  0  0
   18.1804   47.7627   -8.2211 H   0  0  0  0  0  0  0  0  0  0  0  0
   19.5370   42.4195   -5.3109 H   0  0  0  0  0  0  0  0  0  0  0  0
   21.5227   42.7038   -3.4589 H   0  0  0  0  0  0  0  0  0  0  0  0
   23.1151   42.2411   -3.9539 H   0  0  0  0  0  0  0  0  0  0  0  0
   21.2470   38.4290   -6.0405 H   0  0  0  0  0  0  0  0  0  0  0  0
   21.2324   39.7825   -7.1361 H   0  0  0  0  0  0  0  0  0  0  0  0
   18.9629   40.2441   -5.9686 H   0  0  0  0  0  0  0  0  0  0  0  0
   16.7184   39.1154   -6.7226 H   0  0  0  0  0  0  0  0  0  0  0  0
   16.8490   39.0167   -8.5575 H   0  0  0  0  0  0  0  0  0  0  0  0
   18.1928   36.8957   -8.3477 H   0  0  0  0  0  0  0  0  0  0  0  0
   18.0622   36.9944   -6.5129 H   0  0  0  0  0  0  0  0  0  0  0  0
   21.2275   37.8888   -8.3239 H   0  0  0  0  0  0  0  0  0  0  0  0
   22.4996   38.4873  -10.3602 H   0  0  0  0  0  0  0  0  0  0  0  0
   21.6225   40.1501  -11.9388 H   0  0  0  0  0  0  0  0  0  0  0  0
   18.1324   40.6491   -9.4151 H   0  0  0  0  0  0  0  0  0  0  0  0
   19.2276   43.2315  -10.3716 H   0  0  0  0  0  0  0  0  0  0  0  0
   19.2618   43.7846  -12.0381 H   0  0  0  0  0  0  0  0  0  0  0  0
   20.7210   43.1707  -11.2953 H   0  0  0  0  0  0  0  0  0  0  0  0
   19.6609   40.3443  -13.5902 H   0  0  0  0  0  0  0  0  0  0  0  0
   20.9801   41.4443  -13.2202 H   0  0  0  0  0  0  0  0  0  0  0  0
   19.5214   42.0537  -13.9676 H   0  0  0  0  0  0  0  0  0  0  0  0
   17.3830   40.5982  -12.3835 H   0  0  0  0  0  0  0  0  0  0  0  0
   17.3937   42.3119  -12.7283 H   0  0  0  0  0  0  0  0  0  0  0  0
   17.2067   41.7732  -11.0759 H   0  0  0  0  0  0  0  0  0  0  0  0
   22.3644   39.4019   -3.6853 H   0  0  0  0  0  0  0  0  0  0  0  0
   17.9726   41.7878   -8.0786 H   0  0  0  0  0  0  0  0  0  0  0  0
   18.6793   42.7727   -9.3537 H   0  0  0  0  0  0  0  0  0  0  0  0
   17.1186   43.2025   -8.6669 H   0  0  0  0  0  0  0  0  0  0  0  0
   19.0411   44.3947   -9.8978 H   0  0  0  0  0  0  0  0  0  0  0  0
   20.2229   45.6030   -9.4290 H   0  0  0  0  0  0  0  0  0  0  0  0
   18.5221   46.0285   -9.6995 H   0  0  0  0  0  0  0  0  0  0  0  0
  1  2  1  0  0  0  0
  1 43  1  0  0  0  0
  1 44  1  0  0  0  0
  1 45  1  0  0  0  0
  2 39  1  1  0  0  0
  2 19  1  0  0  0  0
  2  3  1  0  0  0  0
  3  4  1  0  0  0  0
  3 46  1  0  0  0  0
  3 47  1  0  0  0  0
  4  5  1  0  0  0  0
  4 48  1  0  0  0  0
  4 49  1  0  0  0  0
  5  6  1  0  0  0  0
  5 50  1  0  0  0  0
  5 51  1  0  0  0  0
  6  7  1  0  0  0  0
  6 52  1  0  0  0  0
  6 53  1  0  0  0  0
  7  8  1  0  0  0  0
  7 54  1  0  0  0  0
  7 55  1  0  0  0  0
  8  9  1  0  0  0  0
  8 56  1  0  0  0  0
  8 57  1  0  0  0  0
  9 10  1  0  0  0  0
 10 11  1  0  0  0  0
 10 58  1  0  0  0  0
 10 59  1  0  0  0  0
 11 12  2  0  0  0  0
 11 13  1  0  0  0  0
 13 14  1  0  0  0  0
 13 38  1  0  0  0  0
 14 40  1  1  0  0  0
 14 15  1  0  0  0  0
 14 37  1  0  0  0  0
 15 16  2  0  0  0  0
 15 17  1  0  0  0  0
 17 18  1  0  0  0  0
 17 60  1  0  0  0  0
 18 41  1  6  0  0  0
 18 19  1  0  0  0  0
 18 20  1  0  0  0  0
 19 61  1  0  0  0  0
 19 62  1  0  0  0  0
 20 42  1  1  0  0  0
 20 21  1  0  0  0  0
 20 36  1  0  0  0  0
 21 22  1  0  0  0  0
 21 63  1  0  0  0  0
 21 64  1  0  0  0  0
 22 23  1  0  0  0  0
 22 65  1  0  0  0  0
 23 25  1  0  0  0  0
 23 24  1  0  0  0  0
 23 26  1  0  0  0  0
 24 25  1  0  0  0  0
 24 66  1  0  0  0  0
 24 67  1  0  0  0  0
 25 68  1  0  0  0  0
 25 69  1  0  0  0  0
 26 31  1  0  0  0  0
 26 27  2  0  0  0  0
 27 28  1  0  0  0  0
 27 70  1  0  0  0  0
 28 29  2  0  0  0  0
 28 71  1  0  0  0  0
 29 30  1  0  0  0  0
 29 72  1  0  0  0  0
 30 31  2  0  0  0  0
 30 32  1  0  0  0  0
 31 73  1  0  0  0  0
 32 33  1  0  0  0  0
 32 34  1  0  0  0  0
 32 35  1  0  0  0  0
 33 74  1  0  0  0  0
 33 75  1  0  0  0  0
 33 76  1  0  0  0  0
 34 77  1  0  0  0  0
 34 78  1  0  0  0  0
 34 79  1  0  0  0  0
 35 80  1  0  0  0  0
 35 81  1  0  0  0  0
 35 82  1  0  0  0  0
 36 83  1  0  0  0  0
 37 84  1  0  0  0  0
 37 85  1  0  0  0  0
 37 86  1  0  0  0  0
 38 87  1  0  0  0  0
 38 88  1  0  0  0  0
 38 89  1  0  0  0  0
M  END
