BACE_19.smi:1
 OpenBabel10031817233D
Structure written by MMmdl.
 76 77  0  0  1  0  0  0  0  0999 V2000
   23.6927   50.0409   -1.4689 C   0  0  0  0  0  0  0  0  0  0  0  0
   23.2093   51.0224   -2.5415 C   0  0  0  0  0  0  0  0  0  0  0  0
   22.0800   50.4749   -3.4307 C   0  0  0  0  0  0  0  0  0  0  0  0
   22.5197   49.3288   -4.3650 C   0  0  0  0  0  0  0  0  0  0  0  0
   21.4587   48.8605   -5.2584 N   0  0  0  0  0  0  0  0  0  0  0  0
   20.9904   49.5328   -6.3173 C   0  0  0  0  0  0  0  0  0  0  0  0
   21.2601   50.7202   -6.5131 O   0  0  0  0  0  0  0  0  0  0  0  0
   20.1234   48.7780   -7.3469 C   0  0  2  0  0  0  0  0  0  0  0  0
   18.6267   49.0941   -7.1652 C   0  0  0  0  0  0  0  0  0  0  0  0
   20.4977   47.2785   -7.5682 C   0  0  0  0  0  0  0  0  0  0  0  0
   19.5248   46.1972   -7.0285 C   0  0  1  0  0  0  0  0  0  0  0  0
   19.9187   44.7073   -7.2649 C   0  0  2  0  0  0  0  0  0  0  0  0
   21.2502   44.2651   -6.5716 C   0  0  0  0  0  0  0  0  0  0  0  0
   21.6326   42.7571   -6.5624 C   0  0  1  0  0  0  0  0  0  0  0  0
   20.4599   41.8296   -6.1449 C   0  0  0  0  0  0  0  0  0  0  0  0
   20.6684   40.3021   -6.2695 C   0  0  0  0  0  0  0  0  0  0  0  0
   20.5399   39.7794   -7.6975 C   0  0  0  0  0  0  0  0  0  0  0  0
   21.5742   39.0132   -8.2712 C   0  0  0  0  0  0  0  0  0  0  0  0
   21.4925   38.6013   -9.6173 C   0  0  0  0  0  0  0  0  0  0  0  0
   20.3784   38.9630  -10.3985 C   0  0  0  0  0  0  0  0  0  0  0  0
   19.3322   39.7239   -9.8335 C   0  0  0  0  0  0  0  0  0  0  0  0
   19.4025   40.0958   -8.4744 C   0  0  0  0  0  0  0  0  0  0  0  0
   18.1628   40.1739  -10.6968 C   0  0  0  0  0  0  0  0  0  0  0  0
   18.0749   42.0261  -10.8464 S   0  0  0  0  0  0  0  0  0  0  0  0
   17.2727   42.3521  -12.0384 O   0  0  0  0  0  0  0  0  0  0  0  0
   17.6896   42.5912   -9.5450 O   0  0  0  0  0  0  0  0  0  0  0  0
   19.8333   42.5177  -11.1792 C   0  0  0  0  0  0  0  0  0  0  0  0
   20.1133   44.0412  -11.0991 C   0  0  2  0  0  0  0  0  0  0  0  0
   20.5723   44.5259   -9.7138 C   0  0  0  0  0  0  0  0  0  0  0  0
   21.6475   45.1201   -9.6103 O   0  0  0  0  0  0  0  0  0  0  0  0
   19.7662   44.2841   -8.6641 N   0  0  0  0  0  0  0  0  0  0  0  0
   19.0201   44.9539  -11.6830 C   0  0  0  0  0  0  0  0  0  0  0  0
   22.3751   42.3321   -7.8401 C   0  0  0  0  0  0  0  0  0  0  0  0
   19.3344   46.3636   -5.6400 O   0  0  0  0  0  0  0  0  0  0  0  0
   20.3919   49.2607   -8.2890 H   0  0  0  0  0  0  0  0  0  0  0  0
   18.5521   46.3583   -7.4961 H   0  0  0  0  0  0  0  0  0  0  0  0
   19.1171   44.1613   -6.7663 H   0  0  0  0  0  0  0  0  0  0  0  0
   22.3832   42.6552   -5.7769 H   0  0  0  0  0  0  0  0  0  0  0  0
   20.9908   44.1936  -11.7290 H   0  0  0  0  0  0  0  0  0  0  0  0
   24.4529   50.5020   -0.8366 H   0  0  0  0  0  0  0  0  0  0  0  0
   24.1259   49.1406   -1.9050 H   0  0  0  0  0  0  0  0  0  0  0  0
   22.8622   49.7470   -0.8307 H   0  0  0  0  0  0  0  0  0  0  0  0
   22.8474   51.9211   -2.0390 H   0  0  0  0  0  0  0  0  0  0  0  0
   24.0550   51.3439   -3.1521 H   0  0  0  0  0  0  0  0  0  0  0  0
   21.2603   50.1488   -2.7948 H   0  0  0  0  0  0  0  0  0  0  0  0
   21.6811   51.3026   -4.0186 H   0  0  0  0  0  0  0  0  0  0  0  0
   23.3737   49.6444   -4.9675 H   0  0  0  0  0  0  0  0  0  0  0  0
   22.8569   48.4741   -3.7779 H   0  0  0  0  0  0  0  0  0  0  0  0
   21.1574   47.9016   -5.1586 H   0  0  0  0  0  0  0  0  0  0  0  0
   18.4551   50.1691   -7.1695 H   0  0  0  0  0  0  0  0  0  0  0  0
   18.2421   48.7050   -6.2210 H   0  0  0  0  0  0  0  0  0  0  0  0
   18.0310   48.6753   -7.9774 H   0  0  0  0  0  0  0  0  0  0  0  0
   20.5634   47.1506   -8.6480 H   0  0  0  0  0  0  0  0  0  0  0  0
   21.5086   47.0753   -7.2134 H   0  0  0  0  0  0  0  0  0  0  0  0
   22.0818   44.8386   -6.9788 H   0  0  0  0  0  0  0  0  0  0  0  0
   21.1966   44.5666   -5.5263 H   0  0  0  0  0  0  0  0  0  0  0  0
   20.2362   42.0490   -5.1000 H   0  0  0  0  0  0  0  0  0  0  0  0
   19.5523   42.0862   -6.6830 H   0  0  0  0  0  0  0  0  0  0  0  0
   21.6310   40.0155   -5.8434 H   0  0  0  0  0  0  0  0  0  0  0  0
   19.9090   39.7900   -5.6769 H   0  0  0  0  0  0  0  0  0  0  0  0
   22.4469   38.7533   -7.6916 H   0  0  0  0  0  0  0  0  0  0  0  0
   22.2980   38.0232  -10.0437 H   0  0  0  0  0  0  0  0  0  0  0  0
   20.3366   38.6635  -11.4358 H   0  0  0  0  0  0  0  0  0  0  0  0
   18.5942   40.6626   -8.0366 H   0  0  0  0  0  0  0  0  0  0  0  0
   18.2469   39.7546  -11.7007 H   0  0  0  0  0  0  0  0  0  0  0  0
   17.2229   39.8175  -10.2701 H   0  0  0  0  0  0  0  0  0  0  0  0
   20.4738   41.9862  -10.4797 H   0  0  0  0  0  0  0  0  0  0  0  0
   20.0849   42.1344  -12.1674 H   0  0  0  0  0  0  0  0  0  0  0  0
   18.9279   43.7463   -8.8676 H   0  0  0  0  0  0  0  0  0  0  0  0
   19.3394   45.9971  -11.6827 H   0  0  0  0  0  0  0  0  0  0  0  0
   18.0939   44.8992  -11.1110 H   0  0  0  0  0  0  0  0  0  0  0  0
   18.7965   44.6829  -12.7146 H   0  0  0  0  0  0  0  0  0  0  0  0
   21.6912   42.1658   -8.6660 H   0  0  0  0  0  0  0  0  0  0  0  0
   22.9300   41.4081   -7.6818 H   0  0  0  0  0  0  0  0  0  0  0  0
   23.1023   43.0826   -8.1525 H   0  0  0  0  0  0  0  0  0  0  0  0
   20.0691   45.9617   -5.1982 H   0  0  0  0  0  0  0  0  0  0  0  0
  1  2  1  0  0  0  0
  1 40  1  0  0  0  0
  1 41  1  0  0  0  0
  1 42  1  0  0  0  0
  2  3  1  0  0  0  0
  2 43  1  0  0  0  0
  2 44  1  0  0  0  0
  3  4  1  0  0  0  0
  3 45  1  0  0  0  0
  3 46  1  0  0  0  0
  4  5  1  0  0  0  0
  4 47  1  0  0  0  0
  4 48  1  0  0  0  0
  5  6  1  0  0  0  0
  5 49  1  0  0  0  0
  6  7  2  0  0  0  0
  6  8  1  0  0  0  0
  8 35  1  6  0  0  0
  8  9  1  0  0  0  0
  8 10  1  0  0  0  0
  9 50  1  0  0  0  0
  9 51  1  0  0  0  0
  9 52  1  0  0  0  0
 10 11  1  0  0  0  0
 10 53  1  0  0  0  0
 10 54  1  0  0  0  0
 11 36  1  6  0  0  0
 11 12  1  0  0  0  0
 11 34  1  0  0  0  0
 12 37  1  1  0  0  0
 12 31  1  0  0  0  0
 12 13  1  0  0  0  0
 13 14  1  0  0  0  0
 13 55  1  0  0  0  0
 13 56  1  0  0  0  0
 14 38  1  1  0  0  0
 14 15  1  0  0  0  0
 14 33  1  0  0  0  0
 15 16  1  0  0  0  0
 15 57  1  0  0  0  0
 15 58  1  0  0  0  0
 16 17  1  0  0  0  0
 16 59  1  0  0  0  0
 16 60  1  0  0  0  0
 17 22  1  0  0  0  0
 17 18  2  0  0  0  0
 18 19  1  0  0  0  0
 18 61  1  0  0  0  0
 19 20  2  0  0  0  0
 19 62  1  0  0  0  0
 20 21  1  0  0  0  0
 20 63  1  0  0  0  0
 21 22  2  0  0  0  0
 21 23  1  0  0  0  0
 22 64  1  0  0  0  0
 23 24  1  0  0  0  0
 23 65  1  0  0  0  0
 23 66  1  0  0  0  0
 24 25  2  0  0  0  0
 24 26  2  0  0  0  0
 24 27  1  0  0  0  0
 27 28  1  0  0  0  0
 27 67  1  0  0  0  0
 27 68  1  0  0  0  0
 28 39  1  6  0  0  0
 28 29  1  0  0  0  0
 28 32  1  0  0  0  0
 29 30  2  0  0  0  0
 29 31  1  0  0  0  0
 31 69  1  0  0  0  0
 32 70  1  0  0  0  0
 32 71  1  0  0  0  0
 32 72  1  0  0  0  0
 33 73  1  0  0  0  0
 33 74  1  0  0  0  0
 33 75  1  0  0  0  0
 34 76  1  0  0  0  0
M  END
