BACE_4.smi:1
 OpenBabel10031817133D
Structure written by MMmdl.
 90 92  0  0  1  0  0  0  0  0999 V2000
   12.3293   44.0566   -9.1011 C   0  0  0  0  0  0  0  0  0  0  0  0
   13.5107   44.1465  -10.0846 C   0  0  2  0  0  0  0  0  0  0  0  0
   12.9973   44.5629  -11.4818 C   0  0  0  0  0  0  0  0  0  0  0  0
   14.0817   45.0603  -12.4549 C   0  0  0  0  0  0  0  0  0  0  0  0
   14.6836   46.4223  -12.0858 C   0  0  0  0  0  0  0  0  0  0  0  0
   15.7243   46.9075  -13.0985 C   0  0  0  0  0  0  0  0  0  0  0  0
   16.3787   48.2483  -12.7222 C   0  0  0  0  0  0  0  0  0  0  0  0
   17.3865   48.1246  -11.5728 C   0  0  0  0  0  0  0  0  0  0  0  0
   18.4939   47.3663  -12.0346 O   0  0  0  0  0  0  0  0  0  0  0  0
   19.3794   46.9274  -11.0112 C   0  0  0  0  0  0  0  0  0  0  0  0
   18.8057   45.6778  -10.3176 C   0  0  0  0  0  0  0  0  0  0  0  0
   18.6150   44.6789  -11.0169 O   0  0  0  0  0  0  0  0  0  0  0  0
   18.5483   45.6834   -8.9824 N   0  0  0  0  0  0  0  0  0  0  0  0
   18.1940   44.4078   -8.3120 C   0  0  2  0  0  0  0  0  0  0  0  0
   16.6786   44.1511   -8.3604 C   0  0  0  0  0  0  0  0  0  0  0  0
   15.8793   45.0290   -8.0400 O   0  0  0  0  0  0  0  0  0  0  0  0
   16.3314   42.9159   -8.7521 N   0  0  0  0  0  0  0  0  0  0  0  0
   15.0039   42.3106   -8.8576 C   0  0  1  0  0  0  0  0  0  0  0  0
   14.2927   42.8027  -10.1564 C   0  0  0  0  0  0  0  0  0  0  0  0
   15.2221   40.7668   -8.8371 C   0  0  1  0  0  0  0  0  0  0  0  0
   15.6589   40.1982   -7.4641 C   0  0  0  0  0  0  0  0  0  0  0  0
   15.8910   38.7331   -7.5214 N   0  3  0  0  0  0  0  0  0  0  0  0
   17.0159   38.2676   -8.3729 C   0  0  0  0  0  0  0  0  0  0  0  0
   16.9297   36.7943   -8.7258 C   0  0  0  0  0  0  0  0  0  0  0  0
   16.5850   37.8321   -9.7573 C   0  0  0  0  0  0  0  0  0  0  0  0
   18.3558   38.9073   -8.1129 C   0  0  0  0  0  0  0  0  0  0  0  0
   18.9496   38.8027   -6.8388 C   0  0  0  0  0  0  0  0  0  0  0  0
   20.2283   39.3448   -6.6065 C   0  0  0  0  0  0  0  0  0  0  0  0
   20.9399   39.9635   -7.6524 C   0  0  0  0  0  0  0  0  0  0  0  0
   20.3757   40.0704   -8.9446 C   0  0  0  0  0  0  0  0  0  0  0  0
   19.0664   39.5692   -9.1415 C   0  0  0  0  0  0  0  0  0  0  0  0
   21.1521   40.6709  -10.1329 C   0  0  0  0  0  0  0  0  0  0  0  0
   21.1928   39.6559  -11.2946 C   0  0  0  0  0  0  0  0  0  0  0  0
   20.4646   41.9631  -10.6086 C   0  0  0  0  0  0  0  0  0  0  0  0
   22.6184   41.0195   -9.7843 C   0  0  0  0  0  0  0  0  0  0  0  0
   14.0600   40.0586   -9.2394 O   0  0  0  0  0  0  0  0  0  0  0  0
   18.6562   44.3583   -6.8371 C   0  0  0  0  0  0  0  0  0  0  0  0
   18.5474   46.9275   -8.1971 C   0  0  0  0  0  0  0  0  0  0  0  0
   14.1589   44.9438   -9.7321 H   0  0  0  0  0  0  0  0  0  0  0  0
   18.7041   43.5831   -8.8061 H   0  0  0  0  0  0  0  0  0  0  0  0
   14.4171   42.5780   -7.9785 H   0  0  0  0  0  0  0  0  0  0  0  0
   15.9852   40.5348   -9.5804 H   0  0  0  0  0  0  0  0  0  0  0  0
   11.7122   44.9538   -9.1288 H   0  0  0  0  0  0  0  0  0  0  0  0
   12.6654   43.9398   -8.0722 H   0  0  0  0  0  0  0  0  0  0  0  0
   11.6800   43.2117   -9.3352 H   0  0  0  0  0  0  0  0  0  0  0  0
   12.4705   43.7216  -11.9321 H   0  0  0  0  0  0  0  0  0  0  0  0
   12.2514   45.3491  -11.3855 H   0  0  0  0  0  0  0  0  0  0  0  0
   13.6232   45.1409  -13.4407 H   0  0  0  0  0  0  0  0  0  0  0  0
   14.8739   44.3195  -12.5592 H   0  0  0  0  0  0  0  0  0  0  0  0
   13.8845   47.1559  -12.0398 H   0  0  0  0  0  0  0  0  0  0  0  0
   15.1417   46.3637  -11.1006 H   0  0  0  0  0  0  0  0  0  0  0  0
   15.2268   47.0332  -14.0551 H   0  0  0  0  0  0  0  0  0  0  0  0
   16.4932   46.1476  -13.2395 H   0  0  0  0  0  0  0  0  0  0  0  0
   16.8929   48.6582  -13.5939 H   0  0  0  0  0  0  0  0  0  0  0  0
   15.6117   48.9724  -12.4575 H   0  0  0  0  0  0  0  0  0  0  0  0
   16.9082   47.6681  -10.7066 H   0  0  0  0  0  0  0  0  0  0  0  0
   17.7315   49.1126  -11.2656 H   0  0  0  0  0  0  0  0  0  0  0  0
   19.6509   47.7438  -10.3417 H   0  0  0  0  0  0  0  0  0  0  0  0
   20.3086   46.6235  -11.4954 H   0  0  0  0  0  0  0  0  0  0  0  0
   17.1028   42.3120   -8.9885 H   0  0  0  0  0  0  0  0  0  0  0  0
   15.0411   42.8395  -10.9470 H   0  0  0  0  0  0  0  0  0  0  0  0
   13.5695   42.0631  -10.5024 H   0  0  0  0  0  0  0  0  0  0  0  0
   14.8820   40.3865   -6.7209 H   0  0  0  0  0  0  0  0  0  0  0  0
   16.5541   40.7010   -7.0985 H   0  0  0  0  0  0  0  0  0  0  0  0
   15.0394   38.3120   -7.8627 H   0  0  0  0  0  0  0  0  0  0  0  0
   17.8633   36.2532   -8.8656 H   0  0  0  0  0  0  0  0  0  0  0  0
   16.0901   36.1949   -8.3876 H   0  0  0  0  0  0  0  0  0  0  0  0
   15.5332   37.8967  -10.0362 H   0  0  0  0  0  0  0  0  0  0  0  0
   17.2866   37.9512  -10.5755 H   0  0  0  0  0  0  0  0  0  0  0  0
   18.4335   38.2951   -6.0365 H   0  0  0  0  0  0  0  0  0  0  0  0
   20.6785   39.2620   -5.6312 H   0  0  0  0  0  0  0  0  0  0  0  0
   21.9315   40.3277   -7.4322 H   0  0  0  0  0  0  0  0  0  0  0  0
   18.6163   39.6566  -10.1178 H   0  0  0  0  0  0  0  0  0  0  0  0
   21.6564   38.7254  -10.9656 H   0  0  0  0  0  0  0  0  0  0  0  0
   21.7719   40.0349  -12.1381 H   0  0  0  0  0  0  0  0  0  0  0  0
   20.1990   39.4153  -11.6762 H   0  0  0  0  0  0  0  0  0  0  0  0
   20.4870   42.7220   -9.8278 H   0  0  0  0  0  0  0  0  0  0  0  0
   19.4222   41.7971  -10.8866 H   0  0  0  0  0  0  0  0  0  0  0  0
   20.9706   42.3823  -11.4803 H   0  0  0  0  0  0  0  0  0  0  0  0
   22.6784   41.7852   -9.0092 H   0  0  0  0  0  0  0  0  0  0  0  0
   23.1508   41.4081  -10.6540 H   0  0  0  0  0  0  0  0  0  0  0  0
   23.1711   40.1427   -9.4419 H   0  0  0  0  0  0  0  0  0  0  0  0
   13.3080   40.4014   -8.7562 H   0  0  0  0  0  0  0  0  0  0  0  0
   18.5744   43.3443   -6.4509 H   0  0  0  0  0  0  0  0  0  0  0  0
   18.0642   44.9934   -6.1798 H   0  0  0  0  0  0  0  0  0  0  0  0
   19.7006   44.6513   -6.7469 H   0  0  0  0  0  0  0  0  0  0  0  0
   17.9913   46.8464   -7.2616 H   0  0  0  0  0  0  0  0  0  0  0  0
   18.0646   47.7449   -8.7322 H   0  0  0  0  0  0  0  0  0  0  0  0
   19.5706   47.2291   -7.9544 H   0  0  0  0  0  0  0  0  0  0  0  0
   16.0355   38.3705   -6.5835 H   0  0  0  0  0  0  0  0  0  0  0  0
  1  2  1  0  0  0  0
  1 43  1  0  0  0  0
  1 44  1  0  0  0  0
  1 45  1  0  0  0  0
  2 39  1  1  0  0  0
  2 19  1  0  0  0  0
  2  3  1  0  0  0  0
  3  4  1  0  0  0  0
  3 46  1  0  0  0  0
  3 47  1  0  0  0  0
  4  5  1  0  0  0  0
  4 48  1  0  0  0  0
  4 49  1  0  0  0  0
  5  6  1  0  0  0  0
  5 50  1  0  0  0  0
  5 51  1  0  0  0  0
  6  7  1  0  0  0  0
  6 52  1  0  0  0  0
  6 53  1  0  0  0  0
  7  8  1  0  0  0  0
  7 54  1  0  0  0  0
  7 55  1  0  0  0  0
  8  9  1  0  0  0  0
  8 56  1  0  0  0  0
  8 57  1  0  0  0  0
  9 10  1  0  0  0  0
 10 11  1  0  0  0  0
 10 58  1  0  0  0  0
 10 59  1  0  0  0  0
 11 12  2  0  0  0  0
 11 13  1  0  0  0  0
 13 14  1  0  0  0  0
 13 38  1  0  0  0  0
 14 40  1  6  0  0  0
 14 15  1  0  0  0  0
 14 37  1  0  0  0  0
 15 16  2  0  0  0  0
 15 17  1  0  0  0  0
 17 18  1  0  0  0  0
 17 60  1  0  0  0  0
 18 41  1  1  0  0  0
 18 19  1  0  0  0  0
 18 20  1  0  0  0  0
 19 61  1  0  0  0  0
 19 62  1  0  0  0  0
 20 42  1  6  0  0  0
 20 21  1  0  0  0  0
 20 36  1  0  0  0  0
 21 22  1  0  0  0  0
 21 63  1  0  0  0  0
 21 64  1  0  0  0  0
 22 23  1  0  0  0  0
 22 65  1  0  0  0  0
 22 90  1  0  0  0  0
 23 25  1  0  0  0  0
 23 24  1  0  0  0  0
 23 26  1  0  0  0  0
 24 25  1  0  0  0  0
 24 66  1  0  0  0  0
 24 67  1  0  0  0  0
 25 68  1  0  0  0  0
 25 69  1  0  0  0  0
 26 31  1  0  0  0  0
 26 27  2  0  0  0  0
 27 28  1  0  0  0  0
 27 70  1  0  0  0  0
 28 29  2  0  0  0  0
 28 71  1  0  0  0  0
 29 30  1  0  0  0  0
 29 72  1  0  0  0  0
 30 31  2  0  0  0  0
 30 32  1  0  0  0  0
 31 73  1  0  0  0  0
 32 33  1  0  0  0  0
 32 34  1  0  0  0  0
 32 35  1  0  0  0  0
 33 74  1  0  0  0  0
 33 75  1  0  0  0  0
 33 76  1  0  0  0  0
 34 77  1  0  0  0  0
 34 78  1  0  0  0  0
 34 79  1  0  0  0  0
 35 80  1  0  0  0  0
 35 81  1  0  0  0  0
 35 82  1  0  0  0  0
 36 83  1  0  0  0  0
 37 84  1  0  0  0  0
 37 85  1  0  0  0  0
 37 86  1  0  0  0  0
 38 87  1  0  0  0  0
 38 88  1  0  0  0  0
 38 89  1  0  0  0  0
M  CHG  1  22   1
M  END
>  <s_m_source_file>
BACE_4.smi

>  <i_m_source_file_index>
1

>  <i_lp_mmshare_version>
42013

>  <i_f3d_flags>
0

>  <s_epik_input>
W0NIM11bQ0BASF0xW0NIMl1bQ0gyXVtDSDJdW0NIMl1bQ0gyXVtDSDJdT1tDSDJdQyg9TylOKFtDSDNdKVtDQEBIXShbQ0gzXSlDKD1PKVtOSF1bQ0BASF0oW0NIMl0xKVtDQEhdKFtPSF0pW0NIMl1bTkhdQzIoW0NIMl1bQ0gyXTIpYzNbY0hdW2NIXVtjSF1jKFtjSF0zKUMoW0NIM10pKFtDSDNdKVtDSDNd

>  <s_epik_cmdline>
J2VwaWtfcHl0aG9uJywgJy1waCcsICc3LjAnLCAnLXRuJywgJzgnLCAnLW1hJywgJzIwMCcsICctaW1hZScsICc8aW5maWxlLm1hZT4nLCAnLW9tYWUnLCAnPG91dGZpbGUubWFlPic=

>  <r_epik_Ionization_Penalty>
0.4928

>  <r_epik_Ionization_Penalty_Charging>
0.4928

>  <r_epik_Ionization_Penalty_Neutral>
0

>  <r_epik_State_Penalty>
0.4987

>  <r_epik_Charging_Adjusted_Penalty>
0.991533

>  <i_epik_Tot_Q>
1

>  <i_epik_Tot_abs_Q>
1

>  <s_lp_Force_Field>
OPLS_2005

>  <r_lp_Energy>
51.5247

>  <b_lp_Chiralities_Consistent>
1

>  <s_lp_Variant>
BACE_4.smi:1-2

>  <chiral flag>
1

>  <version>
0

>  <r_i_glide_lipo>
-1.16373

>  <r_i_glide_hbond>
-0.400214

>  <r_i_glide_metal>
-0

>  <r_i_glide_rewards>
-0.00554154

>  <r_i_glide_erotb>
0.365907

>  <r_i_glide_esite>
-0.000889564

>  <s_i_glide_gridfile>
second_dock_grid_2

>  <i_i_glide_lignum>
7

>  <i_i_glide_rotatable_bonds>
7

>  <r_i_docking_score>
-3.73197

>  <r_i_glide_ligand_efficiency>
-0.0982097

>  <r_i_glide_ligand_efficiency_sa>
-0.330179

>  <r_i_glide_ligand_efficiency_ln>
-0.804723

>  <r_glide_XP_GScore>
-4.23067

>  <r_i_glide_gscore>
-4.23067

>  <r_i_glide_evdw>
-36.9416

>  <r_i_glide_ecoul>
-13.129

>  <r_i_glide_energy>
-50.0706

>  <r_i_glide_einternal>
5.8147

>  <r_i_glide_emodel>
-67.4228

>  <r_glide_XP_HBond>
-1.03231

>  <i_i_glide_confnum>
1

>  <i_i_glide_posenum>
1

>  <r_i_glide_eff_state_penalty>
0.4987

>  <i_glide_XP_PoseRank>
2

>  <chiral flag>
1

$$$$
