BACE_9.smi:1
 OpenBabel10031817233D
Structure written by MMmdl.
 87 89  0  0  1  0  0  0  0  0999 V2000
   20.4739   46.3906   -6.9457 C   0  0  0  0  0  0  0  0  0  0  0  0
   20.3413   44.9989   -7.5864 C   0  0  2  0  0  0  0  0  0  0  0  0
   21.7376   44.3531   -7.7409 C   0  0  0  0  0  0  0  0  0  0  0  0
   21.6966   42.8983   -8.2284 C   0  0  0  0  0  0  0  0  0  0  0  0
   23.0669   42.2028   -8.2032 C   0  0  0  0  0  0  0  0  0  0  0  0
   22.9828   40.7360   -8.6526 C   0  0  0  0  0  0  0  0  0  0  0  0
   22.3608   39.8120   -7.5861 C   0  0  0  0  0  0  0  0  0  0  0  0
   21.9285   38.4346   -8.1115 C   0  0  0  0  0  0  0  0  0  0  0  0
   20.4855   38.3780   -8.6390 C   0  0  0  0  0  0  0  0  0  0  0  0
   20.3177   39.1157   -9.8789 N   0  0  0  0  0  0  0  0  0  0  0  0
   19.0547   39.6738  -10.1016 C   0  0  0  0  0  0  0  0  0  0  0  0
   17.8587   38.9825   -9.7994 C   0  0  0  0  0  0  0  0  0  0  0  0
   16.6065   39.5873  -10.0396 C   0  0  0  0  0  0  0  0  0  0  0  0
   16.5490   40.8824  -10.5950 C   0  0  0  0  0  0  0  0  0  0  0  0
   17.7403   41.5936  -10.8504 C   0  0  0  0  0  0  0  0  0  0  0  0
   18.9875   40.9749  -10.6309 C   0  0  0  0  0  0  0  0  0  0  0  0
   17.6836   42.9961  -11.3664 C   0  0  0  0  0  0  0  0  0  0  0  0
   17.1462   43.2438  -12.4452 O   0  0  0  0  0  0  0  0  0  0  0  0
   18.2452   43.9628  -10.6184 N   0  0  0  0  0  0  0  0  0  0  0  0
   18.5639   43.9405   -9.1807 C   0  0  1  0  0  0  0  0  0  0  0  0
   19.5688   45.0867   -8.9261 C   0  0  0  0  0  0  0  0  0  0  0  0
   17.2878   44.0777   -8.2793 C   0  0  1  0  0  0  0  0  0  0  0  0
   16.1462   44.9353   -8.8949 C   0  0  0  0  0  0  0  0  0  0  0  0
   14.7932   44.6035   -8.4326 N   0  0  0  0  0  0  0  0  0  0  0  0
   14.1458   43.4801   -9.1272 C   0  0  0  0  0  0  0  0  0  0  0  0
   13.6652   43.7359  -10.5524 C   0  0  0  0  0  0  0  0  0  0  0  0
   12.9297   42.7300  -11.2029 C   0  0  0  0  0  0  0  0  0  0  0  0
   12.4548   42.9352  -12.5137 C   0  0  0  0  0  0  0  0  0  0  0  0
   12.7064   44.1487  -13.1803 C   0  0  0  0  0  0  0  0  0  0  0  0
   13.4120   45.1852  -12.5340 C   0  0  0  0  0  0  0  0  0  0  0  0
   13.9081   44.9437  -11.2384 C   0  0  0  0  0  0  0  0  0  0  0  0
   13.6340   46.5680  -13.1557 C   0  0  0  0  0  0  0  0  0  0  0  0
   12.9422   46.7928  -14.5122 C   0  0  0  0  0  0  0  0  0  0  0  0
   15.1271   46.9434  -13.1920 C   0  0  0  0  0  0  0  0  0  0  0  0
   16.8794   42.7892   -7.8622 O   0  0  0  0  0  0  0  0  0  0  0  0
   15.3243   38.8291   -9.7343 C   0  0  0  0  0  0  0  0  0  0  0  0
   15.3085   38.2566   -8.4398 O   0  0  0  0  0  0  0  0  0  0  0  0
   15.0458   39.1888   -7.4026 C   0  0  0  0  0  0  0  0  0  0  0  0
   19.7743   44.3880   -6.8810 H   0  0  0  0  0  0  0  0  0  0  0  0
   19.0647   43.0063   -8.9313 H   0  0  0  0  0  0  0  0  0  0  0  0
   17.5679   44.5617   -7.3430 H   0  0  0  0  0  0  0  0  0  0  0  0
   21.0499   47.0648   -7.5832 H   0  0  0  0  0  0  0  0  0  0  0  0
   20.9764   46.3345   -5.9777 H   0  0  0  0  0  0  0  0  0  0  0  0
   19.4951   46.8423   -6.7769 H   0  0  0  0  0  0  0  0  0  0  0  0
   22.3523   44.9474   -8.4182 H   0  0  0  0  0  0  0  0  0  0  0  0
   22.2448   44.3779   -6.7741 H   0  0  0  0  0  0  0  0  0  0  0  0
   20.9861   42.3472   -7.6131 H   0  0  0  0  0  0  0  0  0  0  0  0
   21.3141   42.8648   -9.2484 H   0  0  0  0  0  0  0  0  0  0  0  0
   23.7465   42.7372   -8.8677 H   0  0  0  0  0  0  0  0  0  0  0  0
   23.5065   42.2592   -7.2073 H   0  0  0  0  0  0  0  0  0  0  0  0
   22.4288   40.6875   -9.5878 H   0  0  0  0  0  0  0  0  0  0  0  0
   23.9829   40.3694   -8.8855 H   0  0  0  0  0  0  0  0  0  0  0  0
   23.1023   39.6746   -6.7990 H   0  0  0  0  0  0  0  0  0  0  0  0
   21.5066   40.2811   -7.0968 H   0  0  0  0  0  0  0  0  0  0  0  0
   22.6322   38.0577   -8.8519 H   0  0  0  0  0  0  0  0  0  0  0  0
   21.9805   37.7501   -7.2669 H   0  0  0  0  0  0  0  0  0  0  0  0
   20.2057   37.3452   -8.8396 H   0  0  0  0  0  0  0  0  0  0  0  0
   19.8009   38.7472   -7.8725 H   0  0  0  0  0  0  0  0  0  0  0  0
   21.1077   39.6876  -10.1402 H   0  0  0  0  0  0  0  0  0  0  0  0
   17.8903   37.9860   -9.3861 H   0  0  0  0  0  0  0  0  0  0  0  0
   15.5936   41.3426  -10.7882 H   0  0  0  0  0  0  0  0  0  0  0  0
   19.8982   41.5122  -10.8470 H   0  0  0  0  0  0  0  0  0  0  0  0
   18.2647   44.8761  -11.0443 H   0  0  0  0  0  0  0  0  0  0  0  0
   19.0243   46.0278   -8.9832 H   0  0  0  0  0  0  0  0  0  0  0  0
   20.2955   45.1331   -9.7383 H   0  0  0  0  0  0  0  0  0  0  0  0
   16.3609   45.9755   -8.6573 H   0  0  0  0  0  0  0  0  0  0  0  0
   16.1653   44.8949   -9.9741 H   0  0  0  0  0  0  0  0  0  0  0  0
   14.8614   44.3583   -7.4500 H   0  0  0  0  0  0  0  0  0  0  0  0
   14.7839   42.5984   -9.1253 H   0  0  0  0  0  0  0  0  0  0  0  0
   13.2644   43.1897   -8.5563 H   0  0  0  0  0  0  0  0  0  0  0  0
   12.7301   41.7978  -10.6950 H   0  0  0  0  0  0  0  0  0  0  0  0
   11.8968   42.1546  -13.0114 H   0  0  0  0  0  0  0  0  0  0  0  0
   12.3272   44.2672  -14.1817 H   0  0  0  0  0  0  0  0  0  0  0  0
   14.4596   45.7363  -10.7601 H   0  0  0  0  0  0  0  0  0  0  0  0
   13.1528   47.2661  -12.4683 H   0  0  0  0  0  0  0  0  0  0  0  0
   11.8742   46.6150  -14.4434 H   0  0  0  0  0  0  0  0  0  0  0  0
   13.3224   46.1497  -15.3012 H   0  0  0  0  0  0  0  0  0  0  0  0
   13.0711   47.8210  -14.8497 H   0  0  0  0  0  0  0  0  0  0  0  0
   15.5258   47.1041  -12.1908 H   0  0  0  0  0  0  0  0  0  0  0  0
   15.2951   47.8635  -13.7489 H   0  0  0  0  0  0  0  0  0  0  0  0
   15.7295   46.1549  -13.6382 H   0  0  0  0  0  0  0  0  0  0  0  0
   16.3729   42.8593   -7.0597 H   0  0  0  0  0  0  0  0  0  0  0  0
   14.4422   39.4512   -9.8968 H   0  0  0  0  0  0  0  0  0  0  0  0
   15.2601   38.0036  -10.4391 H   0  0  0  0  0  0  0  0  0  0  0  0
   15.0573   38.6801   -6.4401 H   0  0  0  0  0  0  0  0  0  0  0  0
   14.0628   39.6451   -7.5210 H   0  0  0  0  0  0  0  0  0  0  0  0
   15.7983   39.9763   -7.3685 H   0  0  0  0  0  0  0  0  0  0  0  0
  1  2  1  0  0  0  0
  1 42  1  0  0  0  0
  1 43  1  0  0  0  0
  1 44  1  0  0  0  0
  2 39  1  1  0  0  0
  2 21  1  0  0  0  0
  2  3  1  0  0  0  0
  3  4  1  0  0  0  0
  3 45  1  0  0  0  0
  3 46  1  0  0  0  0
  4  5  1  0  0  0  0
  4 47  1  0  0  0  0
  4 48  1  0  0  0  0
  5  6  1  0  0  0  0
  5 49  1  0  0  0  0
  5 50  1  0  0  0  0
  6  7  1  0  0  0  0
  6 51  1  0  0  0  0
  6 52  1  0  0  0  0
  7  8  1  0  0  0  0
  7 53  1  0  0  0  0
  7 54  1  0  0  0  0
  8  9  1  0  0  0  0
  8 55  1  0  0  0  0
  8 56  1  0  0  0  0
  9 10  1  0  0  0  0
  9 57  1  0  0  0  0
  9 58  1  0  0  0  0
 10 11  1  0  0  0  0
 10 59  1  0  0  0  0
 11 16  1  0  0  0  0
 11 12  2  0  0  0  0
 12 13  1  0  0  0  0
 12 60  1  0  0  0  0
 13 14  2  0  0  0  0
 13 36  1  0  0  0  0
 14 15  1  0  0  0  0
 14 61  1  0  0  0  0
 15 16  2  0  0  0  0
 15 17  1  0  0  0  0
 16 62  1  0  0  0  0
 17 18  2  0  0  0  0
 17 19  1  0  0  0  0
 19 20  1  0  0  0  0
 19 63  1  0  0  0  0
 20 40  1  1  0  0  0
 20 21  1  0  0  0  0
 20 22  1  0  0  0  0
 21 64  1  0  0  0  0
 21 65  1  0  0  0  0
 22 41  1  1  0  0  0
 22 23  1  0  0  0  0
 22 35  1  0  0  0  0
 23 24  1  0  0  0  0
 23 66  1  0  0  0  0
 23 67  1  0  0  0  0
 24 25  1  0  0  0  0
 24 68  1  0  0  0  0
 25 26  1  0  0  0  0
 25 69  1  0  0  0  0
 25 70  1  0  0  0  0
 26 31  1  0  0  0  0
 26 27  2  0  0  0  0
 27 28  1  0  0  0  0
 27 71  1  0  0  0  0
 28 29  2  0  0  0  0
 28 72  1  0  0  0  0
 29 30  1  0  0  0  0
 29 73  1  0  0  0  0
 30 31  2  0  0  0  0
 30 32  1  0  0  0  0
 31 74  1  0  0  0  0
 32 33  1  0  0  0  0
 32 34  1  0  0  0  0
 32 75  1  0  0  0  0
 33 76  1  0  0  0  0
 33 77  1  0  0  0  0
 33 78  1  0  0  0  0
 34 79  1  0  0  0  0
 34 80  1  0  0  0  0
 34 81  1  0  0  0  0
 35 82  1  0  0  0  0
 36 37  1  0  0  0  0
 36 83  1  0  0  0  0
 36 84  1  0  0  0  0
 37 38  1  0  0  0  0
 38 85  1  0  0  0  0
 38 86  1  0  0  0  0
 38 87  1  0  0  0  0
M  END
