@<TRIPOS>MOLECULE
BACE_3.smi:1
 86 87 0 0 0
SMALL
GASTEIGER
****
Structure written by MMmdl.
@<TRIPOS>ATOM
      1 C          -2.1299    3.4899   -1.5932 C.ar    1  UNL1       -0.0535
      2 C          -2.1441    3.8605   -2.9509 C.ar    1  UNL1       -0.0611
      3 C          -2.3658    2.8886   -3.9449 C.ar    1  UNL1       -0.0583
      4 C          -2.5816    1.5394   -3.5875 C.ar    1  UNL1       -0.0444
      5 C          -2.8063    0.4790   -4.6577 C.3     1  UNL1       -0.0215
      6 C          -4.0504    0.7787   -5.5087 C.3     1  UNL1       -0.0586
      7 C          -1.5543    0.2881   -5.5279 C.3     1  UNL1       -0.0586
      8 C          -2.5740    1.1756   -2.2237 C.ar    1  UNL1       -0.0501
      9 C          -2.3410    2.1451   -1.2252 C.ar    1  UNL1       -0.0027
     10 C          -2.3028    1.7445    0.2389 C.3     1  UNL1       -0.0075
     11 N          -0.9192    1.5265    0.7101 N.4     1  UNL1        0.2341
     12 C          -0.2775    0.2869    0.2169 C.3     1  UNL1        0.0236
     13 C           1.2028    0.1801    0.6598 C.3     1  UNL1        0.2249
     14 O           1.1936    0.2097    2.0749 O.3     1  UNL1       -0.3594
     15 O           1.8942    1.2886    0.1182 O.3     1  UNL1       -0.3594
     16 C           1.9120   -1.1552    0.2399 C.3     1  UNL1        0.0822
     17 N           1.3287   -1.8019   -0.9384 N.am    1  UNL1       -0.3056
     18 C           1.4389   -1.4183   -2.2220 C.2     1  UNL1        0.2337
     19 O           2.0169   -0.3917   -2.5756 O.2     1  UNL1       -0.2738
     20 C           0.7951   -2.3388   -3.2682 C.3     1  UNL1        0.0991
     21 C          -0.7012   -2.6393   -3.0182 C.3     1  UNL1       -0.0379
     22 C           3.4641   -1.1291    0.1488 C.3     1  UNL1       -0.0267
     23 C           4.2221   -0.9930    1.4911 C.3     1  UNL1       -0.0420
     24 C           5.7139   -0.6898    1.2617 C.3     1  UNL1       -0.0624
     25 C           4.0086   -2.1666    2.4873 C.3     1  UNL1       -0.0504
     26 C           3.8869   -3.5964    1.9130 C.3     1  UNL1       -0.0528
     27 C           5.1284   -4.1360    1.1800 C.3     1  UNL1       -0.0530
     28 C           4.9288   -5.5375    0.5764 C.3     1  UNL1       -0.0531
     29 C           3.8131   -5.5853   -0.4827 C.3     1  UNL1       -0.0530
     30 C           3.8422   -6.8552   -1.3454 C.3     1  UNL1       -0.0526
     31 C           2.6309   -7.0223   -2.2864 C.3     1  UNL1       -0.0448
     32 C           2.4447   -5.8913   -3.3277 C.3     1  UNL1        0.0242
     33 C           1.6001   -4.6834   -2.8567 C.2     1  UNL1        0.2159
     34 O           0.9092   -4.8114   -1.8456 O.2     1  UNL1       -0.2756
     35 N           1.6358   -3.5248   -3.5711 N.am    1  UNL1       -0.2932
     36 C           2.6037   -3.3519   -4.6639 C.3     1  UNL1        0.0039
     37 H           1.6512   -1.8856    1.0050 H       1  UNL1        0.0553
     38 H           0.7649   -1.7402   -4.1788 H       1  UNL1        0.0594
     39 H           3.8404   -0.1007    1.9870 H       1  UNL1        0.0299
     40 H          -1.9511    4.2403   -0.8369 H       1  UNL1        0.0622
     41 H          -1.9794    4.8905   -3.2312 H       1  UNL1        0.0618
     42 H          -2.3662    3.1837   -4.9840 H       1  UNL1        0.0620
     43 H          -2.9930   -0.4684   -4.1508 H       1  UNL1        0.0343
     44 H          -4.9407    0.8635   -4.8845 H       1  UNL1        0.0235
     45 H          -4.2306   -0.0185   -6.2305 H       1  UNL1        0.0235
     46 H          -3.9444    1.7090   -6.0671 H       1  UNL1        0.0235
     47 H          -0.6867    0.0417   -4.9155 H       1  UNL1        0.0235
     48 H          -1.3157    1.1902   -6.0920 H       1  UNL1        0.0235
     49 H          -1.6933   -0.5224   -6.2439 H       1  UNL1        0.0235
     50 H          -2.7330    0.1452   -1.9402 H       1  UNL1        0.0625
     51 H          -2.7493    2.5416    0.8342 H       1  UNL1        0.0866
     52 H          -2.9049    0.8509    0.4098 H       1  UNL1        0.0866
     53 H          -0.8462   -0.5736    0.5727 H       1  UNL1        0.0868
     54 H          -0.3397    0.2821   -0.8701 H       1  UNL1        0.0868
     55 H           0.8434   -0.6093    2.3919 H       1  UNL1        0.2130
     56 H           2.8218    1.1519    0.2390 H       1  UNL1        0.2130
     57 H           0.8316   -2.6646   -0.7661 H       1  UNL1        0.1492
     58 H          -1.2757   -1.7134   -3.0008 H       1  UNL1        0.0252
     59 H          -0.8911   -3.1361   -2.0677 H       1  UNL1        0.0252
     60 H          -1.1142   -3.2611   -3.8129 H       1  UNL1        0.0252
     61 H           3.8043   -2.0330   -0.3556 H       1  UNL1        0.0287
     62 H           3.7754   -0.3241   -0.5169 H       1  UNL1        0.0287
     63 H           6.2264   -1.4834    0.7224 H       1  UNL1        0.0232
     64 H           6.2357   -0.5440    2.2080 H       1  UNL1        0.0232
     65 H           5.8394    0.2254    0.6827 H       1  UNL1        0.0232
     66 H           4.7897   -2.1497    3.2482 H       1  UNL1        0.0268
     67 H           3.0857   -1.9691    3.0338 H       1  UNL1        0.0268
     68 H           3.6560   -4.2744    2.7352 H       1  UNL1        0.0265
     69 H           3.0210   -3.6427    1.2567 H       1  UNL1        0.0265
     70 H           5.4104   -3.4687    0.3692 H       1  UNL1        0.0265
     71 H           5.9741   -4.1541    1.8682 H       1  UNL1        0.0265
     72 H           5.8692   -5.8473    0.1188 H       1  UNL1        0.0265
     73 H           4.7218   -6.2612    1.3655 H       1  UNL1        0.0265
     74 H           2.8436   -5.5147    0.0103 H       1  UNL1        0.0265
     75 H           3.9010   -4.7127   -1.1307 H       1  UNL1        0.0265
     76 H           4.7609   -6.8694   -1.9330 H       1  UNL1        0.0265
     77 H           3.8908   -7.7264   -0.6912 H       1  UNL1        0.0265
     78 H           2.7673   -7.9570   -2.8314 H       1  UNL1        0.0270
     79 H           1.7249   -7.1755   -1.6992 H       1  UNL1        0.0270
     80 H           3.4320   -5.5821   -3.6682 H       1  UNL1        0.0358
     81 H           1.9360   -6.3033   -4.2000 H       1  UNL1        0.0358
     82 H           2.4672   -4.1141   -5.4322 H       1  UNL1        0.0429
     83 H           3.6246   -3.4161   -4.2851 H       1  UNL1        0.0429
     84 H           2.5245   -2.3858   -5.1620 H       1  UNL1        0.0429
     85 H          -0.3539    2.3131    0.4233 H       1  UNL1        0.2019
     86 H          -0.9239    1.4891    1.7192 H       1  UNL1        0.2019
@<TRIPOS>BOND
     1     1     9   ar
     2     1     2   ar
     3     1    40    1
     4     2     3   ar
     5     2    41    1
     6     3     4   ar
     7     3    42    1
     8     4     5    1
     9     4     8   ar
    10     5     6    1
    11     5     7    1
    12     5    43    1
    13     6    44    1
    14     6    45    1
    15     6    46    1
    16     7    47    1
    17     7    48    1
    18     7    49    1
    19     8     9   ar
    20     8    50    1
    21     9    10    1
    22    10    11    1
    23    10    51    1
    24    10    52    1
    25    11    12    1
    26    11    85    1
    27    11    86    1
    28    12    13    1
    29    12    53    1
    30    12    54    1
    31    13    14    1
    32    13    15    1
    33    13    16    1
    34    14    55    1
    35    15    56    1
    36    16    37    1
    37    16    17    1
    38    16    22    1
    39    17    18   am
    40    17    57    1
    41    18    19    2
    42    18    20    1
    43    20    38    1
    44    20    35    1
    45    20    21    1
    46    21    58    1
    47    21    59    1
    48    21    60    1
    49    22    23    1
    50    22    61    1
    51    22    62    1
    52    23    39    1
    53    23    24    1
    54    23    25    1
    55    24    63    1
    56    24    64    1
    57    24    65    1
    58    25    26    1
    59    25    66    1
    60    25    67    1
    61    26    27    1
    62    26    68    1
    63    26    69    1
    64    27    28    1
    65    27    70    1
    66    27    71    1
    67    28    29    1
    68    28    72    1
    69    28    73    1
    70    29    30    1
    71    29    74    1
    72    29    75    1
    73    30    31    1
    74    30    76    1
    75    30    77    1
    76    31    32    1
    77    31    78    1
    78    31    79    1
    79    32    33    1
    80    32    80    1
    81    32    81    1
    82    33    34    2
    83    33    35   am
    84    35    36    1
    85    36    82    1
    86    36    83    1
    87    36    84    1
