@<TRIPOS>MOLECULE
BACE_5.smi:1
 80 81 0 0 0
SMALL
GASTEIGER
****
Structure written by MMmdl.
@<TRIPOS>ATOM
      1 C          -5.6546    3.1956   -2.0218 C.3     1  UNL1       -0.0649
      2 C          -6.2909    2.2972   -0.9524 C.3     1  UNL1       -0.0504
      3 C          -5.5881    0.9389   -0.7866 C.3     1  UNL1       -0.0089
      4 C          -4.1631    1.0674   -0.3206 C.ar    1  UNL1        0.0632
      5 C          -2.9709    0.9484   -1.0940 C.ar    1  UNL1       -0.0129
      6 C          -1.9625    1.1581   -0.1958 C.ar    1  UNL1        0.0806
      7 N          -2.5699    1.3798    1.0190 N.ar    1  UNL1       -0.2762
      8 N          -3.9125    1.3251    0.9550 N.ar    1  UNL1       -0.1785
      9 C          -0.4810    1.1696   -0.3625 C.3     1  UNL1        0.0092
     10 N           0.0733   -0.1922   -0.2499 N.4     1  UNL1        0.2332
     11 C           1.5452   -0.2502   -0.3408 C.3     1  UNL1       -0.0049
     12 C           2.0595   -1.6951   -0.1733 C.3     1  UNL1        0.1129
     13 C           3.5986   -1.7992   -0.0214 C.3     1  UNL1        0.0543
     14 C           4.1844   -3.2378    0.0424 C.3     1  UNL1       -0.0293
     15 C           3.6411   -4.2646    1.0750 C.3     1  UNL1       -0.0421
     16 C           3.5205   -3.7169    2.5115 C.3     1  UNL1       -0.0504
     17 C           3.4447   -4.8063    3.5953 C.3     1  UNL1       -0.0528
     18 C           3.2114   -4.2178    4.9928 C.3     1  UNL1       -0.0530
     19 C           1.7266   -3.9486    5.2993 C.3     1  UNL1       -0.0510
     20 C           1.5397   -3.0268    6.5157 C.3     1  UNL1       -0.0294
     21 C           1.3160   -1.5524    6.1452 C.3     1  UNL1        0.0483
     22 O           2.2430   -1.1356    5.1543 O.3     1  UNL1       -0.3706
     23 C           2.3843    0.2741    5.0890 C.3     1  UNL1        0.1238
     24 C           3.0827    0.6671    3.7803 C.2     1  UNL1        0.2417
     25 O           2.4079    1.2808    2.9513 O.2     1  UNL1       -0.2731
     26 N           4.3959    0.3705    3.5705 N.am    1  UNL1       -0.2914
     27 C           5.0809    0.9058    2.3575 C.3     1  UNL1        0.0991
     28 C           4.7323    0.1644    1.0467 C.2     1  UNL1        0.2336
     29 O           5.0368    0.6865   -0.0258 O.2     1  UNL1       -0.2738
     30 N           4.0690   -1.0044    1.1175 N.am    1  UNL1       -0.3083
     31 C           6.6237    0.9154    2.4864 C.3     1  UNL1       -0.0379
     32 C           5.1932   -0.4279    4.5177 C.3     1  UNL1        0.0040
     33 C           2.3584   -4.9763    0.6004 C.3     1  UNL1       -0.0624
     34 O           1.6667   -2.4122   -1.3283 O.3     1  UNL1       -0.3847
     35 H          -2.0901    1.5699    1.8876 H       1  UNL1        0.1887
     36 H           1.5775   -2.1307    0.7007 H       1  UNL1        0.0666
     37 H           4.0220   -1.3691   -0.9309 H       1  UNL1        0.0526
     38 H           4.4031   -5.0448    1.1069 H       1  UNL1        0.0299
     39 H           4.7774    1.9467    2.2281 H       1  UNL1        0.0594
     40 H          -6.2156    4.1239   -2.1293 H       1  UNL1        0.0230
     41 H          -5.6413    2.7014   -2.9934 H       1  UNL1        0.0230
     42 H          -4.6289    3.4599   -1.7642 H       1  UNL1        0.0230
     43 H          -6.3041    2.8238    0.0028 H       1  UNL1        0.0266
     44 H          -7.3344    2.1235   -1.2172 H       1  UNL1        0.0266
     45 H          -6.1519    0.3305   -0.0785 H       1  UNL1        0.0329
     46 H          -5.6206    0.3972   -1.7324 H       1  UNL1        0.0329
     47 H          -2.8753    0.7442   -2.1502 H       1  UNL1        0.0656
     48 H          -0.2198    1.5871   -1.3357 H       1  UNL1        0.0881
     49 H          -0.0264    1.8117    0.3936 H       1  UNL1        0.0881
     50 H           1.8814    0.1736   -1.2883 H       1  UNL1        0.0840
     51 H           1.9365    0.3905    0.4475 H       1  UNL1        0.0840
     52 H           4.1131   -3.6837   -0.9504 H       1  UNL1        0.0286
     53 H           5.2581   -3.1396    0.2111 H       1  UNL1        0.0286
     54 H           4.3923   -3.1005    2.7324 H       1  UNL1        0.0268
     55 H           2.6548   -3.0585    2.5839 H       1  UNL1        0.0268
     56 H           2.6641   -5.5340    3.3753 H       1  UNL1        0.0265
     57 H           4.3842   -5.3603    3.5950 H       1  UNL1        0.0265
     58 H           3.5968   -4.9096    5.7426 H       1  UNL1        0.0265
     59 H           3.7995   -3.3061    5.1026 H       1  UNL1        0.0265
     60 H           1.2173   -3.5249    4.4330 H       1  UNL1        0.0266
     61 H           1.2373   -4.9045    5.4903 H       1  UNL1        0.0266
     62 H           0.6814   -3.3652    7.0970 H       1  UNL1        0.0287
     63 H           2.3985   -3.1158    7.1823 H       1  UNL1        0.0287
     64 H           0.3058   -1.4066    5.7605 H       1  UNL1        0.0560
     65 H           1.4081   -0.9445    7.0473 H       1  UNL1        0.0560
     66 H           1.4025    0.7511    5.1187 H       1  UNL1        0.0657
     67 H           2.9468    0.6449    5.9470 H       1  UNL1        0.0657
     68 H           3.8580   -1.3667    2.0365 H       1  UNL1        0.1491
     69 H           7.0833    1.4161    1.6332 H       1  UNL1        0.0252
     70 H           7.0502   -0.0871    2.5308 H       1  UNL1        0.0252
     71 H           6.9457    1.4645    3.3715 H       1  UNL1        0.0252
     72 H           5.9187    0.2021    5.0322 H       1  UNL1        0.0429
     73 H           5.7320   -1.2141    3.9892 H       1  UNL1        0.0429
     74 H           4.6263   -0.9355    5.2932 H       1  UNL1        0.0429
     75 H           1.4745   -4.3485    0.6917 H       1  UNL1        0.0232
     76 H           2.1685   -5.8782    1.1814 H       1  UNL1        0.0232
     77 H           2.4407   -5.2876   -0.4412 H       1  UNL1        0.0232
     78 H           2.1464   -2.0767   -2.0707 H       1  UNL1        0.2101
     79 H          -0.2064   -0.5780    0.6405 H       1  UNL1        0.2018
     80 H          -0.3178   -0.7641   -0.9851 H       1  UNL1        0.2018
@<TRIPOS>BOND
     1     1     2    1
     2     1    40    1
     3     1    41    1
     4     1    42    1
     5     2     3    1
     6     2    43    1
     7     2    44    1
     8     3    45    1
     9     3    46    1
    10     3     4    1
    11     4     8   ar
    12     4     5   ar
    13     5     6   ar
    14     5    47    1
    15     6     7   ar
    16     6     9    1
    17     7     8   ar
    18     7    35    1
    19     9    10    1
    20     9    48    1
    21     9    49    1
    22    10    11    1
    23    10    79    1
    24    10    80    1
    25    11    12    1
    26    11    50    1
    27    11    51    1
    28    12    36    1
    29    12    13    1
    30    12    34    1
    31    13    37    1
    32    13    30    1
    33    13    14    1
    34    14    15    1
    35    14    52    1
    36    14    53    1
    37    15    38    1
    38    15    16    1
    39    15    33    1
    40    16    17    1
    41    16    54    1
    42    16    55    1
    43    17    18    1
    44    17    56    1
    45    17    57    1
    46    18    19    1
    47    18    58    1
    48    18    59    1
    49    19    20    1
    50    19    60    1
    51    19    61    1
    52    20    21    1
    53    20    62    1
    54    20    63    1
    55    21    22    1
    56    21    64    1
    57    21    65    1
    58    22    23    1
    59    23    24    1
    60    23    66    1
    61    23    67    1
    62    24    25    2
    63    24    26   am
    64    26    27    1
    65    26    32    1
    66    27    39    1
    67    27    28    1
    68    27    31    1
    69    28    29    2
    70    28    30   am
    71    30    68    1
    72    31    69    1
    73    31    70    1
    74    31    71    1
    75    32    72    1
    76    32    73    1
    77    32    74    1
    78    33    75    1
    79    33    76    1
    80    33    77    1
    81    34    78    1
