@<TRIPOS>MOLECULE
BACE_5.smi:1
 79 80 0 0 0
SMALL
GASTEIGER
****
Structure written by MMmdl.
@<TRIPOS>ATOM
      1 C          -3.9969   -0.0354   -1.3533 C.3     1  UNL1       -0.0649
      2 C          -4.3968    1.2969   -0.7033 C.3     1  UNL1       -0.0505
      3 C          -3.7512    2.5244   -1.3699 C.3     1  UNL1       -0.0112
      4 C          -2.2634    2.6097   -1.2266 C.ar    1  UNL1        0.0364
      5 C          -1.3945    2.0548   -0.3281 C.ar    1  UNL1       -0.0168
      6 C          -0.1121    2.5297   -0.7318 C.ar    1  UNL1        0.0768
      7 N          -0.1794    3.3276   -1.7867 N.ar    1  UNL1       -0.1774
      8 N          -1.4935    3.3723   -2.0749 N.ar    1  UNL1       -0.2813
      9 C           1.2253    2.2296   -0.1128 C.3     1  UNL1        0.0403
     10 N           1.4366    0.7998    0.0973 N.3     1  UNL1       -0.3080
     11 C           1.7157    0.0458   -1.1260 C.3     1  UNL1        0.0240
     12 C           1.9724   -1.4511   -0.8421 C.3     1  UNL1        0.0859
     13 C           3.4028   -1.7769   -0.3318 C.3     1  UNL1        0.0505
     14 C           3.7258   -3.2832   -0.1083 C.3     1  UNL1       -0.0295
     15 C           2.8053   -4.1549    0.7915 C.3     1  UNL1       -0.0421
     16 C           2.4488   -3.4891    2.1341 C.3     1  UNL1       -0.0504
     17 C           1.7844   -4.4177    3.1663 C.3     1  UNL1       -0.0528
     18 C           1.5591   -3.7245    4.5194 C.3     1  UNL1       -0.0530
     19 C           0.4124   -2.6950    4.4991 C.3     1  UNL1       -0.0510
     20 C           0.3372   -1.8151    5.7584 C.3     1  UNL1       -0.0294
     21 C           1.2853   -0.6050    5.7283 C.3     1  UNL1        0.0483
     22 O           2.6362   -1.0324    5.8473 O.3     1  UNL1       -0.3706
     23 C           3.5977    0.0163    5.8893 C.3     1  UNL1        0.1238
     24 C           3.8057    0.6433    4.4975 C.2     1  UNL1        0.2417
     25 O           3.2748    1.7339    4.2835 O.2     1  UNL1       -0.2731
     26 N           4.5664    0.0015    3.5707 N.am    1  UNL1       -0.2914
     27 C           4.9028    0.6480    2.2795 C.3     1  UNL1        0.0991
     28 C           4.8407   -0.2406    1.0223 C.2     1  UNL1        0.2336
     29 O           5.7729   -0.2377    0.2181 O.2     1  UNL1       -0.2738
     30 N           3.7335   -0.9836    0.8560 N.am    1  UNL1       -0.3084
     31 C           6.1763    1.5046    2.4220 C.3     1  UNL1       -0.0379
     32 C           5.2344   -1.2699    3.8852 C.3     1  UNL1        0.0040
     33 C           1.5743   -4.7048    0.0444 C.3     1  UNL1       -0.0624
     34 O           1.7904   -2.1229   -2.0724 O.3     1  UNL1       -0.3887
     35 H          -1.8473    3.9174   -2.8482 H       1  UNL1        0.1885
     36 H           1.2169   -1.8047   -0.1432 H       1  UNL1        0.0624
     37 H           4.0728   -1.4552   -1.1315 H       1  UNL1        0.0524
     38 H           3.4051   -5.0335    1.0334 H       1  UNL1        0.0299
     39 H           4.1150    1.3669    2.0475 H       1  UNL1        0.0594
     40 H          -4.5036   -0.8699   -0.8683 H       1  UNL1        0.0230
     41 H          -2.9243   -0.2141   -1.2786 H       1  UNL1        0.0230
     42 H          -4.2656   -0.0533   -2.4097 H       1  UNL1        0.0230
     43 H          -5.4810    1.3968   -0.7614 H       1  UNL1        0.0266
     44 H          -4.1530    1.2783    0.3596 H       1  UNL1        0.0266
     45 H          -4.0167    2.5395   -2.4275 H       1  UNL1        0.0328
     46 H          -4.1912    3.4250   -0.9414 H       1  UNL1        0.0328
     47 H          -1.6344    1.3983    0.4950 H       1  UNL1        0.0654
     48 H           1.2816    2.7369    0.8505 H       1  UNL1        0.0489
     49 H           2.0364    2.6449   -0.7125 H       1  UNL1        0.0489
     50 H           0.8630    0.1426   -1.7997 H       1  UNL1        0.0450
     51 H           2.5707    0.4740   -1.6509 H       1  UNL1        0.0450
     52 H           3.8090   -3.7668   -1.0821 H       1  UNL1        0.0286
     53 H           4.7352   -3.3387    0.3026 H       1  UNL1        0.0286
     54 H           3.3653   -3.0988    2.5737 H       1  UNL1        0.0268
     55 H           1.8068   -2.6299    1.9502 H       1  UNL1        0.0268
     56 H           0.8344   -4.7982    2.7909 H       1  UNL1        0.0265
     57 H           2.4244   -5.2871    3.3207 H       1  UNL1        0.0265
     58 H           1.3346   -4.4788    5.2743 H       1  UNL1        0.0265
     59 H           2.4936   -3.2637    4.8337 H       1  UNL1        0.0265
     60 H           0.4775   -2.0485    3.6250 H       1  UNL1        0.0266
     61 H          -0.5271   -3.2382    4.3921 H       1  UNL1        0.0266
     62 H          -0.6807   -1.4329    5.8400 H       1  UNL1        0.0287
     63 H           0.5044   -2.4123    6.6554 H       1  UNL1        0.0287
     64 H           1.1294   -0.0349    4.8117 H       1  UNL1        0.0560
     65 H           1.0460    0.0568    6.5618 H       1  UNL1        0.0560
     66 H           3.2884    0.7828    6.6019 H       1  UNL1        0.0657
     67 H           4.5380   -0.3769    6.2743 H       1  UNL1        0.0657
     68 H           3.0296   -0.9444    1.5792 H       1  UNL1        0.1491
     69 H           6.4023    2.0426    1.5006 H       1  UNL1        0.0252
     70 H           7.0414    0.8884    2.6689 H       1  UNL1        0.0252
     71 H           6.0640    2.2500    3.2098 H       1  UNL1        0.0252
     72 H           6.0045   -1.1136    4.6412 H       1  UNL1        0.0429
     73 H           5.7334   -1.7204    3.0282 H       1  UNL1        0.0429
     74 H           4.5287   -2.0077    4.2658 H       1  UNL1        0.0429
     75 H           0.8003   -3.9540   -0.0987 H       1  UNL1        0.0232
     76 H           1.1200   -5.5302    0.5922 H       1  UNL1        0.0232
     77 H           1.8479   -5.0926   -0.9371 H       1  UNL1        0.0232
     78 H           2.4276   -1.7966   -2.6891 H       1  UNL1        0.2099
     79 H           2.1846    0.6608    0.7687 H       1  UNL1        0.1224
@<TRIPOS>BOND
     1     1     2    1
     2     1    40    1
     3     1    41    1
     4     1    42    1
     5     2     3    1
     6     2    43    1
     7     2    44    1
     8     3    45    1
     9     3    46    1
    10     3     4    1
    11     4     8   ar
    12     4     5   ar
    13     5     6   ar
    14     5    47    1
    15     6     9    1
    16     6     7   ar
    17     7     8   ar
    18     8    35    1
    19     9    10    1
    20     9    48    1
    21     9    49    1
    22    10    11    1
    23    10    79    1
    24    11    12    1
    25    11    50    1
    26    11    51    1
    27    12    36    1
    28    12    13    1
    29    12    34    1
    30    13    37    1
    31    13    30    1
    32    13    14    1
    33    14    15    1
    34    14    52    1
    35    14    53    1
    36    15    38    1
    37    15    16    1
    38    15    33    1
    39    16    17    1
    40    16    54    1
    41    16    55    1
    42    17    18    1
    43    17    56    1
    44    17    57    1
    45    18    19    1
    46    18    58    1
    47    18    59    1
    48    19    20    1
    49    19    60    1
    50    19    61    1
    51    20    21    1
    52    20    62    1
    53    20    63    1
    54    21    22    1
    55    21    64    1
    56    21    65    1
    57    22    23    1
    58    23    24    1
    59    23    66    1
    60    23    67    1
    61    24    25    2
    62    24    26   am
    63    26    27    1
    64    26    32    1
    65    27    39    1
    66    27    28    1
    67    27    31    1
    68    28    29    2
    69    28    30   am
    70    30    68    1
    71    31    69    1
    72    31    70    1
    73    31    71    1
    74    32    72    1
    75    32    73    1
    76    32    74    1
    77    33    75    1
    78    33    76    1
    79    33    77    1
    80    34    78    1
