@<TRIPOS>MOLECULE
BACE_7.smi:1
 99 103 0 0 0
SMALL
GASTEIGER
****
Structure written by MMmdl.
@<TRIPOS>ATOM
      1 C           0.5761    3.7524    0.0615 C.3     1  UNL1       -0.0624
      2 C          -0.0603    3.2801    1.3803 C.3     1  UNL1       -0.0421
      3 C           0.0698    4.3606    2.4828 C.3     1  UNL1       -0.0504
      4 C          -1.0858    5.3831    2.4716 C.3     1  UNL1       -0.0528
      5 C          -2.3633    4.8352    3.1343 C.3     1  UNL1       -0.0516
      6 C          -3.6281    5.6605    2.8414 C.3     1  UNL1       -0.0371
      7 C          -4.9230    5.0660    3.4476 C.3     1  UNL1        0.0156
      8 N          -5.2522    3.7218    2.9314 N.am    1  UNL1       -0.2907
      9 C          -5.6580    3.5803    1.6421 C.2     1  UNL1        0.2471
     10 O          -6.1167    4.5029    0.9681 O.2     1  UNL1       -0.2700
     11 C          -5.3704    2.2712    0.9685 C.ar    1  UNL1        0.0384
     12 C          -6.4015    1.4895    0.4105 C.ar    1  UNL1       -0.0373
     13 C          -6.0964    0.2738   -0.2445 C.ar    1  UNL1        0.0383
     14 C          -4.7492   -0.1468   -0.3493 C.ar    1  UNL1       -0.0373
     15 C          -3.7094    0.6357    0.1979 C.ar    1  UNL1        0.0381
     16 C          -4.0359    1.8474    0.8419 C.ar    1  UNL1       -0.0375
     17 C          -2.2696    0.2357    0.0385 C.2     1  UNL1        0.2444
     18 O          -1.8849   -0.4047   -0.9397 O.2     1  UNL1       -0.2702
     19 N          -1.4616    0.6404    1.0325 N.am    1  UNL1       -0.3058
     20 C          -0.0025    0.6934    0.9988 C.3     1  UNL1        0.0545
     21 C           0.4973    1.9054    1.8320 C.3     1  UNL1       -0.0293
     22 C           0.6053   -0.6749    1.4007 C.3     1  UNL1        0.1130
     23 C           2.0646   -0.8252    0.9346 C.3     1  UNL1       -0.0050
     24 N           2.5526   -2.2066    1.1340 N.4     1  UNL1        0.2321
     25 C           3.9317   -2.4553    0.6648 C.3     1  UNL1       -0.0076
     26 C           4.0033   -2.5377   -0.8493 C.ar    1  UNL1       -0.0027
     27 C           3.7009   -3.7496   -1.5040 C.ar    1  UNL1       -0.0535
     28 C           3.7510   -3.8245   -2.9087 C.ar    1  UNL1       -0.0611
     29 C           4.1008   -2.6886   -3.6634 C.ar    1  UNL1       -0.0583
     30 C           4.4091   -1.4710   -3.0178 C.ar    1  UNL1       -0.0444
     31 C           4.3634   -1.4044   -1.6085 C.ar    1  UNL1       -0.0501
     32 C           4.7775   -0.2335   -3.8267 C.3     1  UNL1       -0.0215
     33 C           3.5947    0.2535   -4.6783 C.3     1  UNL1       -0.0586
     34 C           6.0364   -0.4612   -4.6789 C.3     1  UNL1       -0.0586
     35 O           0.5681   -0.8358    2.8064 O.3     1  UNL1       -0.3847
     36 C          -7.1695   -0.5327   -0.8192 C.ar    1  UNL1        0.2271
     37 N          -8.4860   -0.3279   -0.7568 N.ar    1  UNL1       -0.2175
     38 C          -9.0539   -1.3767   -1.4646 C.ar    1  UNL1        0.0663
     39 C          -8.0405   -2.1738   -1.9264 C.ar    1  UNL1        0.1125
     40 O          -6.8416   -1.6516   -1.5241 O.2     1  UNL1       -0.4436
     41 C          -5.3266    2.6116    3.9150 C.3     1  UNL1        0.0487
     42 C          -6.5896    2.7475    4.7874 C.3     1  UNL1       -0.0422
     43 C          -4.0431    2.3663    4.7122 C.ar    1  UNL1       -0.0273
     44 C          -3.7844    3.0309    5.9339 C.ar    1  UNL1       -0.0568
     45 C          -2.5889    2.7911    6.6386 C.ar    1  UNL1       -0.0614
     46 C          -1.6439    1.8776    6.1360 C.ar    1  UNL1       -0.0617
     47 C          -1.8995    1.1984    4.9311 C.ar    1  UNL1       -0.0614
     48 C          -3.0932    1.4405    4.2256 C.ar    1  UNL1       -0.0568
     49 H          -1.1220    3.1601    1.1833 H       1  UNL1        0.0299
     50 H           0.2793    0.8746   -0.0394 H       1  UNL1        0.0526
     51 H           0.0197   -1.4770    0.9486 H       1  UNL1        0.0666
     52 H          -5.4894    1.6703    3.3906 H       1  UNL1        0.0548
     53 H           1.6568    3.8600    0.1579 H       1  UNL1        0.0232
     54 H           0.1744    4.7181   -0.2463 H       1  UNL1        0.0232
     55 H           0.3825    3.0528   -0.7513 H       1  UNL1        0.0232
     56 H           0.1077    3.9042    3.4727 H       1  UNL1        0.0268
     57 H           1.0218    4.8807    2.3697 H       1  UNL1        0.0268
     58 H          -0.7785    6.2852    3.0015 H       1  UNL1        0.0265
     59 H          -1.2922    5.6916    1.4464 H       1  UNL1        0.0265
     60 H          -2.5265    3.8162    2.7982 H       1  UNL1        0.0266
     61 H          -2.2078    4.7720    4.2115 H       1  UNL1        0.0266
     62 H          -3.4891    6.6701    3.2293 H       1  UNL1        0.0280
     63 H          -3.7457    5.7711    1.7628 H       1  UNL1        0.0280
     64 H          -4.8365    5.0625    4.5315 H       1  UNL1        0.0465
     65 H          -5.7568    5.7395    3.2426 H       1  UNL1        0.0465
     66 H          -7.4262    1.8238    0.4888 H       1  UNL1        0.0633
     67 H          -4.5083   -1.0694   -0.8579 H       1  UNL1        0.0633
     68 H          -3.2562    2.4786    1.2345 H       1  UNL1        0.0633
     69 H          -1.9003    1.1074    1.8131 H       1  UNL1        0.1494
     70 H           1.5868    1.9430    1.8295 H       1  UNL1        0.0286
     71 H           0.2103    1.7420    2.8707 H       1  UNL1        0.0286
     72 H           2.1252   -0.5829   -0.1265 H       1  UNL1        0.0840
     73 H           2.7179   -0.1271    1.4595 H       1  UNL1        0.0840
     74 H           2.5148   -2.4024    2.1243 H       1  UNL1        0.2018
     75 H           4.6047   -1.6840    1.0421 H       1  UNL1        0.0866
     76 H           4.2741   -3.4013    1.0852 H       1  UNL1        0.0866
     77 H           3.4267   -4.6242   -0.9322 H       1  UNL1        0.0622
     78 H           3.5179   -4.7530   -3.4087 H       1  UNL1        0.0618
     79 H           4.1294   -2.7572   -4.7410 H       1  UNL1        0.0620
     80 H           4.5944   -0.4768   -1.1051 H       1  UNL1        0.0625
     81 H           5.0123    0.5644   -3.1209 H       1  UNL1        0.0343
     82 H           2.7251    0.4664   -4.0553 H       1  UNL1        0.0235
     83 H           3.2997   -0.4898   -5.4193 H       1  UNL1        0.0235
     84 H           3.8477    1.1693   -5.2132 H       1  UNL1        0.0235
     85 H           6.8809   -0.7610   -4.0575 H       1  UNL1        0.0235
     86 H           6.3230    0.4505   -5.2036 H       1  UNL1        0.0235
     87 H           5.8826   -1.2367   -5.4295 H       1  UNL1        0.0235
     88 H           1.0107   -0.1026    3.2068 H       1  UNL1        0.2101
     89 H         -10.1232   -1.4722   -1.5833 H       1  UNL1        0.0862
     90 H          -8.0053   -3.0807   -2.5119 H       1  UNL1        0.1046
     91 H          -6.7028    1.8863    5.4466 H       1  UNL1        0.0251
     92 H          -7.4853    2.8032    4.1681 H       1  UNL1        0.0251
     93 H          -6.5709    3.6418    5.4096 H       1  UNL1        0.0251
     94 H          -4.4936    3.7345    6.3420 H       1  UNL1        0.0621
     95 H          -2.3977    3.3083    7.5673 H       1  UNL1        0.0618
     96 H          -0.7284    1.6930    6.6783 H       1  UNL1        0.0618
     97 H          -1.1817    0.4884    4.5491 H       1  UNL1        0.0618
     98 H          -3.2770    0.9053    3.3069 H       1  UNL1        0.0621
     99 H           1.9315   -2.8452    0.6579 H       1  UNL1        0.2018
@<TRIPOS>BOND
     1     1     2    1
     2     1    53    1
     3     1    54    1
     4     1    55    1
     5     2    49    1
     6     2    21    1
     7     2     3    1
     8     3     4    1
     9     3    56    1
    10     3    57    1
    11     4     5    1
    12     4    58    1
    13     4    59    1
    14     5     6    1
    15     5    60    1
    16     5    61    1
    17     6     7    1
    18     6    62    1
    19     6    63    1
    20     7     8    1
    21     7    64    1
    22     7    65    1
    23     8     9   am
    24     8    41    1
    25     9    10    2
    26     9    11    1
    27    11    16   ar
    28    11    12   ar
    29    12    13   ar
    30    12    66    1
    31    13    14   ar
    32    13    36    1
    33    14    15   ar
    34    14    67    1
    35    15    16   ar
    36    15    17    1
    37    16    68    1
    38    17    18    2
    39    17    19   am
    40    19    20    1
    41    19    69    1
    42    20    50    1
    43    20    21    1
    44    20    22    1
    45    21    70    1
    46    21    71    1
    47    22    51    1
    48    22    23    1
    49    22    35    1
    50    23    24    1
    51    23    72    1
    52    23    73    1
    53    24    25    1
    54    24    74    1
    55    24    99    1
    56    25    26    1
    57    25    75    1
    58    25    76    1
    59    26    31   ar
    60    26    27   ar
    61    27    28   ar
    62    27    77    1
    63    28    29   ar
    64    28    78    1
    65    29    30   ar
    66    29    79    1
    67    30    31   ar
    68    30    32    1
    69    31    80    1
    70    32    33    1
    71    32    34    1
    72    32    81    1
    73    33    82    1
    74    33    83    1
    75    33    84    1
    76    34    85    1
    77    34    86    1
    78    34    87    1
    79    35    88    1
    80    36    40   ar
    81    36    37   ar
    82    37    38   ar
    83    38    39   ar
    84    38    89    1
    85    39    40   ar
    86    39    90    1
    87    41    52    1
    88    41    42    1
    89    41    43    1
    90    42    91    1
    91    42    92    1
    92    42    93    1
    93    43    48   ar
    94    43    44   ar
    95    44    45   ar
    96    44    94    1
    97    45    46   ar
    98    45    95    1
    99    46    47   ar
   100    46    96    1
   101    47    48   ar
   102    47    97    1
   103    48    98    1
