@<TRIPOS>MOLECULE
BACE_4.smi:1
 90 92 0 0 0
SMALL
GASTEIGER
****
Structure written by MMmdl.
@<TRIPOS>ATOM
      1 C          -2.5945    3.6432    2.2114 C.3     1  UNL1       -0.0624
      2 C          -1.0645    3.6321    2.0225 C.3     1  UNL1       -0.0421
      3 C          -0.5658    4.5100    0.8490 C.3     1  UNL1       -0.0504
      4 C          -1.1433    5.9401    0.8138 C.3     1  UNL1       -0.0528
      5 C          -2.2624    6.0864   -0.2333 C.3     1  UNL1       -0.0530
      6 C          -3.1420    7.3365   -0.0626 C.3     1  UNL1       -0.0510
      7 C          -4.2440    7.2120    1.0098 C.3     1  UNL1       -0.0294
      8 C          -5.4695    6.3802    0.5838 C.3     1  UNL1        0.0483
      9 O          -5.1640    4.9951    0.5782 O.3     1  UNL1       -0.3706
     10 C          -6.2564    4.1765    0.1869 C.3     1  UNL1        0.1238
     11 C          -5.8202    2.7060    0.2746 C.2     1  UNL1        0.2417
     12 O          -6.2572    2.0380    1.2122 O.2     1  UNL1       -0.2731
     13 N          -4.9453    2.2085   -0.6384 N.am    1  UNL1       -0.2914
     14 C          -4.3703    0.8500   -0.5001 C.3     1  UNL1        0.0991
     15 C          -2.8329    0.8423   -0.5694 C.2     1  UNL1        0.2336
     16 O          -2.2465    0.6125   -1.6275 O.2     1  UNL1       -0.2738
     17 N          -2.1973    1.1165    0.5811 N.am    1  UNL1       -0.3083
     18 C          -0.7596    1.3043    0.7603 C.3     1  UNL1        0.0543
     19 C          -0.4621    2.2010    1.9979 C.3     1  UNL1       -0.0293
     20 C          -0.0364   -0.0694    0.7792 C.3     1  UNL1        0.1130
     21 C           1.4844    0.0549    0.5767 C.3     1  UNL1       -0.0044
     22 N           2.1016   -1.2683    0.3468 N.4     1  UNL1        0.2365
     23 C           3.5522   -1.2404    0.0611 C.3     1  UNL1        0.0145
     24 C           3.8818   -1.0214   -1.3978 C.3     1  UNL1        0.0032
     25 C           3.9973   -2.4048   -0.7917 C.3     1  UNL1        0.0032
     26 C           4.4022   -0.7201    1.1827 C.ar    1  UNL1        0.0035
     27 C           4.8474    0.6169    1.1815 C.ar    1  UNL1       -0.0529
     28 C           5.6349    1.1011    2.2399 C.ar    1  UNL1       -0.0610
     29 C           5.9811    0.2513    3.3061 C.ar    1  UNL1       -0.0580
     30 C           5.5461   -1.0947    3.3346 C.ar    1  UNL1       -0.0415
     31 C           4.7549   -1.5651    2.2563 C.ar    1  UNL1       -0.0493
     32 C           5.9423   -1.9938    4.5220 C.3     1  UNL1       -0.0127
     33 C           5.3666   -3.4241    4.4151 C.3     1  UNL1       -0.0560
     34 C           5.4203   -1.3791    5.8377 C.3     1  UNL1       -0.0560
     35 C           7.4789   -2.1119    4.5914 C.3     1  UNL1       -0.0560
     36 O          -0.2645   -0.7235    2.0133 O.3     1  UNL1       -0.3847
     37 C          -5.0656   -0.1325   -1.4602 C.3     1  UNL1       -0.0379
     38 C          -4.5805    2.9756   -1.8386 C.3     1  UNL1        0.0040
     39 H          -0.6681    4.0917    2.9290 H       1  UNL1        0.0299
     40 H          -4.5844    0.4584    0.4961 H       1  UNL1        0.0594
     41 H          -0.4009    1.8325   -0.1236 H       1  UNL1        0.0526
     42 H          -0.4343   -0.6997   -0.0175 H       1  UNL1        0.0666
     43 H          -3.1177    3.4187    1.2854 H       1  UNL1        0.0232
     44 H          -2.9498    4.6158    2.5490 H       1  UNL1        0.0232
     45 H          -2.9082    2.9159    2.9605 H       1  UNL1        0.0232
     46 H           0.5205    4.5781    0.9185 H       1  UNL1        0.0268
     47 H          -0.7634    4.0245   -0.1063 H       1  UNL1        0.0268
     48 H          -1.4868    6.2362    1.8048 H       1  UNL1        0.0265
     49 H          -0.3489    6.6443    0.5637 H       1  UNL1        0.0265
     50 H          -1.8013    6.1112   -1.2212 H       1  UNL1        0.0265
     51 H          -2.8850    5.1984   -0.2322 H       1  UNL1        0.0265
     52 H          -2.5014    8.1875    0.1723 H       1  UNL1        0.0266
     53 H          -3.6102    7.5779   -1.0175 H       1  UNL1        0.0266
     54 H          -3.8338    6.8317    1.9451 H       1  UNL1        0.0287
     55 H          -4.5968    8.2193    1.2330 H       1  UNL1        0.0287
     56 H          -6.2842    6.5574    1.2875 H       1  UNL1        0.0560
     57 H          -5.8199    6.6968   -0.3997 H       1  UNL1        0.0560
     58 H          -7.0974    4.3401    0.8632 H       1  UNL1        0.0657
     59 H          -6.6044    4.4299   -0.8145 H       1  UNL1        0.0657
     60 H          -2.7719    1.2859    1.3944 H       1  UNL1        0.1491
     61 H           0.6183    2.3034    2.0984 H       1  UNL1        0.0286
     62 H          -0.7837    1.6853    2.9034 H       1  UNL1        0.0286
     63 H           1.6913    0.6821   -0.2913 H       1  UNL1        0.0840
     64 H           1.9483    0.5363    1.4378 H       1  UNL1        0.0840
     65 H           1.9461   -1.8353    1.1683 H       1  UNL1        0.2023
     66 H           3.0639   -0.8591   -2.0974 H       1  UNL1        0.0329
     67 H           4.8114   -0.5105   -1.6418 H       1  UNL1        0.0329
     68 H           5.0032   -2.7928   -0.6424 H       1  UNL1        0.0329
     69 H           3.2558   -3.1393   -1.1008 H       1  UNL1        0.0329
     70 H           4.5825    1.2764    0.3680 H       1  UNL1        0.0622
     71 H           5.9738    2.1265    2.2353 H       1  UNL1        0.0618
     72 H           6.5876    0.6473    4.1070 H       1  UNL1        0.0620
     73 H           4.3979   -2.5825    2.2279 H       1  UNL1        0.0625
     74 H           5.6609   -4.0327    5.2711 H       1  UNL1        0.0238
     75 H           5.7259   -3.9385    3.5230 H       1  UNL1        0.0238
     76 H           4.2762   -3.4195    4.3891 H       1  UNL1        0.0238
     77 H           4.3359   -1.2652    5.8175 H       1  UNL1        0.0238
     78 H           5.8500   -0.3964    6.0330 H       1  UNL1        0.0238
     79 H           5.6667   -2.0081    6.6939 H       1  UNL1        0.0238
     80 H           7.7903   -2.7563    5.4145 H       1  UNL1        0.0238
     81 H           7.9592   -1.1454    4.7448 H       1  UNL1        0.0238
     82 H           7.8835   -2.5374    3.6722 H       1  UNL1        0.0238
     83 H          -1.1978   -0.8091    2.1394 H       1  UNL1        0.2101
     84 H          -4.6719   -1.1426   -1.3429 H       1  UNL1        0.0252
     85 H          -4.9314    0.1547   -2.5033 H       1  UNL1        0.0252
     86 H          -6.1374   -0.1754   -1.2643 H       1  UNL1        0.0252
     87 H          -4.0090    3.8648   -1.5823 H       1  UNL1        0.0429
     88 H          -5.4698    3.2847   -2.3885 H       1  UNL1        0.0429
     89 H          -3.9819    2.3979   -2.5419 H       1  UNL1        0.0429
     90 H           1.6341   -1.7027   -0.4357 H       1  UNL1        0.2023
@<TRIPOS>BOND
     1     1     2    1
     2     1    43    1
     3     1    44    1
     4     1    45    1
     5     2    39    1
     6     2    19    1
     7     2     3    1
     8     3     4    1
     9     3    46    1
    10     3    47    1
    11     4     5    1
    12     4    48    1
    13     4    49    1
    14     5     6    1
    15     5    50    1
    16     5    51    1
    17     6     7    1
    18     6    52    1
    19     6    53    1
    20     7     8    1
    21     7    54    1
    22     7    55    1
    23     8     9    1
    24     8    56    1
    25     8    57    1
    26     9    10    1
    27    10    11    1
    28    10    58    1
    29    10    59    1
    30    11    12    2
    31    11    13   am
    32    13    14    1
    33    13    38    1
    34    14    40    1
    35    14    15    1
    36    14    37    1
    37    15    16    2
    38    15    17   am
    39    17    18    1
    40    17    60    1
    41    18    41    1
    42    18    19    1
    43    18    20    1
    44    19    61    1
    45    19    62    1
    46    20    42    1
    47    20    21    1
    48    20    36    1
    49    21    22    1
    50    21    63    1
    51    21    64    1
    52    22    23    1
    53    22    65    1
    54    22    90    1
    55    23    25    1
    56    23    24    1
    57    23    26    1
    58    24    25    1
    59    24    66    1
    60    24    67    1
    61    25    68    1
    62    25    69    1
    63    26    31   ar
    64    26    27   ar
    65    27    28   ar
    66    27    70    1
    67    28    29   ar
    68    28    71    1
    69    29    30   ar
    70    29    72    1
    71    30    31   ar
    72    30    32    1
    73    31    73    1
    74    32    33    1
    75    32    34    1
    76    32    35    1
    77    33    74    1
    78    33    75    1
    79    33    76    1
    80    34    77    1
    81    34    78    1
    82    34    79    1
    83    35    80    1
    84    35    81    1
    85    35    82    1
    86    36    83    1
    87    37    84    1
    88    37    85    1
    89    37    86    1
    90    38    87    1
    91    38    88    1
    92    38    89    1
