@<TRIPOS>MOLECULE
BACE_7.smi:1
 99 103 0 0 0
SMALL
GASTEIGER
****
Structure written by MMmdl.
@<TRIPOS>ATOM
      1 C          -2.1682   -0.2178   -2.2923 C.3     1  UNL1       -0.0624
      2 C          -2.8510    0.3344   -1.0187 C.3     1  UNL1       -0.0421
      3 C          -4.1564    1.0904   -1.3877 C.3     1  UNL1       -0.0504
      4 C          -3.9617    2.2701   -2.3684 C.3     1  UNL1       -0.0528
      5 C          -5.2587    2.9295   -2.8619 C.3     1  UNL1       -0.0516
      6 C          -5.0913    3.7190   -4.1804 C.3     1  UNL1       -0.0371
      7 C          -4.3675    5.0880   -4.1055 C.3     1  UNL1        0.0156
      8 N          -2.9399    5.0222   -3.7098 N.am    1  UNL1       -0.2907
      9 C          -2.0449    4.4724   -4.5859 C.2     1  UNL1        0.2471
     10 O          -2.3352    4.1556   -5.7400 O.2     1  UNL1       -0.2700
     11 C          -0.6405    4.2088   -4.1139 C.ar    1  UNL1        0.0384
     12 C           0.4605    4.8276   -4.7412 C.ar    1  UNL1       -0.0373
     13 C           1.7714    4.6179   -4.2528 C.ar    1  UNL1        0.0383
     14 C           1.9785    3.7664   -3.1421 C.ar    1  UNL1       -0.0373
     15 C           0.8876    3.1105   -2.5339 C.ar    1  UNL1        0.0381
     16 C          -0.4103    3.3277   -3.0422 C.ar    1  UNL1       -0.0375
     17 C           1.0613    2.2920   -1.2871 C.2     1  UNL1        0.2444
     18 O           1.9011    2.5829   -0.4359 O.2     1  UNL1       -0.2702
     19 N           0.1823    1.2852   -1.1636 N.am    1  UNL1       -0.3058
     20 C          -0.4496    0.8669    0.0860 C.3     1  UNL1        0.0545
     21 C          -1.9690    1.1648   -0.0333 C.3     1  UNL1       -0.0293
     22 C          -0.0815   -0.5756    0.5196 C.3     1  UNL1        0.1130
     23 C           1.4342   -0.8565    0.4810 C.3     1  UNL1       -0.0050
     24 N           1.7335   -2.2685    0.8015 N.4     1  UNL1        0.2321
     25 C           3.1688   -2.6221    0.7826 C.3     1  UNL1       -0.0076
     26 C           3.7439   -2.5822   -0.6221 C.ar    1  UNL1       -0.0027
     27 C           4.4963   -1.4689   -1.0516 C.ar    1  UNL1       -0.0535
     28 C           5.0118   -1.4285   -2.3605 C.ar    1  UNL1       -0.0611
     29 C           4.7795   -2.5006   -3.2430 C.ar    1  UNL1       -0.0583
     30 C           4.0308   -3.6218   -2.8221 C.ar    1  UNL1       -0.0444
     31 C           3.5169   -3.6565   -1.5078 C.ar    1  UNL1       -0.0501
     32 C           3.7756   -4.7861   -3.7714 C.3     1  UNL1       -0.0215
     33 C           5.0845   -5.4795   -4.1805 C.3     1  UNL1       -0.0586
     34 C           2.9564   -4.3507   -4.9969 C.3     1  UNL1       -0.0586
     35 O          -0.5147   -0.7526    1.8545 O.3     1  UNL1       -0.3847
     36 C           2.9035    5.3079   -4.8641 C.ar    1  UNL1        0.2271
     37 N           4.2023    5.1768   -4.5904 N.ar    1  UNL1       -0.2175
     38 C           4.8461    6.0669   -5.4371 C.ar    1  UNL1        0.0663
     39 C           3.8933    6.7002   -6.1901 C.ar    1  UNL1        0.1125
     40 O           2.6584    6.2290   -5.8377 O.2     1  UNL1       -0.4436
     41 C          -2.4995    5.7193   -2.4620 C.3     1  UNL1        0.0487
     42 C          -3.6116    6.1368   -1.4770 C.3     1  UNL1       -0.0422
     43 C          -1.5882    6.9124   -2.7430 C.ar    1  UNL1       -0.0273
     44 C          -1.9400    7.8754   -3.7147 C.ar    1  UNL1       -0.0568
     45 C          -1.0784    8.9553   -3.9884 C.ar    1  UNL1       -0.0614
     46 C           0.1385    9.0804   -3.2913 C.ar    1  UNL1       -0.0617
     47 C           0.4906    8.1287   -2.3153 C.ar    1  UNL1       -0.0614
     48 C          -0.3723    7.0509   -2.0383 C.ar    1  UNL1       -0.0568
     49 H          -3.1587   -0.5493   -0.4579 H       1  UNL1        0.0299
     50 H          -0.0771    1.5279    0.8721 H       1  UNL1        0.0526
     51 H          -0.5962   -1.3093   -0.0970 H       1  UNL1        0.0666
     52 H          -1.9219    5.0041   -1.8812 H       1  UNL1        0.0548
     53 H          -1.7234    0.5652   -2.9038 H       1  UNL1        0.0232
     54 H          -2.8911   -0.7423   -2.9178 H       1  UNL1        0.0232
     55 H          -1.3817   -0.9346   -2.0691 H       1  UNL1        0.0232
     56 H          -4.8512    0.3781   -1.8345 H       1  UNL1        0.0268
     57 H          -4.6440    1.4482   -0.4801 H       1  UNL1        0.0268
     58 H          -3.3469    3.0324   -1.8986 H       1  UNL1        0.0265
     59 H          -3.4196    1.9250   -3.2467 H       1  UNL1        0.0265
     60 H          -5.9924    2.1438   -3.0458 H       1  UNL1        0.0266
     61 H          -5.6883    3.5612   -2.0841 H       1  UNL1        0.0266
     62 H          -4.6191    3.0805   -4.9272 H       1  UNL1        0.0280
     63 H          -6.0906    3.9105   -4.5728 H       1  UNL1        0.0280
     64 H          -4.4189    5.5546   -5.0909 H       1  UNL1        0.0465
     65 H          -4.9645    5.7547   -3.4913 H       1  UNL1        0.0465
     66 H           0.2887    5.4927   -5.5754 H       1  UNL1        0.0633
     67 H           2.9744    3.6285   -2.7456 H       1  UNL1        0.0633
     68 H          -1.2567    2.8566   -2.5716 H       1  UNL1        0.0633
     69 H          -0.3575    1.0785   -1.9918 H       1  UNL1        0.1494
     70 H          -2.0572    2.2219   -0.2823 H       1  UNL1        0.0286
     71 H          -2.4177    1.0911    0.9581 H       1  UNL1        0.0286
     72 H           1.8200   -0.6489   -0.5164 H       1  UNL1        0.0840
     73 H           1.9643   -0.1985    1.1713 H       1  UNL1        0.0840
     74 H           3.7259   -1.9570    1.4439 H       1  UNL1        0.0866
     75 H           3.2837   -3.6299    1.1830 H       1  UNL1        0.0866
     76 H           4.6745   -0.6401   -0.3819 H       1  UNL1        0.0622
     77 H           5.5850   -0.5737   -2.6886 H       1  UNL1        0.0618
     78 H           5.1802   -2.4577   -4.2452 H       1  UNL1        0.0620
     79 H           2.9411   -4.5086   -1.1760 H       1  UNL1        0.0625
     80 H           3.1782   -5.5252   -3.2354 H       1  UNL1        0.0343
     81 H           5.6304   -5.8312   -3.3045 H       1  UNL1        0.0235
     82 H           5.7404   -4.8078   -4.7349 H       1  UNL1        0.0235
     83 H           4.8878   -6.3448   -4.8144 H       1  UNL1        0.0235
     84 H           2.0053   -3.9105   -4.6958 H       1  UNL1        0.0235
     85 H           2.7346   -5.2022   -5.6411 H       1  UNL1        0.0235
     86 H           3.4894   -3.6134   -5.5979 H       1  UNL1        0.0235
     87 H          -1.4450   -0.5881    1.8943 H       1  UNL1        0.2101
     88 H           5.9203    6.1798   -5.4364 H       1  UNL1        0.0862
     89 H           3.9246    7.4553   -6.9616 H       1  UNL1        0.1046
     90 H          -3.1765    6.4700   -0.5343 H       1  UNL1        0.0251
     91 H          -4.2784    5.3080   -1.2418 H       1  UNL1        0.0251
     92 H          -4.2072    6.9685   -1.8548 H       1  UNL1        0.0251
     93 H          -2.8691    7.7847   -4.2581 H       1  UNL1        0.0621
     94 H          -1.3500    9.6862   -4.7358 H       1  UNL1        0.0618
     95 H           0.8010    9.9063   -3.5045 H       1  UNL1        0.0618
     96 H           1.4244    8.2233   -1.7811 H       1  UNL1        0.0618
     97 H          -0.0879    6.3214   -1.2939 H       1  UNL1        0.0621
     98 H           1.3742   -2.4540    1.7272 H       1  UNL1        0.2018
     99 H           1.2481   -2.8612    0.1438 H       1  UNL1        0.2018
@<TRIPOS>BOND
     1     1     2    1
     2     1    53    1
     3     1    54    1
     4     1    55    1
     5     2    49    1
     6     2    21    1
     7     2     3    1
     8     3     4    1
     9     3    56    1
    10     3    57    1
    11     4     5    1
    12     4    58    1
    13     4    59    1
    14     5     6    1
    15     5    60    1
    16     5    61    1
    17     6     7    1
    18     6    62    1
    19     6    63    1
    20     7     8    1
    21     7    64    1
    22     7    65    1
    23     8     9   am
    24     8    41    1
    25     9    10    2
    26     9    11    1
    27    11    16   ar
    28    11    12   ar
    29    12    13   ar
    30    12    66    1
    31    13    14   ar
    32    13    36    1
    33    14    15   ar
    34    14    67    1
    35    15    16   ar
    36    15    17    1
    37    16    68    1
    38    17    18    2
    39    17    19   am
    40    19    20    1
    41    19    69    1
    42    20    50    1
    43    20    21    1
    44    20    22    1
    45    21    70    1
    46    21    71    1
    47    22    51    1
    48    22    23    1
    49    22    35    1
    50    23    24    1
    51    23    72    1
    52    23    73    1
    53    24    25    1
    54    24    98    1
    55    24    99    1
    56    25    26    1
    57    25    74    1
    58    25    75    1
    59    26    31   ar
    60    26    27   ar
    61    27    28   ar
    62    27    76    1
    63    28    29   ar
    64    28    77    1
    65    29    30   ar
    66    29    78    1
    67    30    31   ar
    68    30    32    1
    69    31    79    1
    70    32    33    1
    71    32    34    1
    72    32    80    1
    73    33    81    1
    74    33    82    1
    75    33    83    1
    76    34    84    1
    77    34    85    1
    78    34    86    1
    79    35    87    1
    80    36    40   ar
    81    36    37   ar
    82    37    38   ar
    83    38    39   ar
    84    38    88    1
    85    39    40   ar
    86    39    89    1
    87    41    52    1
    88    41    42    1
    89    41    43    1
    90    42    90    1
    91    42    91    1
    92    42    92    1
    93    43    48   ar
    94    43    44   ar
    95    44    45   ar
    96    44    93    1
    97    45    46   ar
    98    45    94    1
    99    46    47   ar
   100    46    95    1
   101    47    48   ar
   102    47    96    1
   103    48    97    1
