@<TRIPOS>MOLECULE
BACE_4.smi:1
 89 91 0 0 0
SMALL
GASTEIGER
****
Structure written by MMmdl.
@<TRIPOS>ATOM
      1 C          -2.5689    3.6375    2.1848 C.3     1  UNL1       -0.0624
      2 C          -1.0461    3.6414    1.9459 C.3     1  UNL1       -0.0421
      3 C          -0.5977    4.4755    0.7214 C.3     1  UNL1       -0.0504
      4 C          -1.2063    5.8905    0.6379 C.3     1  UNL1       -0.0528
      5 C          -2.3607    5.9638   -0.3781 C.3     1  UNL1       -0.0530
      6 C          -3.2517    7.2105   -0.2487 C.3     1  UNL1       -0.0510
      7 C          -4.3076    7.1391    0.8735 C.3     1  UNL1       -0.0294
      8 C          -5.5390    6.2721    0.5471 C.3     1  UNL1        0.0483
      9 O          -5.2156    4.8926    0.6074 O.3     1  UNL1       -0.3706
     10 C          -6.3151    4.0408    0.3207 C.3     1  UNL1        0.1238
     11 C          -5.8525    2.5824    0.4613 C.2     1  UNL1        0.2417
     12 O          -6.2303    1.9590    1.4538 O.2     1  UNL1       -0.2731
     13 N          -5.0189    2.0487   -0.4696 N.am    1  UNL1       -0.2914
     14 C          -4.4147    0.7073   -0.2899 C.3     1  UNL1        0.0991
     15 C          -2.8824    0.7213   -0.4324 C.2     1  UNL1        0.2336
     16 O          -2.3453    0.4850   -1.5149 O.2     1  UNL1       -0.2738
     17 N          -2.1968    1.0256    0.6812 N.am    1  UNL1       -0.3084
     18 C          -0.7584    1.2629    0.7779 C.3     1  UNL1        0.0505
     19 C          -0.4227    2.2197    1.9596 C.3     1  UNL1       -0.0295
     20 C           0.0146   -0.0823    0.8133 C.3     1  UNL1        0.0859
     21 C           1.5148    0.1112    0.5281 C.3     1  UNL1        0.0245
     22 N           2.1558   -1.1434    0.1365 N.3     1  UNL1       -0.3042
     23 C           3.5424   -1.0003   -0.3055 C.3     1  UNL1        0.0447
     24 C           4.0031   -1.9084   -1.4224 C.3     1  UNL1       -0.0285
     25 C           3.7996   -0.4331   -1.6843 C.3     1  UNL1       -0.0285
     26 C           4.4784   -0.7045    0.8306 C.ar    1  UNL1       -0.0271
     27 C           4.9850   -1.7462    1.6323 C.ar    1  UNL1       -0.0568
     28 C           5.8476   -1.4584    2.7046 C.ar    1  UNL1       -0.0612
     29 C           6.2043   -0.1269    2.9900 C.ar    1  UNL1       -0.0580
     30 C           5.7034    0.9394    2.2030 C.ar    1  UNL1       -0.0417
     31 C           4.8438    0.6262    1.1238 C.ar    1  UNL1       -0.0531
     32 C           6.0536    2.4124    2.4859 C.3     1  UNL1       -0.0127
     33 C           6.7464    3.0272    1.2517 C.3     1  UNL1       -0.0560
     34 C           7.0043    2.5854    3.6917 C.3     1  UNL1       -0.0560
     35 C           4.7621    3.2000    2.7918 C.3     1  UNL1       -0.0560
     36 O          -0.1177   -0.6747    2.0917 O.3     1  UNL1       -0.3887
     37 C          -5.1329   -0.3323   -1.1698 C.3     1  UNL1       -0.0379
     38 C          -4.7258    2.7594   -1.7233 C.3     1  UNL1        0.0040
     39 H          -0.6273    4.1440    2.8190 H       1  UNL1        0.0299
     40 H          -4.5771    0.3618    0.7325 H       1  UNL1        0.0594
     41 H          -0.4644    1.7640   -0.1445 H       1  UNL1        0.0524
     42 H          -0.4012   -0.7621    0.0679 H       1  UNL1        0.0624
     43 H          -3.1169    3.3647    1.2865 H       1  UNL1        0.0232
     44 H          -2.9292    4.6180    2.4933 H       1  UNL1        0.0232
     45 H          -2.8457    2.9374    2.9732 H       1  UNL1        0.0232
     46 H           0.4883    4.5680    0.7588 H       1  UNL1        0.0268
     47 H          -0.8091    3.9445   -0.2062 H       1  UNL1        0.0268
     48 H          -1.5246    6.2255    1.6248 H       1  UNL1        0.0265
     49 H          -0.4352    6.5968    0.3285 H       1  UNL1        0.0265
     50 H          -1.9315    5.9390   -1.3803 H       1  UNL1        0.0265
     51 H          -2.9705    5.0695   -0.3072 H       1  UNL1        0.0265
     52 H          -2.6152    8.0825   -0.0941 H       1  UNL1        0.0266
     53 H          -3.7618    7.3853   -1.1965 H       1  UNL1        0.0266
     54 H          -3.8553    6.8175    1.8117 H       1  UNL1        0.0287
     55 H          -4.6626    8.1546    1.0521 H       1  UNL1        0.0287
     56 H          -6.3261    6.4818    1.2728 H       1  UNL1        0.0560
     57 H          -5.9333    6.5283   -0.4375 H       1  UNL1        0.0560
     58 H          -7.1197    4.2302    1.0333 H       1  UNL1        0.0657
     59 H          -6.7216    4.2366   -0.6716 H       1  UNL1        0.0657
     60 H          -2.7311    1.1904    1.5221 H       1  UNL1        0.1491
     61 H           0.6597    2.3405    2.0072 H       1  UNL1        0.0286
     62 H          -0.6961    1.7413    2.9008 H       1  UNL1        0.0286
     63 H           1.6266    0.8286   -0.2857 H       1  UNL1        0.0450
     64 H           2.0159    0.5480    1.3925 H       1  UNL1        0.0450
     65 H           5.0287   -2.2716   -1.3964 H       1  UNL1        0.0287
     66 H           3.2793   -2.5877   -1.8684 H       1  UNL1        0.0287
     67 H           2.9429   -0.1596   -2.2974 H       1  UNL1        0.0287
     68 H           4.6902    0.1750   -1.8301 H       1  UNL1        0.0287
     69 H           4.7103   -2.7701    1.4255 H       1  UNL1        0.0621
     70 H           6.2338   -2.2615    3.3146 H       1  UNL1        0.0618
     71 H           6.8639    0.0464    3.8255 H       1  UNL1        0.0620
     72 H           4.4421    1.4174    0.5085 H       1  UNL1        0.0624
     73 H           7.0291    4.0650    1.4315 H       1  UNL1        0.0238
     74 H           6.1026    3.0208    0.3721 H       1  UNL1        0.0238
     75 H           7.6550    2.4804    0.9972 H       1  UNL1        0.0238
     76 H           7.9559    2.0768    3.5319 H       1  UNL1        0.0238
     77 H           6.5636    2.1998    4.6122 H       1  UNL1        0.0238
     78 H           7.2320    3.6377    3.8662 H       1  UNL1        0.0238
     79 H           4.9787    4.2453    3.0153 H       1  UNL1        0.0238
     80 H           4.2417    2.7820    3.6543 H       1  UNL1        0.0238
     81 H           4.0650    3.1915    1.9537 H       1  UNL1        0.0238
     82 H          -1.0342   -0.8404    2.2508 H       1  UNL1        0.2099
     83 H          -4.7122   -1.3278   -1.0237 H       1  UNL1        0.0252
     84 H          -5.0517   -0.0930   -2.2305 H       1  UNL1        0.0252
     85 H          -6.1935   -0.3861   -0.9228 H       1  UNL1        0.0252
     86 H          -4.1498    3.6640   -1.5415 H       1  UNL1        0.0429
     87 H          -5.6455    3.0345   -2.2400 H       1  UNL1        0.0429
     88 H          -4.1596    2.1526   -2.4285 H       1  UNL1        0.0429
     89 H           1.6084   -1.6178   -0.5742 H       1  UNL1        0.1229
@<TRIPOS>BOND
     1     1     2    1
     2     1    43    1
     3     1    44    1
     4     1    45    1
     5     2    39    1
     6     2    19    1
     7     2     3    1
     8     3     4    1
     9     3    46    1
    10     3    47    1
    11     4     5    1
    12     4    48    1
    13     4    49    1
    14     5     6    1
    15     5    50    1
    16     5    51    1
    17     6     7    1
    18     6    52    1
    19     6    53    1
    20     7     8    1
    21     7    54    1
    22     7    55    1
    23     8     9    1
    24     8    56    1
    25     8    57    1
    26     9    10    1
    27    10    11    1
    28    10    58    1
    29    10    59    1
    30    11    12    2
    31    11    13   am
    32    13    14    1
    33    13    38    1
    34    14    40    1
    35    14    15    1
    36    14    37    1
    37    15    16    2
    38    15    17   am
    39    17    18    1
    40    17    60    1
    41    18    41    1
    42    18    19    1
    43    18    20    1
    44    19    61    1
    45    19    62    1
    46    20    42    1
    47    20    21    1
    48    20    36    1
    49    21    22    1
    50    21    63    1
    51    21    64    1
    52    22    23    1
    53    22    89    1
    54    23    25    1
    55    23    24    1
    56    23    26    1
    57    24    25    1
    58    24    65    1
    59    24    66    1
    60    25    67    1
    61    25    68    1
    62    26    31   ar
    63    26    27   ar
    64    27    28   ar
    65    27    69    1
    66    28    29   ar
    67    28    70    1
    68    29    30   ar
    69    29    71    1
    70    30    31   ar
    71    30    32    1
    72    31    72    1
    73    32    33    1
    74    32    34    1
    75    32    35    1
    76    33    73    1
    77    33    74    1
    78    33    75    1
    79    34    76    1
    80    34    77    1
    81    34    78    1
    82    35    79    1
    83    35    80    1
    84    35    81    1
    85    36    82    1
    86    37    83    1
    87    37    84    1
    88    37    85    1
    89    38    86    1
    90    38    87    1
    91    38    88    1
