@<TRIPOS>MOLECULE
BACE_19.smi:1
 76 77 0 0 0
SMALL
GASTEIGER
****
Structure written by MMmdl.
@<TRIPOS>ATOM
      1 C           0.3741   -5.1903   -3.9628 C.3     1  UNL1       -0.0652
      2 C          -0.8793   -4.4982   -3.4147 C.3     1  UNL1       -0.0545
      3 C          -0.5390   -3.4311   -2.3675 C.3     1  UNL1       -0.0376
      4 C          -1.7794   -2.7188   -1.7998 C.3     1  UNL1        0.0116
      5 N          -1.3904   -1.7638   -0.7701 N.am    1  UNL1       -0.3151
      6 C          -0.9116   -0.5323   -1.0057 C.2     1  UNL1        0.2159
      7 O          -0.9240   -0.0016   -2.1170 O.2     1  UNL1       -0.2755
      8 C          -0.2517    0.1761    0.1874 C.3     1  UNL1        0.0351
      9 C          -0.7786    1.6147    0.3276 C.3     1  UNL1       -0.0540
     10 C           1.2937    0.1542    0.0602 C.3     1  UNL1       -0.0143
     11 C           1.9236   -1.2598   -0.0407 C.3     1  UNL1        0.0742
     12 C           3.4694   -1.2926   -0.2136 C.3     1  UNL1        0.0493
     13 C           3.9897   -0.3898   -1.3727 C.3     1  UNL1       -0.0295
     14 C           5.5094   -0.3843   -1.6952 C.3     1  UNL1       -0.0418
     15 C           6.3942   -0.2426   -0.4278 C.3     1  UNL1       -0.0464
     16 C           7.9256   -0.3355   -0.6266 C.3     1  UNL1       -0.0274
     17 C           8.4335   -1.7635   -0.7782 C.ar    1  UNL1       -0.0470
     18 C           9.2040   -2.1338   -1.9004 C.ar    1  UNL1       -0.0586
     19 C           9.5917   -3.4755   -2.0798 C.ar    1  UNL1       -0.0612
     20 C           9.1987   -4.4554   -1.1477 C.ar    1  UNL1       -0.0570
     21 C           8.4396   -4.0930   -0.0153 C.ar    1  UNL1       -0.0263
     22 C           8.0980   -2.7400    0.1836 C.ar    1  UNL1       -0.0538
     23 C           7.9682   -5.1599    0.9607 C.3     1  UNL1        0.0907
     24 S           6.1157   -5.2138    1.0934 S.O2    1  UNL1       -0.0263
     25 O           5.7463   -6.4936    1.7169 O.2     1  UNL1       -0.1740
     26 O           5.6467   -3.9620    1.7065 O.2     1  UNL1       -0.1740
     27 C           5.5650   -5.2481   -0.6816 C.3     1  UNL1        0.0769
     28 C           4.0392   -5.0721   -0.9080 C.3     1  UNL1        0.0520
     29 C           3.6102   -3.6225   -1.1997 C.2     1  UNL1        0.2177
     30 O           2.9581   -3.3771   -2.2142 O.2     1  UNL1       -0.2755
     31 N           3.9457   -2.6829   -0.2964 N.am    1  UNL1       -0.3097
     32 C           3.1249   -5.7146    0.1503 C.3     1  UNL1       -0.0526
     33 C           5.9057   -1.5225   -2.6513 C.3     1  UNL1       -0.0623
     34 O           1.6006   -1.9538    1.1511 O.3     1  UNL1       -0.3899
     35 H          -0.5337   -0.3559    1.0974 H       1  UNL1        0.0392
     36 H           1.4690   -1.7879   -0.8758 H       1  UNL1        0.0612
     37 H           3.8898   -0.8945    0.7103 H       1  UNL1        0.0524
     38 H           5.6760    0.5224   -2.2787 H       1  UNL1        0.0299
     39 H           3.8317   -5.6059   -1.8370 H       1  UNL1        0.0407
     40 H           0.1100   -5.9462   -4.7024 H       1  UNL1        0.0230
     41 H           0.9324   -5.6828   -3.1660 H       1  UNL1        0.0230
     42 H           1.0411   -4.4735   -4.4428 H       1  UNL1        0.0230
     43 H          -1.4294   -4.0416   -4.2382 H       1  UNL1        0.0263
     44 H          -1.5411   -5.2454   -2.9757 H       1  UNL1        0.0263
     45 H           0.0182   -3.8941   -1.5514 H       1  UNL1        0.0280
     46 H           0.1305   -2.6956   -2.8161 H       1  UNL1        0.0280
     47 H          -2.3380   -2.2204   -2.5936 H       1  UNL1        0.0462
     48 H          -2.4548   -3.4469   -1.3501 H       1  UNL1        0.0462
     49 H          -1.3502   -2.1100    0.1777 H       1  UNL1        0.1487
     50 H          -1.8664    1.6331    0.4052 H       1  UNL1        0.0237
     51 H          -0.4943    2.2330   -0.5248 H       1  UNL1        0.0237
     52 H          -0.3797    2.0886    1.2249 H       1  UNL1        0.0237
     53 H           1.5570    0.7364   -0.8224 H       1  UNL1        0.0298
     54 H           1.7339    0.6816    0.9076 H       1  UNL1        0.0298
     55 H           3.4266   -0.6053   -2.2815 H       1  UNL1        0.0286
     56 H           3.7372    0.6403   -1.1229 H       1  UNL1        0.0286
     57 H           6.1757    0.7356    0.0021 H       1  UNL1        0.0271
     58 H           6.0915   -0.9547    0.3361 H       1  UNL1        0.0271
     59 H           8.2304    0.2715   -1.4800 H       1  UNL1        0.0313
     60 H           8.4245    0.0916    0.2439 H       1  UNL1        0.0313
     61 H           9.4789   -1.3964   -2.6404 H       1  UNL1        0.0620
     62 H          10.1710   -3.7577   -2.9466 H       1  UNL1        0.0618
     63 H           9.4758   -5.4865   -1.3119 H       1  UNL1        0.0621
     64 H           7.5356   -2.4558    1.0591 H       1  UNL1        0.0623
     65 H           8.3120   -6.1451    0.6444 H       1  UNL1        0.0549
     66 H           8.3792   -4.9698    1.9522 H       1  UNL1        0.0549
     67 H           6.1176   -4.4916   -1.2331 H       1  UNL1        0.0507
     68 H           5.8854   -6.2071   -1.0887 H       1  UNL1        0.0507
     69 H           4.5104   -2.9921    0.4828 H       1  UNL1        0.1491
     70 H           2.0764   -5.6429   -0.1419 H       1  UNL1        0.0237
     71 H           3.2233   -5.2342    1.1238 H       1  UNL1        0.0237
     72 H           3.3547   -6.7732    0.2731 H       1  UNL1        0.0237
     73 H           6.0191   -2.4691   -2.1320 H       1  UNL1        0.0232
     74 H           6.8510   -1.3046   -3.1468 H       1  UNL1        0.0232
     75 H           5.1651   -1.6587   -3.4397 H       1  UNL1        0.0232
     76 H           1.9494   -2.8301    1.0891 H       1  UNL1        0.2099
@<TRIPOS>BOND
     1     1     2    1
     2     1    40    1
     3     1    41    1
     4     1    42    1
     5     2     3    1
     6     2    43    1
     7     2    44    1
     8     3     4    1
     9     3    45    1
    10     3    46    1
    11     4     5    1
    12     4    47    1
    13     4    48    1
    14     5     6   am
    15     5    49    1
    16     6     7    2
    17     6     8    1
    18     8    35    1
    19     8     9    1
    20     8    10    1
    21     9    50    1
    22     9    51    1
    23     9    52    1
    24    10    11    1
    25    10    53    1
    26    10    54    1
    27    11    36    1
    28    11    12    1
    29    11    34    1
    30    12    37    1
    31    12    31    1
    32    12    13    1
    33    13    14    1
    34    13    55    1
    35    13    56    1
    36    14    38    1
    37    14    15    1
    38    14    33    1
    39    15    16    1
    40    15    57    1
    41    15    58    1
    42    16    17    1
    43    16    59    1
    44    16    60    1
    45    17    22   ar
    46    17    18   ar
    47    18    19   ar
    48    18    61    1
    49    19    20   ar
    50    19    62    1
    51    20    21   ar
    52    20    63    1
    53    21    22   ar
    54    21    23    1
    55    22    64    1
    56    23    24    1
    57    23    65    1
    58    23    66    1
    59    24    25    2
    60    24    26    2
    61    24    27    1
    62    27    28    1
    63    27    67    1
    64    27    68    1
    65    28    39    1
    66    28    29    1
    67    28    32    1
    68    29    30    2
    69    29    31   am
    70    31    69    1
    71    32    70    1
    72    32    71    1
    73    32    72    1
    74    33    73    1
    75    33    74    1
    76    33    75    1
    77    34    76    1
