@<TRIPOS>MOLECULE
BACE_14.smi:1
 86 90 0 0 0
SMALL
GASTEIGER
****
Structure written by MMmdl.
@<TRIPOS>ATOM
      1 C          -0.1216    5.1375    4.0599 C.3     1  UNL1       -0.0586
      2 C           0.5564    3.8668    3.5236 C.3     1  UNL1       -0.0215
      3 C           1.5922    3.3143    4.5150 C.3     1  UNL1       -0.0586
      4 C          -0.4630    2.8047    3.1314 C.ar    1  UNL1       -0.0443
      5 C          -1.3470    2.2655    4.0909 C.ar    1  UNL1       -0.0583
      6 C          -2.2814    1.2812    3.7193 C.ar    1  UNL1       -0.0610
      7 C          -2.3351    0.8276    2.3882 C.ar    1  UNL1       -0.0529
      8 C          -1.4569    1.3545    1.4184 C.ar    1  UNL1        0.0034
      9 C          -0.5264    2.3453    1.7985 C.ar    1  UNL1       -0.0495
     10 C          -1.5052    0.8572    0.0041 C.3     1  UNL1        0.0145
     11 C          -1.5599    1.7779   -1.1931 C.3     1  UNL1        0.0032
     12 C          -2.7671    0.9419   -0.8211 C.3     1  UNL1        0.0032
     13 N          -0.7487   -0.3903   -0.2377 N.4     1  UNL1        0.2365
     14 C           0.7111   -0.2812   -0.0321 C.3     1  UNL1       -0.0044
     15 C           1.4291   -1.5908   -0.4012 C.3     1  UNL1        0.1133
     16 C           2.9166   -1.5907    0.0373 C.3     1  UNL1        0.0583
     17 C           3.7907   -0.5110   -0.6530 C.3     1  UNL1       -0.0065
     18 C           5.2825   -0.7575   -0.5060 C.ar    1  UNL1       -0.0421
     19 C           5.9343   -0.4540    0.7051 C.ar    1  UNL1       -0.0583
     20 C           7.3035   -0.7385    0.8531 C.ar    1  UNL1       -0.0580
     21 C           8.0150   -1.3418   -0.2012 C.ar    1  UNL1       -0.0199
     22 C           7.3760   -1.6619   -1.4169 C.ar    1  UNL1        0.1208
     23 C           6.0056   -1.3359   -1.5696 C.ar    1  UNL1       -0.0167
     24 O           8.1495   -2.2879   -2.3721 O.3     1  UNL1       -0.4920
     25 C           7.5382   -2.8974   -3.5070 C.3     1  UNL1        0.0896
     26 C           8.1645   -4.2804   -3.7386 C.3     1  UNL1       -0.0172
     27 C           7.5987   -5.3761   -2.8163 C.3     1  UNL1       -0.0344
     28 C           8.0652   -5.2760   -1.3542 C.3     1  UNL1        0.0092
     29 N           7.5173   -6.3471   -0.5346 N.pl3   1  UNL1       -0.3438
     30 C           6.1737   -6.3330   -0.1275 C.ar    1  UNL1        0.0285
     31 C           5.4279   -5.1436    0.0533 C.ar    1  UNL1       -0.0287
     32 C           4.0868   -5.2001    0.5000 C.ar    1  UNL1        0.0391
     33 C           3.4951   -6.4551    0.7599 C.ar    1  UNL1       -0.0390
     34 C           4.2223   -7.6525    0.5726 C.ar    1  UNL1        0.0196
     35 C           5.5618   -7.5750    0.1327 C.ar    1  UNL1       -0.0303
     36 C           3.6162   -8.9885    0.8364 C.2     1  UNL1        0.1602
     37 O           4.2211  -10.0498    0.6875 O.2     1  UNL1       -0.2924
     38 C           2.1659   -9.0333    1.3149 C.3     1  UNL1       -0.0014
     39 C           3.3054   -3.9462    0.7719 C.2     1  UNL1        0.2445
     40 O           2.5044   -3.8960    1.7058 O.2     1  UNL1       -0.2702
     41 N           3.5064   -2.9291   -0.0822 N.am    1  UNL1       -0.3055
     42 O           1.3357   -1.7721   -1.8015 O.3     1  UNL1       -0.3847
     43 H           0.9077   -2.4178    0.0824 H       1  UNL1        0.0666
     44 H           2.9461   -1.3559    1.1035 H       1  UNL1        0.0529
     45 H          -0.8200    5.5470    3.3292 H       1  UNL1        0.0235
     46 H           0.6157    5.9109    4.2782 H       1  UNL1        0.0235
     47 H          -0.6760    4.9435    4.9788 H       1  UNL1        0.0235
     48 H           1.0991    4.1539    2.6216 H       1  UNL1        0.0343
     49 H           2.1082    2.4481    4.0996 H       1  UNL1        0.0235
     50 H           1.1277    3.0076    5.4525 H       1  UNL1        0.0235
     51 H           2.3473    4.0646    4.7510 H       1  UNL1        0.0235
     52 H          -1.3119    2.6035    5.1163 H       1  UNL1        0.0620
     53 H          -2.9560    0.8724    4.4571 H       1  UNL1        0.0618
     54 H          -3.0538    0.0695    2.1128 H       1  UNL1        0.0622
     55 H           0.1494    2.7494    1.0586 H       1  UNL1        0.0625
     56 H          -1.6261    2.8489   -1.0116 H       1  UNL1        0.0329
     57 H          -1.0243    1.4907   -2.0962 H       1  UNL1        0.0329
     58 H          -3.0141    0.1145   -1.4840 H       1  UNL1        0.0329
     59 H          -3.6194    1.4705   -0.3986 H       1  UNL1        0.0329
     60 H           1.1019    0.5524   -0.6173 H       1  UNL1        0.0840
     61 H           0.8986   -0.0514    1.0172 H       1  UNL1        0.0840
     62 H           3.5631   -0.4582   -1.7178 H       1  UNL1        0.0332
     63 H           3.5544    0.4748   -0.2510 H       1  UNL1        0.0332
     64 H           5.3848   -0.0135    1.5243 H       1  UNL1        0.0620
     65 H           7.8056   -0.5085    1.7811 H       1  UNL1        0.0619
     66 H           9.0615   -1.5750   -0.0703 H       1  UNL1        0.0654
     67 H           5.4727   -1.5321   -2.4857 H       1  UNL1        0.0657
     68 H           6.4622   -3.0386   -3.4400 H       1  UNL1        0.0696
     69 H           7.7219   -2.2555   -4.3689 H       1  UNL1        0.0696
     70 H           7.9539   -4.5742   -4.7674 H       1  UNL1        0.0298
     71 H           9.2510   -4.2286   -3.6587 H       1  UNL1        0.0298
     72 H           6.5090   -5.3627   -2.8638 H       1  UNL1        0.0281
     73 H           7.9020   -6.3473   -3.2093 H       1  UNL1        0.0281
     74 H           9.1518   -5.3547   -1.3180 H       1  UNL1        0.0461
     75 H           7.8245   -4.3100   -0.9189 H       1  UNL1        0.0461
     76 H           7.9564   -7.2519   -0.6292 H       1  UNL1        0.1461
     77 H           5.8852   -4.1805   -0.1157 H       1  UNL1        0.0643
     78 H           2.4736   -6.4833    1.1102 H       1  UNL1        0.0632
     79 H           6.1372   -8.4795   -0.0070 H       1  UNL1        0.0643
     80 H           1.5055   -8.5784    0.5766 H       1  UNL1        0.0309
     81 H           2.0581   -8.5003    2.2596 H       1  UNL1        0.0309
     82 H           1.8466  -10.0644    1.4678 H       1  UNL1        0.0309
     83 H           4.1694   -3.0684   -0.8313 H       1  UNL1        0.1494
     84 H           1.7585   -2.5873   -2.0273 H       1  UNL1        0.2101
     85 H          -1.1078   -1.1093    0.3738 H       1  UNL1        0.2023
     86 H          -0.9070   -0.6738   -1.1943 H       1  UNL1        0.2023
@<TRIPOS>BOND
     1     1     2    1
     2     1    45    1
     3     1    46    1
     4     1    47    1
     5     2     3    1
     6     2     4    1
     7     2    48    1
     8     3    49    1
     9     3    50    1
    10     3    51    1
    11     4     9   ar
    12     4     5   ar
    13     5     6   ar
    14     5    52    1
    15     6     7   ar
    16     6    53    1
    17     7     8   ar
    18     7    54    1
    19     8     9   ar
    20     8    10    1
    21     9    55    1
    22    10    12    1
    23    10    11    1
    24    10    13    1
    25    11    12    1
    26    11    56    1
    27    11    57    1
    28    12    58    1
    29    12    59    1
    30    13    14    1
    31    13    85    1
    32    13    86    1
    33    14    15    1
    34    14    60    1
    35    14    61    1
    36    15    43    1
    37    15    16    1
    38    15    42    1
    39    16    44    1
    40    16    41    1
    41    16    17    1
    42    17    18    1
    43    17    62    1
    44    17    63    1
    45    18    23   ar
    46    18    19   ar
    47    19    20   ar
    48    19    64    1
    49    20    21   ar
    50    20    65    1
    51    21    22   ar
    52    21    66    1
    53    22    23   ar
    54    22    24    1
    55    23    67    1
    56    24    25    1
    57    25    26    1
    58    25    68    1
    59    25    69    1
    60    26    27    1
    61    26    70    1
    62    26    71    1
    63    27    28    1
    64    27    72    1
    65    27    73    1
    66    28    29    1
    67    28    74    1
    68    28    75    1
    69    29    30    1
    70    29    76    1
    71    30    35   ar
    72    30    31   ar
    73    31    32   ar
    74    31    77    1
    75    32    33   ar
    76    32    39    1
    77    33    34   ar
    78    33    78    1
    79    34    35   ar
    80    34    36    1
    81    35    79    1
    82    36    37    2
    83    36    38    1
    84    38    80    1
    85    38    81    1
    86    38    82    1
    87    39    40    2
    88    39    41   am
    89    41    83    1
    90    42    84    1
