@<TRIPOS>MOLECULE
BACE_6.smi:1
 83 85 0 0 0
SMALL
GASTEIGER
****
Structure written by MMmdl.
@<TRIPOS>ATOM
      1 C          -1.2567    7.8072   -6.2430 C.3     1  UNL1       -0.0493
      2 C          -0.4622    7.7860   -4.9289 C.3     1  UNL1        0.0121
      3 N          -0.3571    6.4191   -4.3875 N.am    1  UNL1       -0.2978
      4 C          -1.3973    6.0923   -3.3853 C.3     1  UNL1        0.0150
      5 C          -2.3163    4.9055   -3.7593 C.3     1  UNL1       -0.0371
      6 C          -3.5819    4.8118   -2.8826 C.3     1  UNL1       -0.0516
      7 C          -3.3477    4.5561   -1.3785 C.3     1  UNL1       -0.0528
      8 C          -3.0012    3.0960   -1.0213 C.3     1  UNL1       -0.0504
      9 C          -2.6756    2.8641    0.4800 C.3     1  UNL1       -0.0421
     10 C          -2.1983    1.4146    0.7766 C.3     1  UNL1       -0.0293
     11 C          -0.6640    1.1946    0.7417 C.3     1  UNL1        0.0545
     12 N          -0.1779    1.4976   -0.5999 N.am    1  UNL1       -0.3058
     13 C           0.7536    2.4049   -0.9296 C.2     1  UNL1        0.2444
     14 O           1.4066    3.0623   -0.1199 O.2     1  UNL1       -0.2702
     15 C           0.8570    2.6458   -2.4013 C.ar    1  UNL1        0.0374
     16 C           0.9043    1.5643   -3.3087 C.ar    1  UNL1       -0.0496
     17 C           0.9120    1.8079   -4.6941 C.ar    1  UNL1       -0.0603
     18 C           0.8374    3.1280   -5.1761 C.ar    1  UNL1       -0.0496
     19 C           0.7754    4.2155   -4.2773 C.ar    1  UNL1        0.0376
     20 C           0.8558    3.9678   -2.8896 C.ar    1  UNL1       -0.0375
     21 C           0.6516    5.6102   -4.8216 C.2     1  UNL1        0.2466
     22 O           1.4501    5.9553   -5.6946 O.2     1  UNL1       -0.2700
     23 C          -0.2495   -0.2496    1.1290 C.3     1  UNL1        0.1130
     24 C           1.2745   -0.4903    1.0773 C.3     1  UNL1       -0.0050
     25 N           1.5982   -1.9331    1.0615 N.4     1  UNL1        0.2321
     26 C           3.0270   -2.2493    0.8410 C.3     1  UNL1       -0.0076
     27 C           3.5086   -1.7739   -0.5202 C.ar    1  UNL1       -0.0027
     28 C           4.3175   -0.6230   -0.6244 C.ar    1  UNL1       -0.0535
     29 C           4.7172   -0.1532   -1.8892 C.ar    1  UNL1       -0.0611
     30 C           4.3117   -0.8317   -3.0536 C.ar    1  UNL1       -0.0583
     31 C           3.5078   -1.9890   -2.9606 C.ar    1  UNL1       -0.0444
     32 C           3.1131   -2.4577   -1.6888 C.ar    1  UNL1       -0.0501
     33 C           3.0583   -2.7236   -4.2168 C.3     1  UNL1       -0.0215
     34 C           4.2529   -3.2704   -5.0143 C.3     1  UNL1       -0.0586
     35 C           2.1475   -1.8451   -5.0882 C.3     1  UNL1       -0.0586
     36 O          -0.6710   -0.5264    2.4503 O.3     1  UNL1       -0.3847
     37 C          -3.8812    3.2094    1.3760 C.3     1  UNL1       -0.0624
     38 H          -1.8716    3.5453    0.7623 H       1  UNL1        0.0299
     39 H          -0.2118    1.8798    1.4614 H       1  UNL1        0.0526
     40 H          -0.7491   -0.9482    0.4557 H       1  UNL1        0.0666
     41 H          -1.3352    8.8225   -6.6316 H       1  UNL1        0.0245
     42 H          -2.2686    7.4285   -6.0963 H       1  UNL1        0.0245
     43 H          -0.7784    7.1963   -7.0091 H       1  UNL1        0.0245
     44 H           0.5282    8.2135   -5.0955 H       1  UNL1        0.0462
     45 H          -0.9249    8.4639   -4.2112 H       1  UNL1        0.0462
     46 H          -0.9366    5.9395   -2.4122 H       1  UNL1        0.0464
     47 H          -2.0479    6.9540   -3.2353 H       1  UNL1        0.0464
     48 H          -2.6304    5.0216   -4.7973 H       1  UNL1        0.0280
     49 H          -1.7859    3.9569   -3.7137 H       1  UNL1        0.0280
     50 H          -4.1390    5.7433   -2.9907 H       1  UNL1        0.0266
     51 H          -4.2375    4.0357   -3.2789 H       1  UNL1        0.0266
     52 H          -2.5836    5.2289   -0.9909 H       1  UNL1        0.0265
     53 H          -4.2680    4.8304   -0.8637 H       1  UNL1        0.0265
     54 H          -3.8278    2.4490   -1.3171 H       1  UNL1        0.0268
     55 H          -2.1575    2.7916   -1.6362 H       1  UNL1        0.0268
     56 H          -2.5445    1.1327    1.7711 H       1  UNL1        0.0286
     57 H          -2.6943    0.7170    0.1002 H       1  UNL1        0.0286
     58 H          -0.6624    1.0436   -1.3608 H       1  UNL1        0.1494
     59 H           0.9266    0.5450   -2.9506 H       1  UNL1        0.0625
     60 H           0.9477    0.9821   -5.3889 H       1  UNL1        0.0618
     61 H           0.8089    3.3003   -6.2425 H       1  UNL1        0.0625
     62 H           0.8552    4.7903   -2.1901 H       1  UNL1        0.0633
     63 H           1.6820   -0.0555    0.1683 H       1  UNL1        0.0840
     64 H           1.7812    0.0023    1.9085 H       1  UNL1        0.0840
     65 H           3.6270   -1.8026    1.6351 H       1  UNL1        0.0866
     66 H           3.1637   -3.3290    0.9113 H       1  UNL1        0.0866
     67 H           4.6215   -0.0869    0.2629 H       1  UNL1        0.0622
     68 H           5.3302    0.7327   -1.9673 H       1  UNL1        0.0618
     69 H           4.6196   -0.4577   -4.0189 H       1  UNL1        0.0620
     70 H           2.4900   -3.3363   -1.6068 H       1  UNL1        0.0625
     71 H           2.4653   -3.5837   -3.9032 H       1  UNL1        0.0343
     72 H           4.8632   -3.9326   -4.3997 H       1  UNL1        0.0235
     73 H           4.8952   -2.4693   -5.3808 H       1  UNL1        0.0235
     74 H           3.9165   -3.8429   -5.8790 H       1  UNL1        0.0235
     75 H           1.2763   -1.5074   -4.5263 H       1  UNL1        0.0235
     76 H           1.7850   -2.3974   -5.9556 H       1  UNL1        0.0235
     77 H           2.6708   -0.9617   -5.4556 H       1  UNL1        0.0235
     78 H          -0.3113    0.1310    3.0268 H       1  UNL1        0.2101
     79 H          -4.7519    2.6047    1.1203 H       1  UNL1        0.0232
     80 H          -4.1639    4.2580    1.2937 H       1  UNL1        0.0232
     81 H          -3.6538    3.0354    2.4283 H       1  UNL1        0.0232
     82 H           1.3090   -2.3320    1.9434 H       1  UNL1        0.2018
     83 H           1.0649   -2.3686    0.3227 H       1  UNL1        0.2018
@<TRIPOS>BOND
     1     1     2    1
     2     1    41    1
     3     1    42    1
     4     1    43    1
     5     2     3    1
     6     2    44    1
     7     2    45    1
     8     3    21   am
     9     3     4    1
    10     4     5    1
    11     4    46    1
    12     4    47    1
    13     5     6    1
    14     5    48    1
    15     5    49    1
    16     6     7    1
    17     6    50    1
    18     6    51    1
    19     7     8    1
    20     7    52    1
    21     7    53    1
    22     8     9    1
    23     8    54    1
    24     8    55    1
    25     9    38    1
    26     9    10    1
    27     9    37    1
    28    10    11    1
    29    10    56    1
    30    10    57    1
    31    11    39    1
    32    11    12    1
    33    11    23    1
    34    12    13   am
    35    12    58    1
    36    13    14    2
    37    13    15    1
    38    15    20   ar
    39    15    16   ar
    40    16    17   ar
    41    16    59    1
    42    17    18   ar
    43    17    60    1
    44    18    19   ar
    45    18    61    1
    46    19    20   ar
    47    19    21    1
    48    20    62    1
    49    21    22    2
    50    23    40    1
    51    23    24    1
    52    23    36    1
    53    24    25    1
    54    24    63    1
    55    24    64    1
    56    25    26    1
    57    25    82    1
    58    25    83    1
    59    26    27    1
    60    26    65    1
    61    26    66    1
    62    27    32   ar
    63    27    28   ar
    64    28    29   ar
    65    28    67    1
    66    29    30   ar
    67    29    68    1
    68    30    31   ar
    69    30    69    1
    70    31    32   ar
    71    31    33    1
    72    32    70    1
    73    33    34    1
    74    33    35    1
    75    33    71    1
    76    34    72    1
    77    34    73    1
    78    34    74    1
    79    35    75    1
    80    35    76    1
    81    35    77    1
    82    36    78    1
    83    37    79    1
    84    37    80    1
    85    37    81    1
