@<TRIPOS>MOLECULE
BACE_6.smi:1
 82 84 0 0 0
SMALL
GASTEIGER
****
Structure written by MMmdl.
@<TRIPOS>ATOM
      1 C          -0.7194    7.6296   -6.3291 C.3     1  UNL1       -0.0493
      2 C           0.1311    7.4846   -5.0591 C.3     1  UNL1        0.0121
      3 N           0.0376    6.1232   -4.5025 N.am    1  UNL1       -0.2978
      4 C          -0.9968    5.9794   -3.4525 C.3     1  UNL1        0.0150
      5 C          -2.0915    4.9275   -3.7496 C.3     1  UNL1       -0.0371
      6 C          -3.3113    5.0335   -2.8119 C.3     1  UNL1       -0.0516
      7 C          -3.0397    4.7727   -1.3151 C.3     1  UNL1       -0.0528
      8 C          -2.8839    3.2845   -0.9382 C.3     1  UNL1       -0.0504
      9 C          -2.5406    3.0358    0.5567 C.3     1  UNL1       -0.0421
     10 C          -2.2534    1.5401    0.8711 C.3     1  UNL1       -0.0295
     11 C          -0.7646    1.1101    0.8008 C.3     1  UNL1        0.0508
     12 N          -0.2917    1.3031   -0.5651 N.am    1  UNL1       -0.3060
     13 C           0.7198    2.0888   -0.9645 C.2     1  UNL1        0.2444
     14 O           1.4721    2.7017   -0.2077 O.2     1  UNL1       -0.2702
     15 C           0.7854    2.2680   -2.4478 C.ar    1  UNL1        0.0374
     16 C           0.6454    1.1639   -3.3177 C.ar    1  UNL1       -0.0496
     17 C           0.6244    1.3618   -4.7100 C.ar    1  UNL1       -0.0603
     18 C           0.7049    2.6647   -5.2360 C.ar    1  UNL1       -0.0496
     19 C           0.8315    3.7770   -4.3750 C.ar    1  UNL1        0.0376
     20 C           0.9397    3.5621   -2.9835 C.ar    1  UNL1       -0.0375
     21 C           0.8853    5.1586   -4.9620 C.2     1  UNL1        0.2466
     22 O           1.6784    5.3565   -5.8844 O.2     1  UNL1       -0.2700
     23 C          -0.5425   -0.3623    1.2555 C.3     1  UNL1        0.0859
     24 C           0.9203   -0.8562    1.1796 C.3     1  UNL1        0.0240
     25 N           1.3215   -1.1636   -0.1896 N.3     1  UNL1       -0.3095
     26 C           2.7362   -1.4709   -0.3498 C.3     1  UNL1        0.0213
     27 C           3.1736   -1.2647   -1.7855 C.ar    1  UNL1       -0.0333
     28 C           2.7818   -2.1783   -2.7849 C.ar    1  UNL1       -0.0573
     29 C           3.1569   -1.9612   -4.1241 C.ar    1  UNL1       -0.0612
     30 C           3.9264   -0.8332   -4.4674 C.ar    1  UNL1       -0.0583
     31 C           4.3306    0.0843   -3.4724 C.ar    1  UNL1       -0.0445
     32 C           3.9453   -0.1360   -2.1325 C.ar    1  UNL1       -0.0539
     33 C           5.1684    1.3054   -3.8322 C.3     1  UNL1       -0.0215
     34 C           4.3648    2.3129   -4.6663 C.3     1  UNL1       -0.0586
     35 C           6.4847    0.9169   -4.5238 C.3     1  UNL1       -0.0586
     36 O          -0.9105   -0.4651    2.6166 O.3     1  UNL1       -0.3887
     37 C          -3.6577    3.5555    1.4832 C.3     1  UNL1       -0.0624
     38 H          -1.6430    3.6066    0.7991 H       1  UNL1        0.0299
     39 H          -0.1988    1.7559    1.4752 H       1  UNL1        0.0524
     40 H          -1.1878   -1.0333    0.6861 H       1  UNL1        0.0624
     41 H          -0.6426    8.6391   -6.7331 H       1  UNL1        0.0245
     42 H          -1.7718    7.4347   -6.1212 H       1  UNL1        0.0245
     43 H          -0.3978    6.9368   -7.1070 H       1  UNL1        0.0245
     44 H           1.1678    7.7409   -5.2844 H       1  UNL1        0.0462
     45 H          -0.1733    8.2335   -4.3274 H       1  UNL1        0.0462
     46 H          -0.5225    5.7916   -2.4920 H       1  UNL1        0.0464
     47 H          -1.5111    6.9302   -3.3113 H       1  UNL1        0.0464
     48 H          -2.4377    5.0650   -4.7747 H       1  UNL1        0.0280
     49 H          -1.7005    3.9138   -3.7014 H       1  UNL1        0.0280
     50 H          -3.7332    6.0338   -2.9166 H       1  UNL1        0.0266
     51 H          -4.0906    4.3532   -3.1567 H       1  UNL1        0.0266
     52 H          -2.1702    5.3369   -0.9804 H       1  UNL1        0.0265
     53 H          -3.8853    5.1844   -0.7655 H       1  UNL1        0.0265
     54 H          -3.8015    2.7525   -1.1924 H       1  UNL1        0.0268
     55 H          -2.1120    2.8555   -1.5727 H       1  UNL1        0.0268
     56 H          -2.6065    1.3265    1.8799 H       1  UNL1        0.0286
     57 H          -2.8585    0.9034    0.2240 H       1  UNL1        0.0286
     58 H          -0.8458    0.8690   -1.2892 H       1  UNL1        0.1494
     59 H           0.5484    0.1618   -2.9252 H       1  UNL1        0.0625
     60 H           0.5231    0.5160   -5.3740 H       1  UNL1        0.0618
     61 H           0.6557    2.8066   -6.3061 H       1  UNL1        0.0625
     62 H           1.0859    4.3967   -2.3145 H       1  UNL1        0.0633
     63 H           1.5771   -0.0974    1.6077 H       1  UNL1        0.0450
     64 H           1.0442   -1.7516    1.7906 H       1  UNL1        0.0450
     65 H           3.3391   -0.8212    0.2860 H       1  UNL1        0.0473
     66 H           2.9431   -2.4949   -0.0381 H       1  UNL1        0.0473
     67 H           2.1851   -3.0410   -2.5270 H       1  UNL1        0.0621
     68 H           2.8519   -2.6591   -4.8897 H       1  UNL1        0.0618
     69 H           4.2040   -0.6763   -5.4993 H       1  UNL1        0.0620
     70 H           4.2355    0.5679   -1.3659 H       1  UNL1        0.0623
     71 H           5.4374    1.8057   -2.9009 H       1  UNL1        0.0343
     72 H           3.4832    2.6453   -4.1208 H       1  UNL1        0.0235
     73 H           4.0317    1.8814   -5.6106 H       1  UNL1        0.0235
     74 H           4.9587    3.1977   -4.8958 H       1  UNL1        0.0235
     75 H           7.0670    0.2361   -3.9022 H       1  UNL1        0.0235
     76 H           7.1004    1.7967   -4.7126 H       1  UNL1        0.0235
     77 H           6.3104    0.4277   -5.4824 H       1  UNL1        0.0235
     78 H          -0.8177   -1.3665    2.8847 H       1  UNL1        0.2099
     79 H          -4.6097    3.0686    1.2689 H       1  UNL1        0.0232
     80 H          -3.8008    4.6311    1.3884 H       1  UNL1        0.0232
     81 H          -3.4190    3.3702    2.5310 H       1  UNL1        0.0232
     82 H           1.0694   -0.3971   -0.8054 H       1  UNL1        0.1223
@<TRIPOS>BOND
     1     1     2    1
     2     1    41    1
     3     1    42    1
     4     1    43    1
     5     2     3    1
     6     2    44    1
     7     2    45    1
     8     3    21   am
     9     3     4    1
    10     4     5    1
    11     4    46    1
    12     4    47    1
    13     5     6    1
    14     5    48    1
    15     5    49    1
    16     6     7    1
    17     6    50    1
    18     6    51    1
    19     7     8    1
    20     7    52    1
    21     7    53    1
    22     8     9    1
    23     8    54    1
    24     8    55    1
    25     9    38    1
    26     9    10    1
    27     9    37    1
    28    10    11    1
    29    10    56    1
    30    10    57    1
    31    11    39    1
    32    11    12    1
    33    11    23    1
    34    12    13   am
    35    12    58    1
    36    13    14    2
    37    13    15    1
    38    15    20   ar
    39    15    16   ar
    40    16    17   ar
    41    16    59    1
    42    17    18   ar
    43    17    60    1
    44    18    19   ar
    45    18    61    1
    46    19    20   ar
    47    19    21    1
    48    20    62    1
    49    21    22    2
    50    23    40    1
    51    23    24    1
    52    23    36    1
    53    24    25    1
    54    24    63    1
    55    24    64    1
    56    25    26    1
    57    25    82    1
    58    26    27    1
    59    26    65    1
    60    26    66    1
    61    27    32   ar
    62    27    28   ar
    63    28    29   ar
    64    28    67    1
    65    29    30   ar
    66    29    68    1
    67    30    31   ar
    68    30    69    1
    69    31    32   ar
    70    31    33    1
    71    32    70    1
    72    33    34    1
    73    33    35    1
    74    33    71    1
    75    34    72    1
    76    34    73    1
    77    34    74    1
    78    35    75    1
    79    35    76    1
    80    35    77    1
    81    36    78    1
    82    37    79    1
    83    37    80    1
    84    37    81    1
