@<TRIPOS>MOLECULE
BACE_8.smi:1
 77 79 0 0 0
SMALL
GASTEIGER
****
Structure written by MMmdl.
@<TRIPOS>ATOM
      1 C          -1.2454    2.7578    2.9218 C.3     1  UNL1       -0.0623
      2 C          -2.4431    1.8479    2.5934 C.3     1  UNL1       -0.0400
      3 C          -2.9248    1.0855    3.8503 C.3     1  UNL1       -0.0268
      4 C          -3.7661    1.9401    4.8127 C.3     1  UNL1        0.0479
      5 O          -5.0036    2.2358    4.1868 O.3     1  UNL1       -0.3797
      6 C          -5.8119    3.1378    4.9230 C.3     1  UNL1        0.0477
      7 C          -7.1444    3.3628    4.1885 C.3     1  UNL1       -0.0281
      8 C          -7.0410    4.2008    2.8996 C.3     1  UNL1       -0.0354
      9 C          -6.3061    3.4902    1.7535 C.3     1  UNL1        0.0105
     10 N          -6.3108    4.2754    0.5301 N.pl3   1  UNL1       -0.3290
     11 C          -5.5676    3.8696   -0.5868 C.ar    1  UNL1        0.1211
     12 C          -4.8575    2.6459   -0.6307 C.ar    1  UNL1       -0.0097
     13 C          -4.1289    2.3234   -1.7968 C.ar    1  UNL1        0.0428
     14 C          -4.1668    3.2231   -2.8809 C.ar    1  UNL1       -0.0126
     15 C          -4.8998    4.4181   -2.7468 C.ar    1  UNL1        0.1320
     16 N          -5.5806    4.7340   -1.6241 N.ar    1  UNL1       -0.2208
     17 CL         -4.9368    5.5260   -4.0681 Cl      1  UNL1       -0.0619
     18 C          -3.3883    1.0235   -1.9235 C.2     1  UNL1        0.2446
     19 O          -3.6271    0.2806   -2.8732 O.2     1  UNL1       -0.2702
     20 N          -2.4672    0.6972   -0.9977 N.am    1  UNL1       -0.3060
     21 C          -1.8766    1.5294    0.0573 C.3     1  UNL1        0.0508
     22 C          -2.1651    0.8674    1.4290 C.3     1  UNL1       -0.0294
     23 C          -0.3564    1.7075   -0.2081 C.3     1  UNL1        0.0859
     24 C           0.3623    0.4532   -0.7612 C.3     1  UNL1        0.0240
     25 N           1.8005    0.4586   -0.4930 N.3     1  UNL1       -0.3095
     26 C           2.1694    0.1453    0.8863 C.3     1  UNL1        0.0213
     27 C           3.6666    0.2310    1.0947 C.ar    1  UNL1       -0.0333
     28 C           4.4870   -0.8791    0.8091 C.ar    1  UNL1       -0.0573
     29 C           5.8801   -0.7908    0.9920 C.ar    1  UNL1       -0.0612
     30 C           6.4564    0.4063    1.4588 C.ar    1  UNL1       -0.0583
     31 C           5.6433    1.5242    1.7452 C.ar    1  UNL1       -0.0445
     32 C           4.2463    1.4291    1.5598 C.ar    1  UNL1       -0.0539
     33 C           6.2724    2.8163    2.2505 C.3     1  UNL1       -0.0215
     34 C           5.8016    3.1539    3.6738 C.3     1  UNL1       -0.0586
     35 C           6.0314    3.9838    1.2806 C.3     1  UNL1       -0.0586
     36 O          -0.1991    2.7699   -1.1273 O.3     1  UNL1       -0.3887
     37 H          -3.2572    2.4922    2.2669 H       1  UNL1        0.0299
     38 H          -2.3311    2.5193    0.0707 H       1  UNL1        0.0524
     39 H           0.1226    2.0352    0.7105 H       1  UNL1        0.0624
     40 H          -0.3552    2.1740    3.1579 H       1  UNL1        0.0232
     41 H          -1.4523    3.4028    3.7750 H       1  UNL1        0.0232
     42 H          -1.0085    3.4184    2.0882 H       1  UNL1        0.0232
     43 H          -3.5290    0.2246    3.5613 H       1  UNL1        0.0290
     44 H          -2.0632    0.6756    4.3789 H       1  UNL1        0.0290
     45 H          -3.9532    1.3874    5.7343 H       1  UNL1        0.0560
     46 H          -3.2394    2.8547    5.0857 H       1  UNL1        0.0560
     47 H          -6.0081    2.7188    5.9112 H       1  UNL1        0.0560
     48 H          -5.2931    4.0865    5.0689 H       1  UNL1        0.0560
     49 H          -7.6156    2.4028    3.9745 H       1  UNL1        0.0288
     50 H          -7.8204    3.8804    4.8699 H       1  UNL1        0.0288
     51 H          -8.0510    4.4456    2.5688 H       1  UNL1        0.0281
     52 H          -6.5547    5.1522    3.1187 H       1  UNL1        0.0281
     53 H          -5.2711    3.3167    2.0365 H       1  UNL1        0.0462
     54 H          -6.7641    2.5200    1.5582 H       1  UNL1        0.0462
     55 H          -6.7840    5.1675    0.5196 H       1  UNL1        0.1474
     56 H          -4.8657    1.9572    0.2013 H       1  UNL1        0.0659
     57 H          -3.6405    3.0057   -3.7992 H       1  UNL1        0.0655
     58 H          -2.0354   -0.2077   -1.1148 H       1  UNL1        0.1494
     59 H          -1.3601    0.1817    1.6971 H       1  UNL1        0.0286
     60 H          -3.0517    0.2394    1.3256 H       1  UNL1        0.0286
     61 H          -0.0711   -0.4468   -0.3235 H       1  UNL1        0.0450
     62 H           0.1872    0.3744   -1.8348 H       1  UNL1        0.0450
     63 H           1.6872    0.8259    1.5874 H       1  UNL1        0.0473
     64 H           1.8312   -0.8580    1.1478 H       1  UNL1        0.0473
     65 H           4.0500   -1.7983    0.4475 H       1  UNL1        0.0621
     66 H           6.5080   -1.6418    0.7724 H       1  UNL1        0.0618
     67 H           7.5266    0.4608    1.5949 H       1  UNL1        0.0620
     68 H           3.6144    2.2787    1.7739 H       1  UNL1        0.0623
     69 H           7.3510    2.6613    2.2996 H       1  UNL1        0.0343
     70 H           6.0278    2.3399    4.3632 H       1  UNL1        0.0235
     71 H           4.7267    3.3329    3.7112 H       1  UNL1        0.0235
     72 H           6.2983    4.0491    4.0488 H       1  UNL1        0.0235
     73 H           6.4180    3.7532    0.2873 H       1  UNL1        0.0235
     74 H           6.5323    4.8886    1.6260 H       1  UNL1        0.0235
     75 H           4.9703    4.2134    1.1803 H       1  UNL1        0.0235
     76 H           0.7246    2.9156   -1.2627 H       1  UNL1        0.2099
     77 H           2.1910    1.3597   -0.7499 H       1  UNL1        0.1223
@<TRIPOS>BOND
     1     1     2    1
     2     1    40    1
     3     1    41    1
     4     1    42    1
     5     2    37    1
     6     2    22    1
     7     2     3    1
     8     3     4    1
     9     3    43    1
    10     3    44    1
    11     4     5    1
    12     4    45    1
    13     4    46    1
    14     5     6    1
    15     6     7    1
    16     6    47    1
    17     6    48    1
    18     7     8    1
    19     7    49    1
    20     7    50    1
    21     8     9    1
    22     8    51    1
    23     8    52    1
    24     9    10    1
    25     9    53    1
    26     9    54    1
    27    10    11    1
    28    10    55    1
    29    11    16   ar
    30    11    12   ar
    31    12    13   ar
    32    12    56    1
    33    13    14   ar
    34    13    18    1
    35    14    15   ar
    36    14    57    1
    37    15    16   ar
    38    15    17    1
    39    18    19    2
    40    18    20   am
    41    20    21    1
    42    20    58    1
    43    21    38    1
    44    21    22    1
    45    21    23    1
    46    22    59    1
    47    22    60    1
    48    23    39    1
    49    23    24    1
    50    23    36    1
    51    24    25    1
    52    24    61    1
    53    24    62    1
    54    25    26    1
    55    25    77    1
    56    26    27    1
    57    26    63    1
    58    26    64    1
    59    27    32   ar
    60    27    28   ar
    61    28    29   ar
    62    28    65    1
    63    29    30   ar
    64    29    66    1
    65    30    31   ar
    66    30    67    1
    67    31    32   ar
    68    31    33    1
    69    32    68    1
    70    33    34    1
    71    33    35    1
    72    33    69    1
    73    34    70    1
    74    34    71    1
    75    34    72    1
    76    35    73    1
    77    35    74    1
    78    35    75    1
    79    36    76    1
