@<TRIPOS>MOLECULE
BACE_7.smi:1
 98 102 0 0 0
SMALL
GASTEIGER
****
Structure written by MMmdl.
@<TRIPOS>ATOM
      1 C          -1.9527   -0.2840   -2.4116 C.3     1  UNL1       -0.0624
      2 C          -2.6684    0.2132   -1.1329 C.3     1  UNL1       -0.0421
      3 C          -4.0007    0.9218   -1.4983 C.3     1  UNL1       -0.0504
      4 C          -3.8481    2.1285   -2.4528 C.3     1  UNL1       -0.0528
      5 C          -5.1681    2.7340   -2.9543 C.3     1  UNL1       -0.0516
      6 C          -5.0256    3.5370   -4.2678 C.3     1  UNL1       -0.0371
      7 C          -4.3641    4.9362   -4.1807 C.3     1  UNL1        0.0156
      8 N          -2.9392    4.9317   -3.7699 N.am    1  UNL1       -0.2907
      9 C          -2.0110    4.4267   -4.6382 C.2     1  UNL1        0.2471
     10 O          -2.2733    4.1053   -5.7977 O.2     1  UNL1       -0.2700
     11 C          -0.6030    4.2203   -4.1491 C.ar    1  UNL1        0.0384
     12 C           0.4790    4.8915   -4.7555 C.ar    1  UNL1       -0.0373
     13 C           1.7902    4.7373   -4.2484 C.ar    1  UNL1        0.0383
     14 C           2.0167    3.8913   -3.1377 C.ar    1  UNL1       -0.0373
     15 C           0.9487    3.1774   -2.5553 C.ar    1  UNL1        0.0381
     16 C          -0.3492    3.3397   -3.0819 C.ar    1  UNL1       -0.0375
     17 C           1.1433    2.3507   -1.3174 C.2     1  UNL1        0.2444
     18 O           1.9474    2.6793   -0.4457 O.2     1  UNL1       -0.2702
     19 N           0.3233    1.2916   -1.2272 N.am    1  UNL1       -0.3060
     20 C          -0.3005    0.8100    0.0044 C.3     1  UNL1        0.0508
     21 C          -1.8287    1.0550   -0.1200 C.3     1  UNL1       -0.0295
     22 C           0.1048   -0.6355    0.4006 C.3     1  UNL1        0.0859
     23 C           1.6166   -0.9157    0.2760 C.3     1  UNL1        0.0240
     24 N           1.8990   -2.3507    0.2890 N.3     1  UNL1       -0.3095
     25 C           3.2838   -2.6796   -0.0416 C.3     1  UNL1        0.0213
     26 C           3.5633   -2.5732   -1.5296 C.ar    1  UNL1       -0.0333
     27 C           3.2157   -3.6331   -2.3917 C.ar    1  UNL1       -0.0573
     28 C           3.4478   -3.5213   -3.7757 C.ar    1  UNL1       -0.0612
     29 C           4.0211   -2.3481   -4.3029 C.ar    1  UNL1       -0.0583
     30 C           4.3707   -1.2804   -3.4486 C.ar    1  UNL1       -0.0445
     31 C           4.1452   -1.4032   -2.0600 C.ar    1  UNL1       -0.0539
     32 C           4.9743   -0.0064   -4.0258 C.3     1  UNL1       -0.0215
     33 C           6.3992    0.2332   -3.5034 C.3     1  UNL1       -0.0586
     34 C           4.0683    1.2091   -3.7766 C.3     1  UNL1       -0.0586
     35 O          -0.2486   -0.8169    1.7577 O.3     1  UNL1       -0.3887
     36 C           2.8987    5.4665   -4.8570 C.ar    1  UNL1        0.2271
     37 N           2.8611    6.3665   -5.8406 N.ar    1  UNL1       -0.2175
     38 C           4.1794    6.7507   -6.0351 C.ar    1  UNL1        0.0663
     39 C           4.9588    6.0546   -5.1499 C.ar    1  UNL1        0.1125
     40 O           4.1607    5.2373   -4.3976 O.2     1  UNL1       -0.4436
     41 C          -2.5433    5.6374   -2.5122 C.3     1  UNL1        0.0487
     42 C          -3.6827    5.9984   -1.5366 C.3     1  UNL1       -0.0422
     43 C          -1.6789    6.8699   -2.7703 C.ar    1  UNL1       -0.0273
     44 C          -2.0445    7.8167   -3.7528 C.ar    1  UNL1       -0.0568
     45 C          -1.2229    8.9328   -4.0033 C.ar    1  UNL1       -0.0614
     46 C          -0.0338    9.1116   -3.2710 C.ar    1  UNL1       -0.0617
     47 C           0.3308    8.1770   -2.2835 C.ar    1  UNL1       -0.0614
     48 C          -0.4911    7.0619   -2.0311 C.ar    1  UNL1       -0.0568
     49 H          -2.9444   -0.6943   -0.5941 H       1  UNL1        0.0299
     50 H           0.0452    1.4607    0.8111 H       1  UNL1        0.0524
     51 H          -0.4477   -1.3627   -0.1907 H       1  UNL1        0.0624
     52 H          -1.9430    4.9422   -1.9303 H       1  UNL1        0.0548
     53 H          -1.5333    0.5285   -3.0019 H       1  UNL1        0.0232
     54 H          -2.6486   -0.8231   -3.0550 H       1  UNL1        0.0232
     55 H          -1.1404   -0.9743   -2.1965 H       1  UNL1        0.0232
     56 H          -4.6599    0.1897   -1.9666 H       1  UNL1        0.0268
     57 H          -4.5112    1.2384   -0.5881 H       1  UNL1        0.0268
     58 H          -3.2762    2.9093   -1.9591 H       1  UNL1        0.0265
     59 H          -3.2780    1.8260   -3.3290 H       1  UNL1        0.0265
     60 H          -5.8658    1.9186   -3.1483 H       1  UNL1        0.0266
     61 H          -5.6316    3.3415   -2.1770 H       1  UNL1        0.0266
     62 H          -4.5198    2.9240   -5.0141 H       1  UNL1        0.0280
     63 H          -6.0293    3.6851   -4.6675 H       1  UNL1        0.0280
     64 H          -4.4262    5.4037   -5.1651 H       1  UNL1        0.0465
     65 H          -4.9960    5.5736   -3.5700 H       1  UNL1        0.0465
     66 H           0.2944    5.5539   -5.5893 H       1  UNL1        0.0633
     67 H           3.0095    3.7935   -2.7228 H       1  UNL1        0.0633
     68 H          -1.1788    2.8246   -2.6278 H       1  UNL1        0.0633
     69 H          -0.1848    1.0605   -2.0687 H       1  UNL1        0.1494
     70 H          -1.9577    2.1137   -0.3427 H       1  UNL1        0.0286
     71 H          -2.2796    0.9349    0.8659 H       1  UNL1        0.0286
     72 H           1.9744   -0.5070   -0.6669 H       1  UNL1        0.0450
     73 H           2.1746   -0.4022    1.0600 H       1  UNL1        0.0450
     74 H           3.9748   -2.0475    0.5178 H       1  UNL1        0.0473
     75 H           3.4946   -3.7048    0.2639 H       1  UNL1        0.0473
     76 H           2.7664   -4.5316   -1.9943 H       1  UNL1        0.0621
     77 H           3.1805   -4.3341   -4.4346 H       1  UNL1        0.0618
     78 H           4.1873   -2.2720   -5.3675 H       1  UNL1        0.0620
     79 H           4.4039   -0.5903   -1.3971 H       1  UNL1        0.0623
     80 H           5.0471   -0.1345   -5.1067 H       1  UNL1        0.0343
     81 H           7.0465   -0.6144   -3.7309 H       1  UNL1        0.0235
     82 H           6.4124    0.3825   -2.4234 H       1  UNL1        0.0235
     83 H           6.8413    1.1174   -3.9634 H       1  UNL1        0.0235
     84 H           3.0734    1.0501   -4.1937 H       1  UNL1        0.0235
     85 H           4.4785    2.1069   -4.2403 H       1  UNL1        0.0235
     86 H           3.9524    1.4128   -2.7118 H       1  UNL1        0.0235
     87 H           0.2686   -0.2261    2.2834 H       1  UNL1        0.2099
     88 H           4.4567    7.4820   -6.7800 H       1  UNL1        0.0862
     89 H           6.0181    6.0267   -4.9417 H       1  UNL1        0.1046
     90 H          -3.2725    6.3436   -0.5872 H       1  UNL1        0.0251
     91 H          -4.3138    5.1387   -1.3139 H       1  UNL1        0.0251
     92 H          -4.3107    6.8053   -1.9152 H       1  UNL1        0.0251
     93 H          -2.9525    7.6858   -4.3229 H       1  UNL1        0.0621
     94 H          -1.5036    9.6504   -4.7598 H       1  UNL1        0.0618
     95 H           0.5981    9.9655   -3.4657 H       1  UNL1        0.0618
     96 H           1.2431    8.3129   -1.7217 H       1  UNL1        0.0618
     97 H          -0.1974    6.3459   -1.2773 H       1  UNL1        0.0621
     98 H           1.2828   -2.8100   -0.3740 H       1  UNL1        0.1223
@<TRIPOS>BOND
     1     1     2    1
     2     1    53    1
     3     1    54    1
     4     1    55    1
     5     2    49    1
     6     2    21    1
     7     2     3    1
     8     3     4    1
     9     3    56    1
    10     3    57    1
    11     4     5    1
    12     4    58    1
    13     4    59    1
    14     5     6    1
    15     5    60    1
    16     5    61    1
    17     6     7    1
    18     6    62    1
    19     6    63    1
    20     7     8    1
    21     7    64    1
    22     7    65    1
    23     8     9   am
    24     8    41    1
    25     9    10    2
    26     9    11    1
    27    11    16   ar
    28    11    12   ar
    29    12    13   ar
    30    12    66    1
    31    13    14   ar
    32    13    36    1
    33    14    15   ar
    34    14    67    1
    35    15    16   ar
    36    15    17    1
    37    16    68    1
    38    17    18    2
    39    17    19   am
    40    19    20    1
    41    19    69    1
    42    20    50    1
    43    20    21    1
    44    20    22    1
    45    21    70    1
    46    21    71    1
    47    22    51    1
    48    22    23    1
    49    22    35    1
    50    23    24    1
    51    23    72    1
    52    23    73    1
    53    24    25    1
    54    24    98    1
    55    25    26    1
    56    25    74    1
    57    25    75    1
    58    26    31   ar
    59    26    27   ar
    60    27    28   ar
    61    27    76    1
    62    28    29   ar
    63    28    77    1
    64    29    30   ar
    65    29    78    1
    66    30    31   ar
    67    30    32    1
    68    31    79    1
    69    32    33    1
    70    32    34    1
    71    32    80    1
    72    33    81    1
    73    33    82    1
    74    33    83    1
    75    34    84    1
    76    34    85    1
    77    34    86    1
    78    35    87    1
    79    36    40   ar
    80    36    37   ar
    81    37    38   ar
    82    38    39   ar
    83    38    88    1
    84    39    40   ar
    85    39    89    1
    86    41    52    1
    87    41    42    1
    88    41    43    1
    89    42    90    1
    90    42    91    1
    91    42    92    1
    92    43    48   ar
    93    43    44   ar
    94    44    45   ar
    95    44    93    1
    96    45    46   ar
    97    45    94    1
    98    46    47   ar
    99    46    95    1
   100    47    48   ar
   101    47    96    1
   102    48    97    1
