@<TRIPOS>MOLECULE
BACE_5.smi:1
 79 80 0 0 0
SMALL
GASTEIGER
****
Structure written by MMmdl.
@<TRIPOS>ATOM
      1 C          -7.5154    0.7724   -2.1652 C.3     1  UNL1       -0.0649
      2 C          -6.0119    0.8727   -1.8840 C.3     1  UNL1       -0.0505
      3 C          -5.7069    1.2341   -0.4218 C.3     1  UNL1       -0.0112
      4 C          -4.2487    1.3474   -0.1080 C.ar    1  UNL1        0.0364
      5 C          -3.1266    1.1829   -0.8731 C.ar    1  UNL1       -0.0168
      6 C          -2.0459    1.4381    0.0213 C.ar    1  UNL1        0.0768
      7 N          -2.4612    1.7319    1.2443 N.ar    1  UNL1       -0.1774
      8 N          -3.8027    1.6738    1.1524 N.ar    1  UNL1       -0.2813
      9 C          -0.5742    1.4029   -0.2735 C.3     1  UNL1        0.0403
     10 N          -0.1132    0.0457   -0.5423 N.3     1  UNL1       -0.3080
     11 C           1.2990   -0.0183   -0.9068 C.3     1  UNL1        0.0240
     12 C           1.7618   -1.4729   -1.1180 C.3     1  UNL1        0.0859
     13 C           3.2983   -1.6311   -0.9701 C.3     1  UNL1        0.0505
     14 C           4.1182   -0.8999   -2.0731 C.3     1  UNL1       -0.0295
     15 C           5.6667   -0.9158   -1.9615 C.3     1  UNL1       -0.0421
     16 C           6.1771   -0.2548   -0.6586 C.3     1  UNL1       -0.0504
     17 C           7.7111   -0.2407   -0.4959 C.3     1  UNL1       -0.0528
     18 C           8.1979   -1.3171    0.4908 C.3     1  UNL1       -0.0530
     19 C           9.7011   -1.6315    0.4076 C.3     1  UNL1       -0.0510
     20 C          10.1023   -2.5846   -0.7374 C.3     1  UNL1       -0.0294
     21 C           9.7762   -4.0697   -0.4852 C.3     1  UNL1        0.0483
     22 O           8.3862   -4.3115   -0.6283 O.3     1  UNL1       -0.3706
     23 C           8.0191   -5.6643   -0.4015 C.3     1  UNL1        0.1238
     24 C           6.5054   -5.8018   -0.6268 C.2     1  UNL1        0.2417
     25 O           6.1318   -6.3512   -1.6636 O.2     1  UNL1       -0.2731
     26 N           5.6410   -5.2808    0.2831 N.am    1  UNL1       -0.2914
     27 C           4.1807   -5.2440    0.0334 C.3     1  UNL1        0.0991
     28 C           3.5846   -3.8335    0.1907 C.2     1  UNL1        0.2336
     29 O           3.0917   -3.4702    1.2589 O.2     1  UNL1       -0.2738
     30 N           3.6600   -3.0451   -0.8935 N.am    1  UNL1       -0.3084
     31 C           3.4661   -6.3383    0.8480 C.3     1  UNL1       -0.0379
     32 C           6.1154   -4.7884    1.5851 C.3     1  UNL1        0.0040
     33 C           6.2801   -2.3011   -2.2450 C.3     1  UNL1       -0.0624
     34 O           1.3672   -1.8728   -2.4169 O.3     1  UNL1       -0.3887
     35 H          -4.3958    1.8578    1.9490 H       1  UNL1        0.1885
     36 H           1.2633   -2.1136   -0.3889 H       1  UNL1        0.0624
     37 H           3.5654   -1.1842   -0.0120 H       1  UNL1        0.0524
     38 H           6.0172   -0.2814   -2.7769 H       1  UNL1        0.0299
     39 H           3.9759   -5.4987   -1.0080 H       1  UNL1        0.0594
     40 H          -7.6985    0.5165   -3.2089 H       1  UNL1        0.0230
     41 H          -8.0187    1.7179   -1.9615 H       1  UNL1        0.0230
     42 H          -7.9813    0.0039   -1.5481 H       1  UNL1        0.0230
     43 H          -5.5383   -0.0773   -2.1341 H       1  UNL1        0.0266
     44 H          -5.5747    1.6218   -2.5455 H       1  UNL1        0.0266
     45 H          -6.1949    2.1783   -0.1772 H       1  UNL1        0.0328
     46 H          -6.1529    0.4847    0.2330 H       1  UNL1        0.0328
     47 H          -3.0790    0.9201   -1.9194 H       1  UNL1        0.0654
     48 H          -0.3656    2.0397   -1.1337 H       1  UNL1        0.0489
     49 H          -0.0124    1.8258    0.5606 H       1  UNL1        0.0489
     50 H           1.4953    0.5826   -1.7960 H       1  UNL1        0.0450
     51 H           1.8858    0.4254   -0.1016 H       1  UNL1        0.0450
     52 H           3.8459   -1.2986   -3.0507 H       1  UNL1        0.0286
     53 H           3.8057    0.1444   -2.0963 H       1  UNL1        0.0286
     54 H           5.8179    0.7748   -0.6403 H       1  UNL1        0.0268
     55 H           5.7307   -0.7309    0.2142 H       1  UNL1        0.0268
     56 H           8.1968   -0.3450   -1.4658 H       1  UNL1        0.0265
     57 H           8.0256    0.7337   -0.1203 H       1  UNL1        0.0265
     58 H           7.9629   -0.9816    1.5016 H       1  UNL1        0.0265
     59 H           7.6249   -2.2275    0.3518 H       1  UNL1        0.0265
     60 H          10.2511   -0.6947    0.3101 H       1  UNL1        0.0266
     61 H          10.0282   -2.0655    1.3531 H       1  UNL1        0.0266
     62 H           9.6714   -2.2574   -1.6836 H       1  UNL1        0.0287
     63 H          11.1824   -2.5053   -0.8642 H       1  UNL1        0.0287
     64 H          10.3163   -4.6829   -1.2080 H       1  UNL1        0.0560
     65 H          10.1150   -4.3697    0.5075 H       1  UNL1        0.0560
     66 H           8.5462   -6.3100   -1.1062 H       1  UNL1        0.0657
     67 H           8.3050   -5.9912    0.5986 H       1  UNL1        0.0657
     68 H           4.0735   -3.4423   -1.7248 H       1  UNL1        0.1491
     69 H           2.3937   -6.3385    0.6496 H       1  UNL1        0.0252
     70 H           3.6024   -6.2014    1.9211 H       1  UNL1        0.0252
     71 H           3.8462   -7.3272    0.5898 H       1  UNL1        0.0252
     72 H           6.7611   -3.9205    1.4715 H       1  UNL1        0.0429
     73 H           6.6723   -5.5636    2.1122 H       1  UNL1        0.0429
     74 H           5.3020   -4.4999    2.2495 H       1  UNL1        0.0429
     75 H           6.1929   -2.9637   -1.3879 H       1  UNL1        0.0232
     76 H           7.3402   -2.2292   -2.4847 H       1  UNL1        0.0232
     77 H           5.7967   -2.7832   -3.0949 H       1  UNL1        0.0232
     78 H           1.5962   -2.7823   -2.5312 H       1  UNL1        0.2099
     79 H          -0.2708   -0.5297    0.2789 H       1  UNL1        0.1224
@<TRIPOS>BOND
     1     1     2    1
     2     1    40    1
     3     1    41    1
     4     1    42    1
     5     2     3    1
     6     2    43    1
     7     2    44    1
     8     3     4    1
     9     3    45    1
    10     3    46    1
    11     4     8   ar
    12     4     5   ar
    13     5     6   ar
    14     5    47    1
    15     6     7   ar
    16     6     9    1
    17     7     8   ar
    18     8    35    1
    19     9    10    1
    20     9    48    1
    21     9    49    1
    22    10    11    1
    23    10    79    1
    24    11    12    1
    25    11    50    1
    26    11    51    1
    27    12    36    1
    28    12    13    1
    29    12    34    1
    30    13    37    1
    31    13    30    1
    32    13    14    1
    33    14    15    1
    34    14    52    1
    35    14    53    1
    36    15    38    1
    37    15    16    1
    38    15    33    1
    39    16    17    1
    40    16    54    1
    41    16    55    1
    42    17    18    1
    43    17    56    1
    44    17    57    1
    45    18    19    1
    46    18    58    1
    47    18    59    1
    48    19    20    1
    49    19    60    1
    50    19    61    1
    51    20    21    1
    52    20    62    1
    53    20    63    1
    54    21    22    1
    55    21    64    1
    56    21    65    1
    57    22    23    1
    58    23    24    1
    59    23    66    1
    60    23    67    1
    61    24    25    2
    62    24    26   am
    63    26    27    1
    64    26    32    1
    65    27    39    1
    66    27    28    1
    67    27    31    1
    68    28    29    2
    69    28    30   am
    70    30    68    1
    71    31    69    1
    72    31    70    1
    73    31    71    1
    74    32    72    1
    75    32    73    1
    76    32    74    1
    77    33    75    1
    78    33    76    1
    79    33    77    1
    80    34    78    1
