@<TRIPOS>MOLECULE
BACE_13.smi:1
 76 79 0 0 0
SMALL
GASTEIGER
****
Structure written by MMmdl.
@<TRIPOS>ATOM
      1 C           1.2130    7.8376    3.4893 C.3     1  UNL1        0.0369
      2 O           0.6697    6.7099    2.8250 O.3     1  UNL1       -0.3784
      3 C          -0.4356    7.0454    2.0005 C.3     1  UNL1        0.0724
      4 C          -1.0433    5.8465    1.2921 C.ar    1  UNL1       -0.0195
      5 C          -0.5236    4.5455    1.4674 C.ar    1  UNL1       -0.0442
      6 C          -1.1007    3.4509    0.7894 C.ar    1  UNL1        0.0388
      7 C          -2.2289    3.6608   -0.0326 C.ar    1  UNL1       -0.0287
      8 C          -2.7569    4.9583   -0.2216 C.ar    1  UNL1        0.0282
      9 C          -2.1488    6.0445    0.4395 C.ar    1  UNL1       -0.0355
     10 N          -3.8569    5.2187   -1.0544 N.pl3   1  UNL1       -0.3438
     11 C          -4.9017    4.2152   -1.2243 C.3     1  UNL1        0.0092
     12 C          -5.1145    3.8107   -2.6935 C.3     1  UNL1       -0.0344
     13 C          -3.9027    3.1149   -3.3457 C.3     1  UNL1       -0.0172
     14 C          -4.2844    1.9094   -4.2241 C.3     1  UNL1        0.0896
     15 O          -4.9302    0.8922   -3.4608 O.3     1  UNL1       -0.4920
     16 C          -4.1997    0.1358   -2.5662 C.ar    1  UNL1        0.1208
     17 C          -4.9349   -0.6611   -1.6651 C.ar    1  UNL1       -0.0199
     18 C          -4.2813   -1.4666   -0.7138 C.ar    1  UNL1       -0.0580
     19 C          -2.8764   -1.4900   -0.6589 C.ar    1  UNL1       -0.0583
     20 C          -2.1225   -0.7068   -1.5553 C.ar    1  UNL1       -0.0421
     21 C          -2.7829    0.1028   -2.5055 C.ar    1  UNL1       -0.0167
     22 C          -0.6033   -0.7526   -1.5029 C.3     1  UNL1       -0.0066
     23 C           0.0046   -0.0351   -0.2727 C.3     1  UNL1        0.0548
     24 N          -0.5079    1.3295   -0.1587 N.am    1  UNL1       -0.3057
     25 C          -0.5343    2.0729    0.9605 C.2     1  UNL1        0.2444
     26 O          -0.0862    1.6988    2.0446 O.2     1  UNL1       -0.2702
     27 C           1.5601   -0.0520   -0.2265 C.3     1  UNL1        0.0912
     28 C           2.1735   -1.4653   -0.0187 C.3     1  UNL1        0.0591
     29 C           3.7166   -1.4410    0.0758 C.3     1  UNL1        0.0660
     30 O           4.1198   -0.7831    1.2719 O.3     1  UNL1       -0.3714
     31 C           3.6776   -1.4791    2.4338 C.3     1  UNL1        0.0944
     32 C           2.1365   -1.5201    2.4240 C.3     1  UNL1        0.0248
     33 N           1.6483   -2.1266    1.1837 N.3     1  UNL1       -0.3065
     34 C           4.2201   -0.7413    3.6648 C.3     1  UNL1        0.0747
     35 O           5.6155   -0.9733    3.7643 O.3     1  UNL1       -0.3804
     36 C           6.1974   -0.3220    4.8796 C.3     1  UNL1        0.0366
     37 O           2.0551    0.4805   -1.4410 O.3     1  UNL1       -0.3883
     38 H          -0.3698   -0.5575    0.6087 H       1  UNL1        0.0527
     39 H           1.9118    0.6040    0.5697 H       1  UNL1        0.0628
     40 H           1.9077   -2.0719   -0.8847 H       1  UNL1        0.0509
     41 H           4.0684   -2.4986    2.4290 H       1  UNL1        0.0632
     42 H           2.0612    7.5298    4.1007 H       1  UNL1        0.0524
     43 H           0.4757    8.3017    4.1456 H       1  UNL1        0.0524
     44 H           1.5656    8.5839    2.7762 H       1  UNL1        0.0524
     45 H          -1.2135    7.5168    2.6032 H       1  UNL1        0.0610
     46 H          -0.1240    7.7699    1.2463 H       1  UNL1        0.0610
     47 H           0.3295    4.3827    2.1103 H       1  UNL1        0.0628
     48 H          -2.6756    2.8093   -0.5201 H       1  UNL1        0.0643
     49 H          -2.5393    7.0426    0.3021 H       1  UNL1        0.0639
     50 H          -4.1557    6.1813   -1.1168 H       1  UNL1        0.1461
     51 H          -4.7342    3.3317   -0.6095 H       1  UNL1        0.0461
     52 H          -5.8265    4.6531   -0.8482 H       1  UNL1        0.0461
     53 H          -5.9780    3.1456   -2.7237 H       1  UNL1        0.0281
     54 H          -5.3984    4.6811   -3.2862 H       1  UNL1        0.0281
     55 H          -3.3577    3.8439   -3.9460 H       1  UNL1        0.0298
     56 H          -3.1972    2.7885   -2.5885 H       1  UNL1        0.0298
     57 H          -4.9830    2.2364   -4.9946 H       1  UNL1        0.0696
     58 H          -3.4225    1.5150   -4.7624 H       1  UNL1        0.0696
     59 H          -6.0145   -0.6509   -1.7009 H       1  UNL1        0.0654
     60 H          -4.8586   -2.0690   -0.0278 H       1  UNL1        0.0619
     61 H          -2.3785   -2.1133    0.0695 H       1  UNL1        0.0620
     62 H          -2.1821    0.6902   -3.1822 H       1  UNL1        0.0657
     63 H          -0.3000   -1.7995   -1.5101 H       1  UNL1        0.0332
     64 H          -0.2130   -0.3217   -2.4255 H       1  UNL1        0.0332
     65 H          -0.8762    1.7426   -1.0032 H       1  UNL1        0.1494
     66 H           4.1190   -2.4553    0.0576 H       1  UNL1        0.0576
     67 H           4.1569   -0.9252   -0.7773 H       1  UNL1        0.0576
     68 H           1.7742   -2.0899    3.2797 H       1  UNL1        0.0450
     69 H           1.7345   -0.5130    2.5367 H       1  UNL1        0.0450
     70 H           0.6341   -2.0879    1.1727 H       1  UNL1        0.1224
     71 H           4.0058    0.3267    3.5968 H       1  UNL1        0.0586
     72 H           3.7329   -1.1178    4.5658 H       1  UNL1        0.0586
     73 H           7.2680   -0.5242    4.9034 H       1  UNL1        0.0524
     74 H           5.7662   -0.6806    5.8149 H       1  UNL1        0.0524
     75 H           6.0601    0.7584    4.8213 H       1  UNL1        0.0524
     76 H           2.9949    0.5542   -1.3731 H       1  UNL1        0.2099
@<TRIPOS>BOND
     1     1     2    1
     2     1    42    1
     3     1    43    1
     4     1    44    1
     5     2     3    1
     6     3     4    1
     7     3    45    1
     8     3    46    1
     9     4     9   ar
    10     4     5   ar
    11     5     6   ar
    12     5    47    1
    13     6    25    1
    14     6     7   ar
    15     7     8   ar
    16     7    48    1
    17     8     9   ar
    18     8    10    1
    19     9    49    1
    20    10    11    1
    21    10    50    1
    22    11    12    1
    23    11    51    1
    24    11    52    1
    25    12    13    1
    26    12    53    1
    27    12    54    1
    28    13    14    1
    29    13    55    1
    30    13    56    1
    31    14    15    1
    32    14    57    1
    33    14    58    1
    34    15    16    1
    35    16    21   ar
    36    16    17   ar
    37    17    18   ar
    38    17    59    1
    39    18    19   ar
    40    18    60    1
    41    19    20   ar
    42    19    61    1
    43    20    21   ar
    44    20    22    1
    45    21    62    1
    46    22    23    1
    47    22    63    1
    48    22    64    1
    49    23    38    1
    50    23    24    1
    51    23    27    1
    52    24    25   am
    53    24    65    1
    54    25    26    2
    55    27    39    1
    56    27    28    1
    57    27    37    1
    58    28    40    1
    59    28    33    1
    60    28    29    1
    61    29    30    1
    62    29    66    1
    63    29    67    1
    64    30    31    1
    65    31    41    1
    66    31    32    1
    67    31    34    1
    68    32    33    1
    69    32    68    1
    70    32    69    1
    71    33    70    1
    72    34    35    1
    73    34    71    1
    74    34    72    1
    75    35    36    1
    76    36    73    1
    77    36    74    1
    78    36    75    1
    79    37    76    1
