@<TRIPOS>MOLECULE
BACE_5.smi:1
 80 81 0 0 0
SMALL
GASTEIGER
****
Structure written by MMmdl.
@<TRIPOS>ATOM
      1 C           0.3881    2.9042   -6.3264 C.3     1  UNL1       -0.0649
      2 C          -0.0684    2.0751   -5.1210 C.3     1  UNL1       -0.0505
      3 C          -0.9088    2.8900   -4.1273 C.3     1  UNL1       -0.0112
      4 C          -1.3623    2.0888   -2.9522 C.ar    1  UNL1        0.0365
      5 C          -0.8949    2.0238   -1.6701 C.ar    1  UNL1       -0.0128
      6 C          -1.7348    1.0609   -1.0375 C.ar    1  UNL1        0.1072
      7 N          -2.6519    0.5709   -1.8588 N.ar    1  UNL1       -0.1733
      8 N          -2.4155    1.2057   -3.0220 N.ar    1  UNL1       -0.2812
      9 C          -1.6596    0.5551    0.3763 C.3     1  UNL1        0.0115
     10 N          -1.0521   -0.7908    0.4403 N.4     1  UNL1        0.2333
     11 C           0.3621   -0.8545    0.0125 C.3     1  UNL1       -0.0049
     12 C           0.9538   -2.2632    0.2194 C.3     1  UNL1        0.1129
     13 C           2.4704   -2.3525   -0.0916 C.3     1  UNL1        0.0543
     14 C           3.1112   -3.7639    0.0239 C.3     1  UNL1       -0.0293
     15 C           2.9516   -4.5963    1.3265 C.3     1  UNL1       -0.0421
     16 C           3.2314   -3.8072    2.6219 C.3     1  UNL1       -0.0504
     17 C           3.5157   -4.6905    3.8493 C.3     1  UNL1       -0.0528
     18 C           3.6941   -3.8640    5.1299 C.3     1  UNL1       -0.0530
     19 C           2.3622   -3.5049    5.8144 C.3     1  UNL1       -0.0510
     20 C           2.5260   -2.3911    6.8620 C.3     1  UNL1       -0.0294
     21 C           2.1717   -0.9911    6.3370 C.3     1  UNL1        0.0483
     22 O           2.7508   -0.7678    5.0602 O.3     1  UNL1       -0.3706
     23 C           2.8297    0.6079    4.7236 C.3     1  UNL1        0.1238
     24 C           3.0726    0.7627    3.2161 C.2     1  UNL1        0.2417
     25 O           2.1589    1.2575    2.5531 O.2     1  UNL1       -0.2731
     26 N           4.2578    0.3928    2.6547 N.am    1  UNL1       -0.2914
     27 C           4.5091    0.6976    1.2155 C.3     1  UNL1        0.0991
     28 C           3.7701   -0.2341    0.2285 C.2     1  UNL1        0.2336
     29 O           3.6627    0.1169   -0.9465 O.2     1  UNL1       -0.2738
     30 N           3.2343   -1.3778    0.6935 N.am    1  UNL1       -0.3083
     31 C           6.0107    0.6647    0.8400 C.3     1  UNL1       -0.0379
     32 C           5.3348   -0.2553    3.4230 C.3     1  UNL1        0.0040
     33 C           1.6244   -5.3791    1.3794 C.3     1  UNL1       -0.0624
     34 O           0.2653   -3.1393   -0.6528 O.3     1  UNL1       -0.3847
     35 H          -2.9709    1.0269   -3.8469 H       1  UNL1        0.1885
     36 H           0.7686   -2.5621    1.2498 H       1  UNL1        0.0666
     37 H           2.5781   -2.0888   -1.1454 H       1  UNL1        0.0526
     38 H           3.7286   -5.3592    1.2582 H       1  UNL1        0.0299
     39 H           4.1649    1.7151    1.0187 H       1  UNL1        0.0594
     40 H           0.9819    2.2989   -7.0119 H       1  UNL1        0.0230
     41 H           1.0007    3.7503   -6.0136 H       1  UNL1        0.0230
     42 H          -0.4652    3.2946   -6.8818 H       1  UNL1        0.0230
     43 H          -0.6445    1.2188   -5.4733 H       1  UNL1        0.0266
     44 H           0.8070    1.6698   -4.6117 H       1  UNL1        0.0266
     45 H          -0.3296    3.7452   -3.7770 H       1  UNL1        0.0328
     46 H          -1.7792    3.3042   -4.6378 H       1  UNL1        0.0328
     47 H          -0.0657    2.5735   -1.2490 H       1  UNL1        0.0656
     48 H          -2.6580    0.5018    0.8113 H       1  UNL1        0.0882
     49 H          -1.0861    1.2411    1.0010 H       1  UNL1        0.0882
     50 H          -1.1063   -1.1149    1.3951 H       1  UNL1        0.2018
     51 H           0.4593   -0.5565   -1.0323 H       1  UNL1        0.0840
     52 H           0.9089   -0.1213    0.6030 H       1  UNL1        0.0840
     53 H           2.7619   -4.3705   -0.8126 H       1  UNL1        0.0286
     54 H           4.1801   -3.6471   -0.1626 H       1  UNL1        0.0286
     55 H           4.1049   -3.1730    2.4693 H       1  UNL1        0.0268
     56 H           2.3997   -3.1352    2.8326 H       1  UNL1        0.0268
     57 H           2.7265   -5.4261    4.0025 H       1  UNL1        0.0265
     58 H           4.4279   -5.2584    3.6630 H       1  UNL1        0.0265
     59 H           4.3027   -4.4272    5.8384 H       1  UNL1        0.0265
     60 H           4.2653   -2.9637    4.9013 H       1  UNL1        0.0265
     61 H           1.6098   -3.2140    5.0806 H       1  UNL1        0.0266
     62 H           1.9717   -4.4016    6.2971 H       1  UNL1        0.0266
     63 H           1.8856   -2.6044    7.7186 H       1  UNL1        0.0287
     64 H           3.5455   -2.3949    7.2499 H       1  UNL1        0.0287
     65 H           1.0897   -0.8805    6.2521 H       1  UNL1        0.0560
     66 H           2.5156   -0.2468    7.0576 H       1  UNL1        0.0560
     67 H           1.8951    1.1112    4.9798 H       1  UNL1        0.0657
     68 H           3.6229    1.0975    5.2902 H       1  UNL1        0.0657
     69 H           3.3638   -1.5900    1.6724 H       1  UNL1        0.1491
     70 H           6.1625    0.9958   -0.1882 H       1  UNL1        0.0252
     71 H           6.4435   -0.3335    0.9162 H       1  UNL1        0.0252
     72 H           6.5930    1.3399    1.4673 H       1  UNL1        0.0252
     73 H           6.1698    0.4313    3.5632 H       1  UNL1        0.0429
     74 H           5.6982   -1.1377    2.8965 H       1  UNL1        0.0429
     75 H           5.0570   -0.6027    4.4145 H       1  UNL1        0.0429
     76 H           0.7739   -4.7439    1.6186 H       1  UNL1        0.0232
     77 H           1.6579   -6.1641    2.1342 H       1  UNL1        0.0232
     78 H           1.4166   -5.8696    0.4281 H       1  UNL1        0.0232
     79 H           0.4752   -2.9053   -1.5444 H       1  UNL1        0.2101
     80 H          -1.5917   -1.4151   -0.1427 H       1  UNL1        0.2018
@<TRIPOS>BOND
     1     1     2    1
     2     1    40    1
     3     1    41    1
     4     1    42    1
     5     2     3    1
     6     2    43    1
     7     2    44    1
     8     3    45    1
     9     3    46    1
    10     3     4    1
    11     4     8   ar
    12     4     5   ar
    13     5     6   ar
    14     5    47    1
    15     6     9    1
    16     6     7   ar
    17     7     8   ar
    18     8    35    1
    19     9    10    1
    20     9    48    1
    21     9    49    1
    22    10    11    1
    23    10    50    1
    24    10    80    1
    25    11    12    1
    26    11    51    1
    27    11    52    1
    28    12    36    1
    29    12    13    1
    30    12    34    1
    31    13    37    1
    32    13    30    1
    33    13    14    1
    34    14    15    1
    35    14    53    1
    36    14    54    1
    37    15    38    1
    38    15    16    1
    39    15    33    1
    40    16    17    1
    41    16    55    1
    42    16    56    1
    43    17    18    1
    44    17    57    1
    45    17    58    1
    46    18    19    1
    47    18    59    1
    48    18    60    1
    49    19    20    1
    50    19    61    1
    51    19    62    1
    52    20    21    1
    53    20    63    1
    54    20    64    1
    55    21    22    1
    56    21    65    1
    57    21    66    1
    58    22    23    1
    59    23    24    1
    60    23    67    1
    61    23    68    1
    62    24    25    2
    63    24    26   am
    64    26    27    1
    65    26    32    1
    66    27    39    1
    67    27    28    1
    68    27    31    1
    69    28    29    2
    70    28    30   am
    71    30    69    1
    72    31    70    1
    73    31    71    1
    74    31    72    1
    75    32    73    1
    76    32    74    1
    77    32    75    1
    78    33    76    1
    79    33    77    1
    80    33    78    1
    81    34    79    1
