@<TRIPOS>MOLECULE
BACE_5.smi:1
 80 81 0 0 0
SMALL
GASTEIGER
****
Structure written by MMmdl.
@<TRIPOS>ATOM
      1 C           2.9705    3.1573   -4.1643 C.3     1  UNL1       -0.0649
      2 C           1.8822    4.1628   -4.5670 C.3     1  UNL1       -0.0505
      3 C           1.2084    4.8558   -3.3709 C.3     1  UNL1       -0.0112
      4 C           0.5207    3.9120   -2.4396 C.ar    1  UNL1        0.0365
      5 C           0.8673    3.4587   -1.1984 C.ar    1  UNL1       -0.0128
      6 C          -0.1707    2.5432   -0.8560 C.ar    1  UNL1        0.1072
      7 N          -1.0980    2.4531   -1.7981 N.ar    1  UNL1       -0.1733
      8 N          -0.6662    3.2926   -2.7575 N.ar    1  UNL1       -0.2812
      9 C          -0.2835    1.6920    0.3781 C.3     1  UNL1        0.0115
     10 N           0.1226    0.2970    0.1064 N.4     1  UNL1        0.2333
     11 C           1.5584    0.1138   -0.1987 C.3     1  UNL1       -0.0049
     12 C           1.8865   -1.3614   -0.4917 C.3     1  UNL1        0.1129
     13 C           3.4134   -1.6299   -0.5741 C.3     1  UNL1        0.0543
     14 C           4.1097   -1.0000   -1.8165 C.3     1  UNL1       -0.0293
     15 C           5.6536   -1.1285   -1.9287 C.3     1  UNL1       -0.0421
     16 C           6.3940   -0.4510   -0.7502 C.3     1  UNL1       -0.0504
     17 C           7.9321   -0.5644   -0.7929 C.3     1  UNL1       -0.0528
     18 C           8.4595   -1.6313    0.1834 C.3     1  UNL1       -0.0530
     19 C           9.9139   -2.0658   -0.0638 C.3     1  UNL1       -0.0510
     20 C          10.1009   -3.0876   -1.2042 C.3     1  UNL1       -0.0294
     21 C           9.7049   -4.5336   -0.8472 C.3     1  UNL1        0.0483
     22 O           8.2944   -4.6738   -0.8034 O.3     1  UNL1       -0.3706
     23 C           7.8652   -5.9889   -0.4829 C.3     1  UNL1        0.1238
     24 C           6.3294   -6.0181   -0.5034 C.2     1  UNL1        0.2417
     25 O           5.7834   -6.5700   -1.4593 O.2     1  UNL1       -0.2731
     26 N           5.6326   -5.4055    0.4896 N.am    1  UNL1       -0.2914
     27 C           4.1581   -5.2710    0.4332 C.3     1  UNL1        0.0991
     28 C           3.6846   -3.8181    0.6149 C.2     1  UNL1        0.2336
     29 O           3.3517   -3.3931    1.7215 O.2     1  UNL1       -0.2738
     30 N           3.6802   -3.0640   -0.4958 N.am    1  UNL1       -0.3083
     31 C           3.4870   -6.2890    1.3736 C.3     1  UNL1       -0.0379
     32 C           6.3096   -4.9058    1.6956 C.3     1  UNL1        0.0040
     33 C           6.1246   -2.5665   -2.2241 C.3     1  UNL1       -0.0624
     34 O           1.2648   -1.7155   -1.7128 O.3     1  UNL1       -0.3847
     35 H          -1.1795    3.4251   -3.6179 H       1  UNL1        0.1885
     36 H           1.4520   -1.9717    0.3014 H       1  UNL1        0.0666
     37 H           3.8550   -1.1798    0.3153 H       1  UNL1        0.0526
     38 H           5.9233   -0.5582   -2.8190 H       1  UNL1        0.0299
     39 H           3.7995   -5.5378   -0.5626 H       1  UNL1        0.0594
     40 H           3.4439    2.7272   -5.0470 H       1  UNL1        0.0230
     41 H           2.5606    2.3342   -3.5785 H       1  UNL1        0.0230
     42 H           3.7492    3.6370   -3.5711 H       1  UNL1        0.0230
     43 H           2.3229    4.9214   -5.2146 H       1  UNL1        0.0266
     44 H           1.1272    3.6534   -5.1669 H       1  UNL1        0.0266
     45 H           1.9540    5.4288   -2.8187 H       1  UNL1        0.0328
     46 H           0.4863    5.5852   -3.7395 H       1  UNL1        0.0328
     47 H           1.7476    3.7214   -0.6305 H       1  UNL1        0.0656
     48 H           0.3251    2.0986    1.1867 H       1  UNL1        0.0882
     49 H          -1.3131    1.6861    0.7377 H       1  UNL1        0.0882
     50 H           1.8423    0.7379   -1.0461 H       1  UNL1        0.0840
     51 H           2.1357    0.4593    0.6598 H       1  UNL1        0.0840
     52 H           3.6701   -1.4130   -2.7251 H       1  UNL1        0.0286
     53 H           3.8728    0.0634   -1.8452 H       1  UNL1        0.0286
     54 H           6.1252    0.6059   -0.7477 H       1  UNL1        0.0268
     55 H           6.0376   -0.8406    0.2029 H       1  UNL1        0.0268
     56 H           8.2725   -0.7553   -1.8102 H       1  UNL1        0.0265
     57 H           8.3721    0.3950   -0.5185 H       1  UNL1        0.0265
     58 H           8.3782   -1.2334    1.1955 H       1  UNL1        0.0265
     59 H           7.8094   -2.4996    0.1654 H       1  UNL1        0.0265
     60 H          10.5158   -1.1795   -0.2680 H       1  UNL1        0.0266
     61 H          10.3211   -2.4902    0.8545 H       1  UNL1        0.0266
     62 H           9.5802   -2.7634   -2.1052 H       1  UNL1        0.0287
     63 H          11.1598   -3.0955   -1.4640 H       1  UNL1        0.0287
     64 H          10.1029   -5.2107   -1.6044 H       1  UNL1        0.0560
     65 H          10.1464   -4.8236    0.1075 H       1  UNL1        0.0560
     66 H           8.2464   -6.6906   -1.2270 H       1  UNL1        0.0657
     67 H           8.2565   -6.3106    0.4823 H       1  UNL1        0.0657
     68 H           3.9640   -3.5103   -1.3564 H       1  UNL1        0.1491
     69 H           2.4002   -6.2186    1.3182 H       1  UNL1        0.0252
     70 H           3.7743   -6.1327    2.4137 H       1  UNL1        0.0252
     71 H           3.7623   -7.3090    1.1044 H       1  UNL1        0.0252
     72 H           6.9862   -4.0870    1.4618 H       1  UNL1        0.0429
     73 H           6.8831   -5.6998    2.1748 H       1  UNL1        0.0429
     74 H           5.6139   -4.5431    2.4511 H       1  UNL1        0.0429
     75 H           6.1209   -3.1839   -1.3296 H       1  UNL1        0.0232
     76 H           7.1403   -2.5834   -2.6175 H       1  UNL1        0.0232
     77 H           5.4906   -3.0479   -2.9688 H       1  UNL1        0.0232
     78 H           1.4478   -2.6262   -1.8895 H       1  UNL1        0.2101
     79 H          -0.1025   -0.2638    0.9152 H       1  UNL1        0.2018
     80 H          -0.4150   -0.0410   -0.6795 H       1  UNL1        0.2018
@<TRIPOS>BOND
     1     1     2    1
     2     1    40    1
     3     1    41    1
     4     1    42    1
     5     2     3    1
     6     2    43    1
     7     2    44    1
     8     3     4    1
     9     3    45    1
    10     3    46    1
    11     4     8   ar
    12     4     5   ar
    13     5     6   ar
    14     5    47    1
    15     6     7   ar
    16     6     9    1
    17     7     8   ar
    18     8    35    1
    19     9    10    1
    20     9    48    1
    21     9    49    1
    22    10    11    1
    23    10    79    1
    24    10    80    1
    25    11    12    1
    26    11    50    1
    27    11    51    1
    28    12    36    1
    29    12    13    1
    30    12    34    1
    31    13    37    1
    32    13    30    1
    33    13    14    1
    34    14    15    1
    35    14    52    1
    36    14    53    1
    37    15    38    1
    38    15    16    1
    39    15    33    1
    40    16    17    1
    41    16    54    1
    42    16    55    1
    43    17    18    1
    44    17    56    1
    45    17    57    1
    46    18    19    1
    47    18    58    1
    48    18    59    1
    49    19    20    1
    50    19    60    1
    51    19    61    1
    52    20    21    1
    53    20    62    1
    54    20    63    1
    55    21    22    1
    56    21    64    1
    57    21    65    1
    58    22    23    1
    59    23    24    1
    60    23    66    1
    61    23    67    1
    62    24    25    2
    63    24    26   am
    64    26    27    1
    65    26    32    1
    66    27    39    1
    67    27    28    1
    68    27    31    1
    69    28    29    2
    70    28    30   am
    71    30    68    1
    72    31    69    1
    73    31    70    1
    74    31    71    1
    75    32    72    1
    76    32    73    1
    77    32    74    1
    78    33    75    1
    79    33    76    1
    80    33    77    1
    81    34    78    1
