@<TRIPOS>MOLECULE
BACE_3.smi:1
 85 86 0 0 0
SMALL
GASTEIGER
****
Structure written by MMmdl.
@<TRIPOS>ATOM
      1 C          -1.3711    3.4376   -1.5355 C.ar    1  UNL1       -0.0573
      2 C          -1.6482    3.5838   -2.9076 C.ar    1  UNL1       -0.0612
      3 C          -2.6352    2.7859   -3.5171 C.ar    1  UNL1       -0.0583
      4 C          -3.3499    1.8328   -2.7585 C.ar    1  UNL1       -0.0445
      5 C          -4.4291    0.9736   -3.4065 C.3     1  UNL1       -0.0215
      6 C          -5.6441    1.8197   -3.8171 C.3     1  UNL1       -0.0586
      7 C          -3.8861    0.1535   -4.5884 C.3     1  UNL1       -0.0586
      8 C          -3.0655    1.6901   -1.3828 C.ar    1  UNL1       -0.0539
      9 C          -2.0777    2.4879   -0.7680 C.ar    1  UNL1       -0.0333
     10 C          -1.7760    2.3170    0.7118 C.3     1  UNL1        0.0214
     11 N          -0.3643    2.0551    0.9848 N.3     1  UNL1       -0.3071
     12 C           0.0988    0.7502    0.5087 C.3     1  UNL1        0.0521
     13 C           1.5922    0.4883    0.8316 C.3     1  UNL1        0.1962
     14 O           1.7016    0.5129    2.2427 O.3     1  UNL1       -0.3623
     15 O           2.3713    1.4973    0.2193 O.3     1  UNL1       -0.3623
     16 C           2.0928   -0.9228    0.3651 C.3     1  UNL1        0.0782
     17 N           1.3656   -1.4530   -0.7910 N.am    1  UNL1       -0.3058
     18 C           1.4761   -1.0702   -2.0749 C.2     1  UNL1        0.2337
     19 O           2.2231   -0.1700   -2.4561 O.2     1  UNL1       -0.2738
     20 C           0.6072   -1.8276   -3.0880 C.3     1  UNL1        0.0991
     21 C          -0.8934   -1.8961   -2.7183 C.3     1  UNL1       -0.0379
     22 C           3.6271   -1.1109    0.1943 C.3     1  UNL1       -0.0269
     23 C           4.4600   -1.1447    1.4977 C.3     1  UNL1       -0.0420
     24 C           5.9675   -1.0584    1.1970 C.3     1  UNL1       -0.0624
     25 C           4.1204   -2.3143    2.4637 C.3     1  UNL1       -0.0504
     26 C           3.7558   -3.6857    1.8497 C.3     1  UNL1       -0.0528
     27 C           4.8625   -4.3750    1.0309 C.3     1  UNL1       -0.0530
     28 C           4.4250   -5.7085    0.3988 C.3     1  UNL1       -0.0531
     29 C           3.2568   -5.5581   -0.5927 C.3     1  UNL1       -0.0530
     30 C           3.0602   -6.7874   -1.4922 C.3     1  UNL1       -0.0526
     31 C           1.7836   -6.7590   -2.3591 C.3     1  UNL1       -0.0448
     32 C           1.6915   -5.5828   -3.3626 C.3     1  UNL1        0.0242
     33 C           1.0615   -4.2829   -2.8081 C.2     1  UNL1        0.2159
     34 O           0.4249   -4.3459   -1.7562 O.2     1  UNL1       -0.2756
     35 N           1.2212   -3.1172   -3.4939 N.am    1  UNL1       -0.2932
     36 C           2.1180   -3.0512   -4.6564 C.3     1  UNL1        0.0039
     37 H           1.7685   -1.6232    1.1339 H       1  UNL1        0.0552
     38 H           0.5994   -1.1899   -3.9729 H       1  UNL1        0.0594
     39 H           4.2417   -0.2263    2.0424 H       1  UNL1        0.0299
     40 H          -0.6116    4.0523   -1.0747 H       1  UNL1        0.0621
     41 H          -1.1041    4.3103   -3.4930 H       1  UNL1        0.0618
     42 H          -2.8430    2.9125   -4.5694 H       1  UNL1        0.0620
     43 H          -4.7737    0.2587   -2.6581 H       1  UNL1        0.0343
     44 H          -6.0603    2.3487   -2.9591 H       1  UNL1        0.0235
     45 H          -6.4347    1.1946   -4.2334 H       1  UNL1        0.0235
     46 H          -5.3794    2.5631   -4.5697 H       1  UNL1        0.0235
     47 H          -3.0546   -0.4794   -4.2792 H       1  UNL1        0.0235
     48 H          -3.5351    0.7924   -5.3990 H       1  UNL1        0.0235
     49 H          -4.6586   -0.4987   -4.9968 H       1  UNL1        0.0235
     50 H          -3.6075    0.9650   -0.7934 H       1  UNL1        0.0623
     51 H          -2.0769    3.2357    1.2159 H       1  UNL1        0.0473
     52 H          -2.3946    1.5223    1.1306 H       1  UNL1        0.0473
     53 H          -0.5108   -0.0396    0.9500 H       1  UNL1        0.0477
     54 H          -0.0625    0.6953   -0.5672 H       1  UNL1        0.0477
     55 H           1.1301   -0.1502    2.5980 H       1  UNL1        0.2128
     56 H           3.2822    1.2592    0.2960 H       1  UNL1        0.2128
     57 H           0.7211   -2.2062   -0.5972 H       1  UNL1        0.1492
     58 H          -1.3063   -0.8907   -2.6255 H       1  UNL1        0.0252
     59 H          -1.0847   -2.3946   -1.7690 H       1  UNL1        0.0252
     60 H          -1.4642   -2.4115   -3.4907 H       1  UNL1        0.0252
     61 H           3.8108   -2.0304   -0.3602 H       1  UNL1        0.0287
     62 H           4.0197   -0.3289   -0.4555 H       1  UNL1        0.0287
     63 H           6.3279   -1.9021    0.6121 H       1  UNL1        0.0232
     64 H           6.5511   -1.0213    2.1172 H       1  UNL1        0.0232
     65 H           6.1993   -0.1537    0.6342 H       1  UNL1        0.0232
     66 H           4.9306   -2.4443    3.1819 H       1  UNL1        0.0268
     67 H           3.2653   -2.0031    3.0648 H       1  UNL1        0.0268
     68 H           3.4661   -4.3539    2.6614 H       1  UNL1        0.0265
     69 H           2.8614   -3.5762    1.2409 H       1  UNL1        0.0265
     70 H           5.1987   -3.7261    0.2259 H       1  UNL1        0.0265
     71 H           5.7306   -4.5442    1.6687 H       1  UNL1        0.0265
     72 H           5.2832   -6.1335   -0.1230 H       1  UNL1        0.0265
     73 H           4.1584   -6.4238    1.1775 H       1  UNL1        0.0265
     74 H           2.3361   -5.3708   -0.0403 H       1  UNL1        0.0265
     75 H           3.4310   -4.6826   -1.2188 H       1  UNL1        0.0265
     76 H           3.9325   -6.9036   -2.1365 H       1  UNL1        0.0265
     77 H           3.0286   -7.6804   -0.8670 H       1  UNL1        0.0265
     78 H           1.7574   -7.6867   -2.9317 H       1  UNL1        0.0270
     79 H           0.9014   -6.8057   -1.7196 H       1  UNL1        0.0270
     80 H           2.6883   -5.4050   -3.7639 H       1  UNL1        0.0358
     81 H           1.0728   -5.8928   -4.2056 H       1  UNL1        0.0358
     82 H           1.8153   -3.7619   -5.4263 H       1  UNL1        0.0429
     83 H           3.1448   -3.2716   -4.3613 H       1  UNL1        0.0429
     84 H           2.1406   -2.0688   -5.1281 H       1  UNL1        0.0429
     85 H          -0.1721    2.1530    1.9766 H       1  UNL1        0.1224
@<TRIPOS>BOND
     1     1     9   ar
     2     1     2   ar
     3     1    40    1
     4     2     3   ar
     5     2    41    1
     6     3     4   ar
     7     3    42    1
     8     4     5    1
     9     4     8   ar
    10     5     6    1
    11     5     7    1
    12     5    43    1
    13     6    44    1
    14     6    45    1
    15     6    46    1
    16     7    47    1
    17     7    48    1
    18     7    49    1
    19     8     9   ar
    20     8    50    1
    21     9    10    1
    22    10    11    1
    23    10    51    1
    24    10    52    1
    25    11    12    1
    26    11    85    1
    27    12    13    1
    28    12    53    1
    29    12    54    1
    30    13    14    1
    31    13    15    1
    32    13    16    1
    33    14    55    1
    34    15    56    1
    35    16    37    1
    36    16    17    1
    37    16    22    1
    38    17    18   am
    39    17    57    1
    40    18    19    2
    41    18    20    1
    42    20    38    1
    43    20    35    1
    44    20    21    1
    45    21    58    1
    46    21    59    1
    47    21    60    1
    48    22    23    1
    49    22    61    1
    50    22    62    1
    51    23    39    1
    52    23    24    1
    53    23    25    1
    54    24    63    1
    55    24    64    1
    56    24    65    1
    57    25    26    1
    58    25    66    1
    59    25    67    1
    60    26    27    1
    61    26    68    1
    62    26    69    1
    63    27    28    1
    64    27    70    1
    65    27    71    1
    66    28    29    1
    67    28    72    1
    68    28    73    1
    69    29    30    1
    70    29    74    1
    71    29    75    1
    72    30    31    1
    73    30    76    1
    74    30    77    1
    75    31    32    1
    76    31    78    1
    77    31    79    1
    78    32    33    1
    79    32    80    1
    80    32    81    1
    81    33    34    2
    82    33    35   am
    83    35    36    1
    84    36    82    1
    85    36    83    1
    86    36    84    1
