@<TRIPOS>MOLECULE
BACE_16.smi:1
 85 88 0 0 0
SMALL
GASTEIGER
****
Structure written by MMmdl.
@<TRIPOS>ATOM
      1 C          -5.7745    5.6663    2.0750 C.3     1  UNL1       -0.0586
      2 C          -4.3253    5.2020    2.2919 C.3     1  UNL1       -0.0215
      3 C          -3.4700    6.3008    2.9414 C.3     1  UNL1       -0.0586
      4 C          -3.6968    4.6922    1.0007 C.ar    1  UNL1       -0.0444
      5 C          -3.5456    5.5471   -0.1135 C.ar    1  UNL1       -0.0583
      6 C          -2.9679    5.0675   -1.3045 C.ar    1  UNL1       -0.0611
      7 C          -2.5369    3.7304   -1.3906 C.ar    1  UNL1       -0.0535
      8 C          -2.6806    2.8695   -0.2831 C.ar    1  UNL1       -0.0027
      9 C          -3.2586    3.3534    0.9094 C.ar    1  UNL1       -0.0501
     10 C          -2.2157    1.4306   -0.3741 C.3     1  UNL1       -0.0076
     11 N          -0.7782    1.3265   -0.0611 N.4     1  UNL1        0.2321
     12 C          -0.2571   -0.0548   -0.0940 C.3     1  UNL1       -0.0049
     13 C           1.2626   -0.0884    0.1782 C.3     1  UNL1        0.1133
     14 C           1.9189   -1.4853   -0.0125 C.3     1  UNL1        0.0583
     15 C           3.4592   -1.4634    0.1527 C.3     1  UNL1       -0.0065
     16 C           4.0691   -2.8547    0.1280 C.ar    1  UNL1       -0.0421
     17 C           4.1776   -3.6008    1.3190 C.ar    1  UNL1       -0.0583
     18 C           4.6919   -4.9105    1.2855 C.ar    1  UNL1       -0.0580
     19 C           5.0813   -5.4859    0.0608 C.ar    1  UNL1       -0.0199
     20 C           4.9704   -4.7462   -1.1414 C.ar    1  UNL1        0.1208
     21 C           4.4927   -3.4227   -1.0908 C.ar    1  UNL1       -0.0167
     22 O           5.2953   -5.2489   -2.3792 O.3     1  UNL1       -0.4920
     23 C           5.2063   -6.6565   -2.5535 C.3     1  UNL1        0.0897
     24 C           4.9990   -6.9537   -4.0453 C.3     1  UNL1       -0.0156
     25 C           3.7671   -6.2586   -4.6559 C.3     1  UNL1       -0.0156
     26 C           2.4235   -6.6901   -4.0373 C.3     1  UNL1        0.0897
     27 O           1.3291   -6.1444   -4.7672 O.3     1  UNL1       -0.4918
     28 C           1.0314   -4.8018   -4.6522 C.ar    1  UNL1        0.1247
     29 C           1.5065   -3.9569   -3.6180 C.ar    1  UNL1       -0.0076
     30 C           1.1497   -2.5901   -3.5909 C.ar    1  UNL1        0.0436
     31 C           0.3306   -2.0649   -4.6110 C.ar    1  UNL1       -0.0076
     32 C          -0.1695   -2.8904   -5.6352 C.ar    1  UNL1        0.1253
     33 C           0.1852   -4.2613   -5.6415 C.ar    1  UNL1        0.0218
     34 O          -0.9831   -2.2968   -6.5749 O.3     1  UNL1       -0.4844
     35 C          -1.5246   -3.1219   -7.5971 C.3     1  UNL1        0.1470
     36 C          -2.4227   -2.2882   -8.5096 C.2     1  UNL1        0.1673
     37 O          -2.5501   -1.0728   -8.3679 O.2     1  UNL1       -0.2941
     38 C          -3.1647   -3.0299   -9.6141 C.3     1  UNL1       -0.0026
     39 C           1.6542   -1.6830   -2.5101 C.2     1  UNL1        0.2446
     40 O           2.0910   -0.5648   -2.7805 O.2     1  UNL1       -0.2702
     41 N           1.5262   -2.1581   -1.2581 N.am    1  UNL1       -0.3055
     42 O           1.4491    0.3065    1.5246 O.3     1  UNL1       -0.3847
     43 H           1.7617    0.6411   -0.4606 H       1  UNL1        0.0666
     44 H           1.5212   -2.1284    0.7744 H       1  UNL1        0.0529
     45 H          -6.3850    4.8640    1.6595 H       1  UNL1        0.0235
     46 H          -5.8293    6.5145    1.3921 H       1  UNL1        0.0235
     47 H          -6.2316    5.9731    3.0160 H       1  UNL1        0.0235
     48 H          -4.3610    4.3682    2.9945 H       1  UNL1        0.0343
     49 H          -2.4597    5.9431    3.1426 H       1  UNL1        0.0235
     50 H          -3.9002    6.6212    3.8906 H       1  UNL1        0.0235
     51 H          -3.3914    7.1805    2.3021 H       1  UNL1        0.0235
     52 H          -3.8731    6.5749   -0.0605 H       1  UNL1        0.0620
     53 H          -2.8568    5.7262   -2.1534 H       1  UNL1        0.0618
     54 H          -2.0956    3.3696   -2.3082 H       1  UNL1        0.0622
     55 H          -3.3678    2.6920    1.7567 H       1  UNL1        0.0625
     56 H          -2.7901    0.8134    0.3182 H       1  UNL1        0.0866
     57 H          -2.4042    1.0482   -1.3783 H       1  UNL1        0.0866
     58 H          -0.7916   -0.6719    0.6298 H       1  UNL1        0.0840
     59 H          -0.4836   -0.4587   -1.0803 H       1  UNL1        0.0840
     60 H           3.9175   -0.8558   -0.6288 H       1  UNL1        0.0332
     61 H           3.7331   -0.9894    1.0958 H       1  UNL1        0.0332
     62 H           3.8597   -3.1749    2.2595 H       1  UNL1        0.0620
     63 H           4.7758   -5.4799    2.1993 H       1  UNL1        0.0619
     64 H           5.4641   -6.4954    0.0603 H       1  UNL1        0.0654
     65 H           4.4071   -2.8562   -2.0068 H       1  UNL1        0.0657
     66 H           6.1239   -7.1279   -2.1996 H       1  UNL1        0.0696
     67 H           4.3793   -7.0815   -1.9827 H       1  UNL1        0.0696
     68 H           5.8873   -6.6399   -4.5943 H       1  UNL1        0.0299
     69 H           4.9195   -8.0316   -4.1910 H       1  UNL1        0.0299
     70 H           3.8847   -5.1775   -4.5800 H       1  UNL1        0.0299
     71 H           3.7436   -6.4787   -5.7236 H       1  UNL1        0.0299
     72 H           2.3376   -7.7747   -4.1044 H       1  UNL1        0.0696
     73 H           2.3560   -6.4585   -2.9750 H       1  UNL1        0.0696
     74 H           2.1518   -4.3381   -2.8416 H       1  UNL1        0.0662
     75 H           0.0632   -1.0177   -4.6032 H       1  UNL1        0.0662
     76 H          -0.1726   -4.9254   -6.4139 H       1  UNL1        0.0691
     77 H          -0.7230   -3.5617   -8.1918 H       1  UNL1        0.0777
     78 H          -2.1146   -3.9288   -7.1607 H       1  UNL1        0.0777
     79 H          -2.6821   -3.9833   -9.8294 H       1  UNL1        0.0307
     80 H          -3.1777   -2.4352  -10.5278 H       1  UNL1        0.0307
     81 H          -4.1939   -3.2223   -9.3111 H       1  UNL1        0.0307
     82 H           1.1394   -3.0856   -1.1581 H       1  UNL1        0.1494
     83 H           1.0893   -0.3604    2.0900 H       1  UNL1        0.2101
     84 H          -0.2647    1.8804   -0.7316 H       1  UNL1        0.2018
     85 H          -0.6175    1.7079    0.8604 H       1  UNL1        0.2018
@<TRIPOS>BOND
     1     1     2    1
     2     1    45    1
     3     1    46    1
     4     1    47    1
     5     2     3    1
     6     2     4    1
     7     2    48    1
     8     3    49    1
     9     3    50    1
    10     3    51    1
    11     4     9   ar
    12     4     5   ar
    13     5     6   ar
    14     5    52    1
    15     6     7   ar
    16     6    53    1
    17     7     8   ar
    18     7    54    1
    19     8     9   ar
    20     8    10    1
    21     9    55    1
    22    10    11    1
    23    10    56    1
    24    10    57    1
    25    11    12    1
    26    11    84    1
    27    11    85    1
    28    12    13    1
    29    12    58    1
    30    12    59    1
    31    13    43    1
    32    13    14    1
    33    13    42    1
    34    14    44    1
    35    14    41    1
    36    14    15    1
    37    15    16    1
    38    15    60    1
    39    15    61    1
    40    16    21   ar
    41    16    17   ar
    42    17    18   ar
    43    17    62    1
    44    18    19   ar
    45    18    63    1
    46    19    20   ar
    47    19    64    1
    48    20    21   ar
    49    20    22    1
    50    21    65    1
    51    22    23    1
    52    23    24    1
    53    23    66    1
    54    23    67    1
    55    24    25    1
    56    24    68    1
    57    24    69    1
    58    25    26    1
    59    25    70    1
    60    25    71    1
    61    26    27    1
    62    26    72    1
    63    26    73    1
    64    27    28    1
    65    28    33   ar
    66    28    29   ar
    67    29    30   ar
    68    29    74    1
    69    30    31   ar
    70    30    39    1
    71    31    32   ar
    72    31    75    1
    73    32    33   ar
    74    32    34    1
    75    33    76    1
    76    34    35    1
    77    35    36    1
    78    35    77    1
    79    35    78    1
    80    36    37    2
    81    36    38    1
    82    38    79    1
    83    38    80    1
    84    38    81    1
    85    39    40    2
    86    39    41   am
    87    41    82    1
    88    42    83    1
