@<TRIPOS>MOLECULE
BACE_2.smi:1
 96 98 0 0 0
SMALL
GASTEIGER
****
Structure written by MMmdl.
@<TRIPOS>ATOM
      1 C          -3.1966    2.2799    2.6050 C.ar    1  UNL1       -0.0192
      2 C          -2.5562    1.7152    3.7231 C.ar    1  UNL1       -0.0548
      3 C          -1.2687    1.1555    3.5963 C.ar    1  UNL1       -0.0441
      4 C          -0.5738    0.5566    4.8127 C.3     1  UNL1       -0.0215
      5 C          -0.3415   -0.9530    4.6452 C.3     1  UNL1       -0.0586
      6 C           0.7302    1.2987    5.1436 C.3     1  UNL1       -0.0586
      7 C          -0.6382    1.1536    2.3338 C.ar    1  UNL1       -0.0463
      8 C          -1.2835    1.7007    1.2016 C.ar    1  UNL1        0.0420
      9 C          -2.5638    2.2936    1.3467 C.ar    1  UNL1        0.1298
     10 C          -0.6057    1.6661   -0.1633 C.3     1  UNL1        0.0105
     11 C          -1.5703    2.0988   -1.2780 C.3     1  UNL1        0.0341
     12 C          -2.4781    3.2685   -0.8505 C.3     1  UNL1        0.1105
     13 O          -3.2348    2.8857    0.2985 O.3     1  UNL1       -0.4855
     14 C          -1.6872    4.5572   -0.5391 C.3     1  UNL1       -0.0250
     15 C          -3.5111    3.5559   -1.9520 C.3     1  UNL1       -0.0250
     16 N          -0.0826    0.3149   -0.4656 N.4     1  UNL1        0.2345
     17 C           1.3903    0.2005   -0.4564 C.3     1  UNL1       -0.0047
     18 C           1.8340   -1.2775   -0.5292 C.3     1  UNL1        0.1130
     19 O           1.4792   -1.7311   -1.8197 O.3     1  UNL1       -0.3847
     20 C           3.3590   -1.5061   -0.3104 C.3     1  UNL1        0.0543
     21 N           3.8836   -0.7195    0.8105 N.am    1  UNL1       -0.3083
     22 C           3.5255   -0.8018    2.1043 C.2     1  UNL1        0.2336
     23 O           2.6747   -1.5859    2.5226 O.2     1  UNL1       -0.2738
     24 C           4.2245    0.1616    3.0733 C.3     1  UNL1        0.0991
     25 C           4.0874    1.6552    2.6931 C.3     1  UNL1       -0.0379
     26 C           3.7621   -2.9963   -0.1333 C.3     1  UNL1       -0.0293
     27 C           3.9073   -3.8358   -1.4271 C.3     1  UNL1       -0.0421
     28 C           4.0819   -5.3309   -1.1038 C.3     1  UNL1       -0.0624
     29 C           4.9768   -3.3177   -2.4279 C.3     1  UNL1       -0.0504
     30 C           6.2887   -2.7381   -1.8538 C.3     1  UNL1       -0.0528
     31 C           7.1741   -3.7303   -1.0790 C.3     1  UNL1       -0.0530
     32 C           8.4655   -3.1057   -0.5225 C.3     1  UNL1       -0.0531
     33 C           8.2005   -1.9590    0.4686 C.3     1  UNL1       -0.0530
     34 C           9.4269   -1.5802    1.3117 C.3     1  UNL1       -0.0526
     35 C           9.2467   -0.3196    2.1831 C.3     1  UNL1       -0.0448
     36 C           8.0998   -0.3929    3.2209 C.3     1  UNL1        0.0242
     37 C           6.7071    0.0405    2.7042 C.2     1  UNL1        0.2159
     38 O           6.6462    0.6764    1.6518 O.2     1  UNL1       -0.2756
     39 N           5.5974   -0.2810    3.4244 N.am    1  UNL1       -0.2932
     40 C           5.6919   -1.1900    4.5754 C.3     1  UNL1        0.0039
     41 H           0.2174    2.3817   -0.1284 H       1  UNL1        0.0906
     42 H           1.2727   -1.8551    0.2067 H       1  UNL1        0.0666
     43 H           3.8794   -1.0967   -1.1758 H       1  UNL1        0.0526
     44 H           3.6387    0.1009    3.9912 H       1  UNL1        0.0594
     45 H           2.9575   -3.7934   -1.9573 H       1  UNL1        0.0299
     46 H          -4.1775    2.7185    2.7171 H       1  UNL1        0.0654
     47 H          -3.0572    1.7216    4.6801 H       1  UNL1        0.0622
     48 H          -1.2373    0.6842    5.6691 H       1  UNL1        0.0343
     49 H          -1.2824   -1.4768    4.4743 H       1  UNL1        0.0235
     50 H           0.1155   -1.3806    5.5381 H       1  UNL1        0.0235
     51 H           0.3159   -1.1687    3.8035 H       1  UNL1        0.0235
     52 H           0.5457    2.3608    5.3079 H       1  UNL1        0.0235
     53 H           1.4586    1.2079    4.3391 H       1  UNL1        0.0235
     54 H           1.1893    0.9009    6.0489 H       1  UNL1        0.0235
     55 H           0.3451    0.7185    2.2399 H       1  UNL1        0.0626
     56 H          -1.0141    2.3432   -2.1842 H       1  UNL1        0.0362
     57 H          -2.2139    1.2552   -1.5344 H       1  UNL1        0.0362
     58 H          -1.1125    4.8850   -1.4057 H       1  UNL1        0.0268
     59 H          -0.9891    4.4273    0.2875 H       1  UNL1        0.0268
     60 H          -2.3596    5.3703   -0.2634 H       1  UNL1        0.0268
     61 H          -3.0261    3.8566   -2.8815 H       1  UNL1        0.0268
     62 H          -4.1898    4.3574   -1.6586 H       1  UNL1        0.0268
     63 H          -4.1187    2.6759   -2.1652 H       1  UNL1        0.0268
     64 H           1.8114    0.7762   -1.2820 H       1  UNL1        0.0840
     65 H           1.7468    0.6672    0.4599 H       1  UNL1        0.0840
     66 H           1.7198   -2.6426   -1.8936 H       1  UNL1        0.2101
     67 H           4.6012   -0.0465    0.5793 H       1  UNL1        0.1491
     68 H           3.0377    1.9488    2.6658 H       1  UNL1        0.0252
     69 H           4.4961    1.8898    1.7110 H       1  UNL1        0.0252
     70 H           4.5816    2.2934    3.4260 H       1  UNL1        0.0252
     71 H           4.7023   -3.0530    0.4155 H       1  UNL1        0.0286
     72 H           3.0348   -3.4778    0.5215 H       1  UNL1        0.0286
     73 H           4.9773   -5.5344   -0.5207 H       1  UNL1        0.0232
     74 H           4.1385   -5.9271   -2.0148 H       1  UNL1        0.0232
     75 H           3.2338   -5.7041   -0.5291 H       1  UNL1        0.0232
     76 H           5.2134   -4.0992   -3.1508 H       1  UNL1        0.0268
     77 H           4.5155   -2.5253   -3.0186 H       1  UNL1        0.0268
     78 H           6.8724   -2.3354   -2.6823 H       1  UNL1        0.0265
     79 H           6.0558   -1.8802   -1.2263 H       1  UNL1        0.0265
     80 H           6.6243   -4.1473   -0.2385 H       1  UNL1        0.0265
     81 H           7.4284   -4.5702   -1.7264 H       1  UNL1        0.0265
     82 H           9.0323   -3.8902   -0.0197 H       1  UNL1        0.0265
     83 H           9.0953   -2.7511   -1.3392 H       1  UNL1        0.0265
     84 H           7.8609   -1.0809   -0.0804 H       1  UNL1        0.0265
     85 H           7.3870   -2.2485    1.1342 H       1  UNL1        0.0265
     86 H           9.6991   -2.4226    1.9487 H       1  UNL1        0.0265
     87 H          10.2770   -1.4194    0.6477 H       1  UNL1        0.0265
     88 H          10.1785   -0.1630    2.7277 H       1  UNL1        0.0270
     89 H           9.1491    0.5600    1.5458 H       1  UNL1        0.0270
     90 H           8.0798   -1.4023    3.6297 H       1  UNL1        0.0358
     91 H           8.3414    0.2693    4.0529 H       1  UNL1        0.0358
     92 H           6.3807   -0.8010    5.3263 H       1  UNL1        0.0429
     93 H           6.0399   -2.1739    4.2584 H       1  UNL1        0.0429
     94 H           4.7378   -1.3498    5.0776 H       1  UNL1        0.0429
     95 H          -0.4615   -0.3263    0.2167 H       1  UNL1        0.2021
     96 H          -0.4093    0.0361   -1.3799 H       1  UNL1        0.2021
@<TRIPOS>BOND
     1     1     9   ar
     2     1     2   ar
     3     1    46    1
     4     2     3   ar
     5     2    47    1
     6     3     4    1
     7     3     7   ar
     8     4     5    1
     9     4     6    1
    10     4    48    1
    11     5    49    1
    12     5    50    1
    13     5    51    1
    14     6    52    1
    15     6    53    1
    16     6    54    1
    17     7     8   ar
    18     7    55    1
    19     8     9   ar
    20     8    10    1
    21     9    13    1
    22    10    41    1
    23    10    11    1
    24    10    16    1
    25    11    12    1
    26    11    56    1
    27    11    57    1
    28    12    13    1
    29    12    14    1
    30    12    15    1
    31    14    58    1
    32    14    59    1
    33    14    60    1
    34    15    61    1
    35    15    62    1
    36    15    63    1
    37    16    17    1
    38    16    95    1
    39    16    96    1
    40    17    18    1
    41    17    64    1
    42    17    65    1
    43    18    42    1
    44    18    19    1
    45    18    20    1
    46    19    66    1
    47    20    43    1
    48    20    21    1
    49    20    26    1
    50    21    22   am
    51    21    67    1
    52    22    23    2
    53    22    24    1
    54    24    44    1
    55    24    39    1
    56    24    25    1
    57    25    68    1
    58    25    69    1
    59    25    70    1
    60    26    27    1
    61    26    71    1
    62    26    72    1
    63    27    45    1
    64    27    28    1
    65    27    29    1
    66    28    73    1
    67    28    74    1
    68    28    75    1
    69    29    30    1
    70    29    76    1
    71    29    77    1
    72    30    31    1
    73    30    78    1
    74    30    79    1
    75    31    32    1
    76    31    80    1
    77    31    81    1
    78    32    33    1
    79    32    82    1
    80    32    83    1
    81    33    34    1
    82    33    84    1
    83    33    85    1
    84    34    35    1
    85    34    86    1
    86    34    87    1
    87    35    36    1
    88    35    88    1
    89    35    89    1
    90    36    37    1
    91    36    90    1
    92    36    91    1
    93    37    38    2
    94    37    39   am
    95    39    40    1
    96    40    92    1
    97    40    93    1
    98    40    94    1
