@<TRIPOS>MOLECULE
BACE_17.smi:1
 62 64 0 0 0
SMALL
GASTEIGER
****
Structure written by MMmdl.
@<TRIPOS>ATOM
      1 C           1.4425    7.6231   -1.2939 C.3     1  UNL1        0.0031
      2 N           0.4542    6.5465   -1.3781 N.am    1  UNL1       -0.3036
      3 C           0.8706    5.3868   -2.1750 C.3     1  UNL1        0.0031
      4 C          -0.7748    6.6976   -0.8255 C.2     1  UNL1        0.2463
      5 O          -1.1612    7.7562   -0.3289 O.2     1  UNL1       -0.2700
      6 C          -1.7048    5.5183   -0.8310 C.ar    1  UNL1        0.0410
      7 C          -2.9837    5.6375   -1.4127 C.ar    1  UNL1       -0.0078
      8 C          -1.3212    4.2938   -0.2450 C.ar    1  UNL1       -0.0373
      9 C          -2.1946    3.1867   -0.2752 C.ar    1  UNL1        0.0409
     10 C          -3.4698    3.3181   -0.8620 C.ar    1  UNL1       -0.0078
     11 C          -3.8617    4.5365   -1.4669 C.ar    1  UNL1        0.1219
     12 C          -1.7645    1.8559    0.2577 C.2     1  UNL1        0.2445
     13 O          -2.5488    1.1189    0.8550 O.2     1  UNL1       -0.2702
     14 N          -0.5247    1.4973   -0.1079 N.am    1  UNL1       -0.3056
     15 C           0.0116    0.1388   -0.0626 C.3     1  UNL1        0.0554
     16 C           1.5613    0.2108   -0.0427 C.3     1  UNL1        0.0968
     17 O           1.9518    0.9397    1.1074 O.3     1  UNL1       -0.3877
     18 C           2.2556   -1.1630    0.0600 C.3     1  UNL1        0.0719
     19 O           3.6451   -1.0211   -0.1524 O.3     1  UNL1       -0.3924
     20 C          -0.5762   -0.6711   -1.2529 C.3     1  UNL1       -0.0066
     21 C          -0.3056   -0.0771   -2.6319 C.ar    1  UNL1       -0.0421
     22 C          -1.1599    0.9126   -3.1722 C.ar    1  UNL1       -0.0167
     23 C          -0.9136    1.4614   -4.4555 C.ar    1  UNL1        0.1208
     24 C           0.1908    0.9880   -5.1927 C.ar    1  UNL1       -0.0199
     25 C           1.0430    0.0012   -4.6638 C.ar    1  UNL1       -0.0580
     26 C           0.7959   -0.5302   -3.3857 C.ar    1  UNL1       -0.0583
     27 O          -1.6803    2.4386   -5.0566 O.3     1  UNL1       -0.4920
     28 C          -2.6718    3.1349   -4.3066 C.3     1  UNL1        0.0897
     29 C          -4.0154    2.3771   -4.2829 C.3     1  UNL1       -0.0156
     30 C          -5.2705    3.2651   -4.1284 C.3     1  UNL1       -0.0156
     31 C          -5.7335    3.6038   -2.6951 C.3     1  UNL1        0.0897
     32 O          -5.0501    4.7237   -2.1358 O.3     1  UNL1       -0.4919
     33 H          -0.3134   -0.3382    0.8642 H       1  UNL1        0.0528
     34 H           1.9153    0.7403   -0.9287 H       1  UNL1        0.0635
     35 H           1.4623    8.0706   -0.2988 H       1  UNL1        0.0428
     36 H           1.2113    8.4066   -2.0165 H       1  UNL1        0.0428
     37 H           2.4517    7.2628   -1.4978 H       1  UNL1        0.0428
     38 H           1.2852    4.6110   -1.5309 H       1  UNL1        0.0428
     39 H           1.6373    5.6578   -2.9017 H       1  UNL1        0.0428
     40 H           0.0456    4.9580   -2.7460 H       1  UNL1        0.0428
     41 H          -3.2824    6.5721   -1.8656 H       1  UNL1        0.0662
     42 H          -0.3464    4.2005    0.2128 H       1  UNL1        0.0633
     43 H          -4.1119    2.4523   -0.8725 H       1  UNL1        0.0662
     44 H           0.0345    2.1823   -0.5951 H       1  UNL1        0.1494
     45 H           2.8961    0.9779    1.1264 H       1  UNL1        0.2100
     46 H           2.0714   -1.6312    1.0278 H       1  UNL1        0.0583
     47 H           1.8951   -1.8518   -0.7012 H       1  UNL1        0.0583
     48 H           4.0476   -1.8737   -0.0872 H       1  UNL1        0.2095
     49 H          -0.2276   -1.7027   -1.2311 H       1  UNL1        0.0332
     50 H          -1.6576   -0.7502   -1.1339 H       1  UNL1        0.0332
     51 H          -2.0023    1.2400   -2.5847 H       1  UNL1        0.0657
     52 H           0.3907    1.3920   -6.1744 H       1  UNL1        0.0654
     53 H           1.8871   -0.3482   -5.2400 H       1  UNL1        0.0619
     54 H           1.4539   -1.2889   -2.9889 H       1  UNL1        0.0620
     55 H          -2.3042    3.3802   -3.3134 H       1  UNL1        0.0696
     56 H          -2.8105    4.0910   -4.8116 H       1  UNL1        0.0696
     57 H          -4.1091    1.8677   -5.2428 H       1  UNL1        0.0299
     58 H          -4.0128    1.5855   -3.5346 H       1  UNL1        0.0299
     59 H          -5.1727    4.1774   -4.7175 H       1  UNL1        0.0299
     60 H          -6.0924    2.7180   -4.5919 H       1  UNL1        0.0299
     61 H          -6.7740    3.9225   -2.7612 H       1  UNL1        0.0696
     62 H          -5.7694    2.7223   -2.0592 H       1  UNL1        0.0696
@<TRIPOS>BOND
     1     1     2    1
     2     1    35    1
     3     1    36    1
     4     1    37    1
     5     2     3    1
     6     2     4   am
     7     3    38    1
     8     3    39    1
     9     3    40    1
    10     4     5    2
    11     4     6    1
    12     6     7   ar
    13     6     8   ar
    14     7    11   ar
    15     7    41    1
    16     8     9   ar
    17     8    42    1
    18     9    10   ar
    19     9    12    1
    20    10    11   ar
    21    10    43    1
    22    11    32    1
    23    12    13    2
    24    12    14   am
    25    14    15    1
    26    14    44    1
    27    15    33    1
    28    15    16    1
    29    15    20    1
    30    16    34    1
    31    16    17    1
    32    16    18    1
    33    17    45    1
    34    18    19    1
    35    18    46    1
    36    18    47    1
    37    19    48    1
    38    20    21    1
    39    20    49    1
    40    20    50    1
    41    21    26   ar
    42    21    22   ar
    43    22    23   ar
    44    22    51    1
    45    23    24   ar
    46    23    27    1
    47    24    25   ar
    48    24    52    1
    49    25    26   ar
    50    25    53    1
    51    26    54    1
    52    27    28    1
    53    28    29    1
    54    28    55    1
    55    28    56    1
    56    29    30    1
    57    29    57    1
    58    29    58    1
    59    30    31    1
    60    30    59    1
    61    30    60    1
    62    31    32    1
    63    31    61    1
    64    31    62    1
