@<TRIPOS>MOLECULE
BACE_1.smi:1
 87 88 0 0 0
SMALL
GASTEIGER
****
Structure written by MMmdl.
@<TRIPOS>ATOM
      1 C           5.4442    3.1031    0.4409 C.3     1  UNL1       -0.0652
      2 C           3.9735    2.9736    0.8501 C.3     1  UNL1       -0.0545
      3 C           3.2396    4.3262    0.8740 C.3     1  UNL1       -0.0376
      4 C           1.7989    4.2409    1.4059 C.3     1  UNL1        0.0116
      5 N           0.9775    3.3637    0.5784 N.am    1  UNL1       -0.3151
      6 C           0.0864    2.4716    1.0378 C.2     1  UNL1        0.2159
      7 O          -0.1920    2.3425    2.2303 O.2     1  UNL1       -0.2755
      8 C          -0.5704    1.5611   -0.0114 C.3     1  UNL1        0.0351
      9 C          -2.1032    1.6199    0.1073 C.3     1  UNL1       -0.0540
     10 C          -0.0594    0.1037    0.1075 C.3     1  UNL1       -0.0143
     11 C           1.4656   -0.0714   -0.0992 C.3     1  UNL1        0.0742
     12 C           1.9814   -1.5231    0.0577 C.3     1  UNL1        0.0496
     13 C           1.6801   -2.1325    1.4528 C.3     1  UNL1       -0.0295
     14 C           2.2428   -3.5576    1.6943 C.3     1  UNL1       -0.0421
     15 C           2.3526   -3.8610    3.2056 C.3     1  UNL1       -0.0504
     16 C           3.1151   -5.1531    3.5753 C.3     1  UNL1       -0.0528
     17 C           4.5351   -5.2928    2.9867 C.3     1  UNL1       -0.0516
     18 C           5.5000   -4.1570    3.3686 C.3     1  UNL1       -0.0371
     19 C           6.9019   -4.3449    2.7522 C.3     1  UNL1        0.0150
     20 N           7.7814   -3.1880    2.9951 N.am    1  UNL1       -0.2978
     21 C           8.1136   -2.2327    2.0832 C.2     1  UNL1        0.2467
     22 O           8.9118   -1.3276    2.3299 O.2     1  UNL1       -0.2700
     23 C           7.5361   -2.3007    0.6963 C.ar    1  UNL1        0.0411
     24 C           6.1483   -2.1858    0.4798 C.ar    1  UNL1       -0.0373
     25 C           5.6118   -2.2406   -0.8263 C.ar    1  UNL1        0.0409
     26 C           6.4882   -2.3970   -1.9211 C.ar    1  UNL1       -0.0078
     27 C           7.8827   -2.4778   -1.7313 C.ar    1  UNL1        0.1219
     28 C           8.4000   -2.4230   -0.4126 C.ar    1  UNL1       -0.0078
     29 O           8.6586   -2.6130   -2.8630 O.3     1  UNL1       -0.4922
     30 C          10.0704   -2.6712   -2.7103 C.3     1  UNL1        0.0868
     31 C          10.7087   -2.8112   -4.0945 C.3     1  UNL1       -0.0307
     32 C           4.1256   -2.2027   -1.0443 C.2     1  UNL1        0.2445
     33 O           3.6081   -2.7723   -2.0052 O.2     1  UNL1       -0.2702
     34 N           3.4334   -1.5172   -0.1203 N.am    1  UNL1       -0.3060
     35 C           8.4217   -3.1999    4.3199 C.3     1  UNL1        0.0121
     36 C           9.8542   -3.7552    4.2653 C.3     1  UNL1       -0.0493
     37 C           1.4175   -4.6187    0.9456 C.3     1  UNL1       -0.0624
     38 O           1.7633    0.3653   -1.4135 O.3     1  UNL1       -0.3899
     39 H          -0.3153    1.9419   -1.0018 H       1  UNL1        0.0392
     40 H           2.0060    0.5587    0.6065 H       1  UNL1        0.0612
     41 H           1.5029   -2.1429   -0.7021 H       1  UNL1        0.0524
     42 H           3.2553   -3.5955    1.3020 H       1  UNL1        0.0299
     43 H           5.9309    2.1275    0.4320 H       1  UNL1        0.0230
     44 H           5.9920    3.7422    1.1339 H       1  UNL1        0.0230
     45 H           5.5386    3.5307   -0.5576 H       1  UNL1        0.0230
     46 H           3.4784    2.2976    0.1536 H       1  UNL1        0.0263
     47 H           3.9145    2.5053    1.8333 H       1  UNL1        0.0263
     48 H           3.7975    5.0252    1.4982 H       1  UNL1        0.0280
     49 H           3.2339    4.7544   -0.1292 H       1  UNL1        0.0280
     50 H           1.8186    3.9030    2.4434 H       1  UNL1        0.0462
     51 H           1.3466    5.2330    1.4104 H       1  UNL1        0.0462
     52 H           1.1388    3.3979   -0.4179 H       1  UNL1        0.1487
     53 H          -2.4676    2.6458    0.0409 H       1  UNL1        0.0237
     54 H          -2.4505    1.2020    1.0531 H       1  UNL1        0.0237
     55 H          -2.5768    1.0543   -0.6953 H       1  UNL1        0.0237
     56 H          -0.3449   -0.2680    1.0908 H       1  UNL1        0.0298
     57 H          -0.5895   -0.5237   -0.6105 H       1  UNL1        0.0298
     58 H           2.0891   -1.4540    2.2028 H       1  UNL1        0.0286
     59 H           0.6067   -2.1592    1.6366 H       1  UNL1        0.0286
     60 H           2.8448   -3.0253    3.7039 H       1  UNL1        0.0268
     61 H           1.3522   -3.9036    3.6377 H       1  UNL1        0.0268
     62 H           3.1793   -5.2156    4.6620 H       1  UNL1        0.0265
     63 H           2.5251   -6.0177    3.2715 H       1  UNL1        0.0265
     64 H           4.9565   -6.2393    3.3268 H       1  UNL1        0.0266
     65 H           4.4783   -5.3769    1.9013 H       1  UNL1        0.0266
     66 H           5.0822   -3.2020    3.0609 H       1  UNL1        0.0280
     67 H           5.5777   -4.1067    4.4548 H       1  UNL1        0.0280
     68 H           7.3640   -5.2365    3.1789 H       1  UNL1        0.0464
     69 H           6.8172   -4.5677    1.6888 H       1  UNL1        0.0464
     70 H           5.4941   -2.0543    1.3262 H       1  UNL1        0.0633
     71 H           6.0931   -2.4520   -2.9256 H       1  UNL1        0.0662
     72 H           9.4622   -2.4848   -0.2288 H       1  UNL1        0.0662
     73 H          10.4375   -1.7635   -2.2290 H       1  UNL1        0.0694
     74 H          10.3523   -3.5247   -2.0918 H       1  UNL1        0.0694
     75 H          11.7959   -2.8489   -4.0204 H       1  UNL1        0.0262
     76 H          10.4461   -1.9685   -4.7344 H       1  UNL1        0.0262
     77 H          10.3751   -3.7244   -4.5880 H       1  UNL1        0.0262
     78 H           3.9655   -1.0450    0.5962 H       1  UNL1        0.1494
     79 H           8.4286   -2.1937    4.7424 H       1  UNL1        0.0462
     80 H           7.8377   -3.7990    5.0194 H       1  UNL1        0.0462
     81 H          10.2940   -3.7836    5.2621 H       1  UNL1        0.0245
     82 H          10.5031   -3.1425    3.6392 H       1  UNL1        0.0245
     83 H           9.8683   -4.7705    3.8684 H       1  UNL1        0.0245
     84 H           0.3927   -4.6588    1.3158 H       1  UNL1        0.0232
     85 H           1.8509   -5.6125    1.0544 H       1  UNL1        0.0232
     86 H           1.3771   -4.4078   -0.1228 H       1  UNL1        0.0232
     87 H           1.3494   -0.2230   -2.0267 H       1  UNL1        0.2099
@<TRIPOS>BOND
     1     1     2    1
     2     1    43    1
     3     1    44    1
     4     1    45    1
     5     2     3    1
     6     2    46    1
     7     2    47    1
     8     3     4    1
     9     3    48    1
    10     3    49    1
    11     4     5    1
    12     4    50    1
    13     4    51    1
    14     5     6   am
    15     5    52    1
    16     6     7    2
    17     6     8    1
    18     8    39    1
    19     8     9    1
    20     8    10    1
    21     9    53    1
    22     9    54    1
    23     9    55    1
    24    10    11    1
    25    10    56    1
    26    10    57    1
    27    11    40    1
    28    11    12    1
    29    11    38    1
    30    12    41    1
    31    12    34    1
    32    12    13    1
    33    13    14    1
    34    13    58    1
    35    13    59    1
    36    14    42    1
    37    14    15    1
    38    14    37    1
    39    15    16    1
    40    15    60    1
    41    15    61    1
    42    16    17    1
    43    16    62    1
    44    16    63    1
    45    17    18    1
    46    17    64    1
    47    17    65    1
    48    18    19    1
    49    18    66    1
    50    18    67    1
    51    19    20    1
    52    19    68    1
    53    19    69    1
    54    20    21   am
    55    20    35    1
    56    21    22    2
    57    21    23    1
    58    23    28   ar
    59    23    24   ar
    60    24    25   ar
    61    24    70    1
    62    25    26   ar
    63    25    32    1
    64    26    27   ar
    65    26    71    1
    66    27    28   ar
    67    27    29    1
    68    28    72    1
    69    29    30    1
    70    30    31    1
    71    30    73    1
    72    30    74    1
    73    31    75    1
    74    31    76    1
    75    31    77    1
    76    32    33    2
    77    32    34   am
    78    34    78    1
    79    35    36    1
    80    35    79    1
    81    35    80    1
    82    36    81    1
    83    36    82    1
    84    36    83    1
    85    37    84    1
    86    37    85    1
    87    37    86    1
    88    38    87    1
