@<TRIPOS>MOLECULE
BACE_5.smi:1
 79 80 0 0 0
SMALL
GASTEIGER
****
Structure written by MMmdl.
@<TRIPOS>ATOM
      1 C          -4.9178    0.4080   -3.8403 C.3     1  UNL1       -0.0649
      2 C          -3.4494    0.6468   -3.4722 C.3     1  UNL1       -0.0504
      3 C          -3.2774    1.7387   -2.4056 C.3     1  UNL1       -0.0089
      4 C          -1.8337    1.9520   -2.0458 C.ar    1  UNL1        0.0631
      5 C          -1.1299    1.4519   -0.9112 C.ar    1  UNL1       -0.0168
      6 C           0.1432    1.9233   -1.0681 C.ar    1  UNL1        0.0501
      7 N           0.1410    2.6529   -2.2346 N.ar    1  UNL1       -0.2801
      8 N          -1.0600    2.6773   -2.8413 N.ar    1  UNL1       -0.1786
      9 C           1.3713    1.7523   -0.2354 C.3     1  UNL1        0.0380
     10 N           1.7332    0.3516   -0.0418 N.3     1  UNL1       -0.3081
     11 C           2.2992   -0.2961   -1.2271 C.3     1  UNL1        0.0240
     12 C           2.7448   -1.7484   -0.9408 C.3     1  UNL1        0.0859
     13 C           4.1302   -1.8747   -0.2490 C.3     1  UNL1        0.0505
     14 C           4.6429   -3.3237    0.0087 C.3     1  UNL1       -0.0295
     15 C           3.7510   -4.3548    0.7578 C.3     1  UNL1       -0.0421
     16 C           3.1477   -3.8007    2.0605 C.3     1  UNL1       -0.0504
     17 C           2.3816   -4.8203    2.9278 C.3     1  UNL1       -0.0528
     18 C           1.9926   -4.2626    4.3102 C.3     1  UNL1       -0.0530
     19 C           0.9809   -3.1032    4.2494 C.3     1  UNL1       -0.0510
     20 C           0.8538   -2.3325    5.5742 C.3     1  UNL1       -0.0294
     21 C           0.1917   -0.9561    5.3816 C.3     1  UNL1        0.0483
     22 O           0.9582   -0.1578    4.4874 O.3     1  UNL1       -0.3706
     23 C           2.0181    0.5630    5.0980 C.3     1  UNL1        0.1238
     24 C           2.9386    1.0985    3.9898 C.2     1  UNL1        0.2417
     25 O           2.7007    2.2244    3.5514 O.2     1  UNL1       -0.2731
     26 N           3.9513    0.3233    3.5156 N.am    1  UNL1       -0.2914
     27 C           4.8635    0.8022    2.4506 C.3     1  UNL1        0.0991
     28 C           5.1397   -0.1638    1.2777 C.2     1  UNL1        0.2336
     29 O           6.1907   -0.0700    0.6437 O.2     1  UNL1       -0.2738
     30 N           4.1803   -1.0530    0.9651 N.am    1  UNL1       -0.3084
     31 C           6.1034    1.4807    3.0641 C.3     1  UNL1       -0.0379
     32 C           4.3029   -0.9482    4.1590 C.3     1  UNL1        0.0040
     33 C           2.7106   -5.0374   -0.1523 C.3     1  UNL1       -0.0624
     34 O           2.8288   -2.3941   -2.1954 O.3     1  UNL1       -0.3887
     35 H           0.9420    3.1282   -2.6255 H       1  UNL1        0.1886
     36 H           1.9689   -2.2347   -0.3530 H       1  UNL1        0.0624
     37 H           4.8420   -1.4405   -0.9542 H       1  UNL1        0.0524
     38 H           4.4327   -5.1541    1.0520 H       1  UNL1        0.0299
     39 H           4.3568    1.6048    1.9125 H       1  UNL1        0.0594
     40 H          -5.0061   -0.3697   -4.5992 H       1  UNL1        0.0230
     41 H          -5.3761    1.3141   -4.2375 H       1  UNL1        0.0230
     42 H          -5.4958    0.0917   -2.9715 H       1  UNL1        0.0230
     43 H          -3.0133   -0.2863   -3.1132 H       1  UNL1        0.0266
     44 H          -2.8955    0.9210   -4.3710 H       1  UNL1        0.0266
     45 H          -3.7126    2.6727   -2.7636 H       1  UNL1        0.0329
     46 H          -3.8411    1.4672   -1.5123 H       1  UNL1        0.0329
     47 H          -1.5021    0.8349   -0.1068 H       1  UNL1        0.0654
     48 H           1.1899    2.2070    0.7388 H       1  UNL1        0.0489
     49 H           2.2076    2.3019   -0.6691 H       1  UNL1        0.0489
     50 H           2.3770    0.2715    0.7384 H       1  UNL1        0.1224
     51 H           1.5462   -0.2991   -2.0167 H       1  UNL1        0.0450
     52 H           3.1426    0.2794   -1.6111 H       1  UNL1        0.0450
     53 H           4.9311   -3.7599   -0.9483 H       1  UNL1        0.0286
     54 H           5.5830   -3.2406    0.5563 H       1  UNL1        0.0286
     55 H           3.9600   -3.3834    2.6543 H       1  UNL1        0.0268
     56 H           2.4859   -2.9753    1.8095 H       1  UNL1        0.0268
     57 H           1.4847   -5.1593    2.4086 H       1  UNL1        0.0265
     58 H           3.0054   -5.7030    3.0725 H       1  UNL1        0.0265
     59 H           1.5773   -5.0644    4.9216 H       1  UNL1        0.0265
     60 H           2.8999   -3.9375    4.8202 H       1  UNL1        0.0265
     61 H           1.2859   -2.3981    3.4807 H       1  UNL1        0.0266
     62 H           0.0042   -3.4732    3.9359 H       1  UNL1        0.0266
     63 H           0.2784   -2.9253    6.2857 H       1  UNL1        0.0287
     64 H           1.8378   -2.1986    6.0230 H       1  UNL1        0.0287
     65 H          -0.7994   -1.0921    4.9481 H       1  UNL1        0.0560
     66 H           0.0475   -0.4471    6.3360 H       1  UNL1        0.0560
     67 H           1.5975    1.4016    5.6549 H       1  UNL1        0.0657
     68 H           2.5636   -0.0361    5.8253 H       1  UNL1        0.0657
     69 H           3.3639   -1.0853    1.5587 H       1  UNL1        0.1491
     70 H           6.7414    1.9244    2.2991 H       1  UNL1        0.0252
     71 H           6.7063    0.7679    3.6276 H       1  UNL1        0.0252
     72 H           5.8149    2.2821    3.7450 H       1  UNL1        0.0252
     73 H           4.6074   -0.7839    5.1932 H       1  UNL1        0.0429
     74 H           5.1371   -1.4525    3.6720 H       1  UNL1        0.0429
     75 H           3.4575   -1.6324    4.1525 H       1  UNL1        0.0429
     76 H           1.8525   -4.4029   -0.3618 H       1  UNL1        0.0232
     77 H           2.3267   -5.9468    0.3100 H       1  UNL1        0.0232
     78 H           3.1501   -5.3307   -1.1058 H       1  UNL1        0.0232
     79 H           3.4835   -1.9548   -2.7162 H       1  UNL1        0.2099
@<TRIPOS>BOND
     1     1     2    1
     2     1    40    1
     3     1    41    1
     4     1    42    1
     5     2     3    1
     6     2    43    1
     7     2    44    1
     8     3    45    1
     9     3    46    1
    10     3     4    1
    11     4     8   ar
    12     4     5   ar
    13     5     6   ar
    14     5    47    1
    15     6     7   ar
    16     6     9    1
    17     7     8   ar
    18     7    35    1
    19     9    10    1
    20     9    48    1
    21     9    49    1
    22    10    11    1
    23    10    50    1
    24    11    12    1
    25    11    51    1
    26    11    52    1
    27    12    36    1
    28    12    13    1
    29    12    34    1
    30    13    37    1
    31    13    30    1
    32    13    14    1
    33    14    15    1
    34    14    53    1
    35    14    54    1
    36    15    38    1
    37    15    16    1
    38    15    33    1
    39    16    17    1
    40    16    55    1
    41    16    56    1
    42    17    18    1
    43    17    57    1
    44    17    58    1
    45    18    19    1
    46    18    59    1
    47    18    60    1
    48    19    20    1
    49    19    61    1
    50    19    62    1
    51    20    21    1
    52    20    63    1
    53    20    64    1
    54    21    22    1
    55    21    65    1
    56    21    66    1
    57    22    23    1
    58    23    24    1
    59    23    67    1
    60    23    68    1
    61    24    25    2
    62    24    26   am
    63    26    27    1
    64    26    32    1
    65    27    39    1
    66    27    28    1
    67    27    31    1
    68    28    29    2
    69    28    30   am
    70    30    69    1
    71    31    70    1
    72    31    71    1
    73    31    72    1
    74    32    73    1
    75    32    74    1
    76    32    75    1
    77    33    76    1
    78    33    77    1
    79    33    78    1
    80    34    79    1
