@<TRIPOS>MOLECULE
BACE_12.smi:1
 78 81 0 0 0
SMALL
GASTEIGER
****
Structure written by MMmdl.
@<TRIPOS>ATOM
      1 C          -4.1818    0.2596    3.4592 C.3     1  UNL1       -0.0586
      2 C          -4.5782   -0.3735    2.1160 C.3     1  UNL1       -0.0215
      3 C          -4.2204   -1.8673    2.0683 C.3     1  UNL1       -0.0586
      4 C          -3.9787    0.3823    0.9369 C.ar    1  UNL1       -0.0445
      5 C          -4.8209    0.9830   -0.0233 C.ar    1  UNL1       -0.0583
      6 C          -4.2683    1.6793   -1.1155 C.ar    1  UNL1       -0.0612
      7 C          -2.8710    1.7767   -1.2580 C.ar    1  UNL1       -0.0573
      8 C          -2.0198    1.1759   -0.3082 C.ar    1  UNL1       -0.0333
      9 C          -2.5784    0.4866    0.7897 C.ar    1  UNL1       -0.0539
     10 C          -0.5138    1.2867   -0.4577 C.3     1  UNL1        0.0213
     11 N           0.1542   -0.0002   -0.2940 N.3     1  UNL1       -0.3095
     12 C           1.6051    0.1051   -0.1840 C.3     1  UNL1        0.0240
     13 C           2.2448   -1.2732    0.0642 C.3     1  UNL1        0.0862
     14 C           1.8183   -1.9242    1.4107 C.3     1  UNL1        0.0545
     15 C           2.2963   -1.1612    2.6702 C.3     1  UNL1       -0.0067
     16 C           1.8893   -1.8253    3.9759 C.ar    1  UNL1       -0.0453
     17 C           0.5399   -1.7955    4.3850 C.ar    1  UNL1       -0.0585
     18 C           0.1543   -2.4051    5.5933 C.ar    1  UNL1       -0.0612
     19 C           1.1164   -3.0438    6.3985 C.ar    1  UNL1       -0.0586
     20 C           2.4689   -3.0797    5.9983 C.ar    1  UNL1       -0.0471
     21 C           2.8519   -2.4680    4.7853 C.ar    1  UNL1       -0.0553
     22 C           3.4977   -3.7755    6.8765 C.3     1  UNL1       -0.0276
     23 C           3.4103   -5.3092    6.7891 C.3     1  UNL1       -0.0476
     24 C           4.0087   -5.8907    5.4959 C.3     1  UNL1       -0.0371
     25 C           3.2719   -7.1618    5.0374 C.3     1  UNL1        0.0104
     26 N           3.8110   -7.7238    3.8060 N.pl3   1  UNL1       -0.3289
     27 C           3.3484   -7.2937    2.5534 C.ar    1  UNL1        0.1232
     28 C           2.7014   -6.0514    2.3603 C.ar    1  UNL1       -0.0095
     29 C           2.3103   -5.6781    1.0571 C.ar    1  UNL1        0.0450
     30 C           2.5261   -6.5895    0.0039 C.ar    1  UNL1        0.0122
     31 C           3.1629   -7.8134    0.2870 C.ar    1  UNL1        0.2168
     32 N           3.5751   -8.1509    1.5349 N.ar    1  UNL1       -0.1981
     33 O           3.3816   -8.6968   -0.7499 O.3     1  UNL1       -0.4796
     34 C           4.0223   -9.9342   -0.4600 C.3     1  UNL1        0.0804
     35 C           1.6723   -4.3474    0.8001 C.2     1  UNL1        0.2446
     36 O           0.7554   -4.2236   -0.0119 O.2     1  UNL1       -0.2702
     37 N           2.2263   -3.3263    1.4739 N.am    1  UNL1       -0.3057
     38 O           3.6479   -1.1016    0.0342 O.3     1  UNL1       -0.3887
     39 H           1.9790   -1.9242   -0.7694 H       1  UNL1        0.0624
     40 H           0.7275   -1.9342    1.4469 H       1  UNL1        0.0527
     41 H          -4.4795    1.3078    3.5006 H       1  UNL1        0.0235
     42 H          -3.1053    0.2115    3.6261 H       1  UNL1        0.0235
     43 H          -4.6660   -0.2526    4.2909 H       1  UNL1        0.0235
     44 H          -5.6638   -0.3014    2.0372 H       1  UNL1        0.0343
     45 H          -4.5554   -2.3203    1.1347 H       1  UNL1        0.0235
     46 H          -4.6957   -2.4100    2.8859 H       1  UNL1        0.0235
     47 H          -3.1448   -2.0271    2.1489 H       1  UNL1        0.0235
     48 H          -5.8946    0.9133    0.0724 H       1  UNL1        0.0620
     49 H          -4.9177    2.1388   -1.8461 H       1  UNL1        0.0618
     50 H          -2.4558    2.3130   -2.0989 H       1  UNL1        0.0621
     51 H          -1.9268    0.0315    1.5215 H       1  UNL1        0.0623
     52 H          -0.2657    1.7180   -1.4282 H       1  UNL1        0.0473
     53 H          -0.1621    1.9903    0.2979 H       1  UNL1        0.0473
     54 H           2.0070    0.5308   -1.1046 H       1  UNL1        0.0450
     55 H           1.8752    0.7963    0.6146 H       1  UNL1        0.0450
     56 H           3.3813   -1.0533    2.6581 H       1  UNL1        0.0332
     57 H           1.8930   -0.1487    2.6718 H       1  UNL1        0.0332
     58 H          -0.2024   -1.3050    3.7720 H       1  UNL1        0.0620
     59 H          -0.8801   -2.3818    5.9032 H       1  UNL1        0.0618
     60 H           0.8127   -3.5087    7.3250 H       1  UNL1        0.0620
     61 H           3.8861   -2.4942    4.4744 H       1  UNL1        0.0623
     62 H           4.5031   -3.4362    6.6236 H       1  UNL1        0.0313
     63 H           3.3237   -3.4623    7.9066 H       1  UNL1        0.0313
     64 H           3.9387   -5.7497    7.6353 H       1  UNL1        0.0269
     65 H           2.3690   -5.6134    6.9038 H       1  UNL1        0.0269
     66 H           3.9831   -5.1397    4.7094 H       1  UNL1        0.0280
     67 H           5.0666   -6.1060    5.6513 H       1  UNL1        0.0280
     68 H           3.3485   -7.9240    5.8129 H       1  UNL1        0.0461
     69 H           2.2070   -6.9625    4.9115 H       1  UNL1        0.0461
     70 H           4.2234   -8.6441    3.8593 H       1  UNL1        0.1475
     71 H           2.5080   -5.3812    3.1827 H       1  UNL1        0.0659
     72 H           2.2272   -6.3523   -1.0070 H       1  UNL1        0.0678
     73 H           4.1146  -10.5152   -1.3775 H       1  UNL1        0.0660
     74 H           3.4436  -10.5272    0.2497 H       1  UNL1        0.0660
     75 H           5.0269   -9.7804   -0.0637 H       1  UNL1        0.0660
     76 H           2.9869   -3.5439    2.1013 H       1  UNL1        0.1494
     77 H           4.0539   -1.9510    0.1165 H       1  UNL1        0.2099
     78 H          -0.0682   -0.5943   -1.0866 H       1  UNL1        0.1223
@<TRIPOS>BOND
     1     1     2    1
     2     1    41    1
     3     1    42    1
     4     1    43    1
     5     2     3    1
     6     2     4    1
     7     2    44    1
     8     3    45    1
     9     3    46    1
    10     3    47    1
    11     4     9   ar
    12     4     5   ar
    13     5     6   ar
    14     5    48    1
    15     6     7   ar
    16     6    49    1
    17     7     8   ar
    18     7    50    1
    19     8     9   ar
    20     8    10    1
    21     9    51    1
    22    10    11    1
    23    10    52    1
    24    10    53    1
    25    11    12    1
    26    11    78    1
    27    12    13    1
    28    12    54    1
    29    12    55    1
    30    13    39    1
    31    13    14    1
    32    13    38    1
    33    14    40    1
    34    14    37    1
    35    14    15    1
    36    15    16    1
    37    15    56    1
    38    15    57    1
    39    16    21   ar
    40    16    17   ar
    41    17    18   ar
    42    17    58    1
    43    18    19   ar
    44    18    59    1
    45    19    20   ar
    46    19    60    1
    47    20    21   ar
    48    20    22    1
    49    21    61    1
    50    22    23    1
    51    22    62    1
    52    22    63    1
    53    23    24    1
    54    23    64    1
    55    23    65    1
    56    24    25    1
    57    24    66    1
    58    24    67    1
    59    25    26    1
    60    25    68    1
    61    25    69    1
    62    26    27    1
    63    26    70    1
    64    27    32   ar
    65    27    28   ar
    66    28    29   ar
    67    28    71    1
    68    29    30   ar
    69    29    35    1
    70    30    31   ar
    71    30    72    1
    72    31    32   ar
    73    31    33    1
    74    33    34    1
    75    34    73    1
    76    34    74    1
    77    34    75    1
    78    35    36    2
    79    35    37   am
    80    37    76    1
    81    38    77    1
