@<TRIPOS>MOLECULE
BACE_11.smi:1
 80 82 0 0 0
SMALL
GASTEIGER
****
Structure written by MMmdl.
@<TRIPOS>ATOM
      1 C          -1.9717   -1.0813   -3.9995 C.3     1  UNL1       -0.0379
      2 C          -1.3615    0.3259   -3.8576 C.3     1  UNL1        0.0991
      3 C          -1.4272    0.9208   -2.4336 C.2     1  UNL1        0.2336
      4 O          -2.4718    0.8195   -1.7912 O.2     1  UNL1       -0.2738
      5 N          -0.3551    1.5913   -1.9726 N.am    1  UNL1       -0.3081
      6 C          -0.2674    2.4201   -0.7641 C.3     1  UNL1        0.0542
      7 C          -1.0184    3.7612   -0.9589 C.3     1  UNL1       -0.0066
      8 C          -0.5086    4.5636   -2.1480 C.ar    1  UNL1       -0.0421
      9 C           0.4555    5.5743   -1.9604 C.ar    1  UNL1       -0.0583
     10 C           0.9485    6.2914   -3.0668 C.ar    1  UNL1       -0.0580
     11 C           0.4981    5.9891   -4.3669 C.ar    1  UNL1       -0.0199
     12 C          -0.4602    4.9655   -4.5696 C.ar    1  UNL1        0.1208
     13 C          -0.9753    4.2854   -3.4497 C.ar    1  UNL1       -0.0167
     14 O          -0.9270    4.5627   -5.8009 O.3     1  UNL1       -0.4920
     15 C          -0.3586    5.1365   -6.9670 C.3     1  UNL1        0.0896
     16 C          -0.8063    4.3336   -8.1986 C.3     1  UNL1       -0.0186
     17 C          -0.0573    2.9972   -8.3923 C.3     1  UNL1       -0.0495
     18 C          -0.8854    1.7222   -8.1181 C.3     1  UNL1       -0.0447
     19 C          -1.1432    1.3655   -6.6363 C.3     1  UNL1        0.0242
     20 C           0.0863    0.8639   -5.8475 C.2     1  UNL1        0.2159
     21 O           1.1882    0.8754   -6.3997 O.2     1  UNL1       -0.2756
     22 N          -0.0650    0.4065   -4.5751 N.am    1  UNL1       -0.2932
     23 C           1.1059   -0.1820   -3.9073 C.3     1  UNL1        0.0039
     24 C          -0.6631    1.6796    0.5456 C.3     1  UNL1        0.0862
     25 C          -0.1209    0.2419    0.7026 C.3     1  UNL1        0.0240
     26 N           1.3131    0.1578    0.4355 N.3     1  UNL1       -0.3095
     27 C           1.8307   -1.2054    0.4764 C.3     1  UNL1        0.0213
     28 C           3.2982   -1.2731    0.1011 C.ar    1  UNL1       -0.0333
     29 C           4.2304   -1.8625    0.9793 C.ar    1  UNL1       -0.0573
     30 C           5.5906   -1.9304    0.6216 C.ar    1  UNL1       -0.0612
     31 C           6.0231   -1.4120   -0.6144 C.ar    1  UNL1       -0.0583
     32 C           5.0972   -0.8206   -1.5019 C.ar    1  UNL1       -0.0445
     33 C           3.7361   -0.7572   -1.1367 C.ar    1  UNL1       -0.0539
     34 C           5.5507   -0.2533   -2.8411 C.3     1  UNL1       -0.0215
     35 C           6.1160   -1.3489   -3.7580 C.3     1  UNL1       -0.0586
     36 C           6.5443    0.9045   -2.6593 C.3     1  UNL1       -0.0586
     37 O          -0.2333    2.4178    1.6723 O.3     1  UNL1       -0.3887
     38 H          -2.0742    0.9803   -4.3543 H       1  UNL1        0.0594
     39 H           0.7931    2.6630   -0.6815 H       1  UNL1        0.0527
     40 H          -1.7504    1.6335    0.6112 H       1  UNL1        0.0624
     41 H          -2.9645   -1.1375   -3.5517 H       1  UNL1        0.0252
     42 H          -1.3484   -1.8338   -3.5157 H       1  UNL1        0.0252
     43 H          -2.0746   -1.3623   -5.0478 H       1  UNL1        0.0252
     44 H           0.4557    1.6122   -2.5742 H       1  UNL1        0.1491
     45 H          -2.0869    3.5817   -1.0845 H       1  UNL1        0.0332
     46 H          -0.9237    4.3759   -0.0631 H       1  UNL1        0.0332
     47 H           0.8221    5.8000   -0.9696 H       1  UNL1        0.0620
     48 H           1.6843    7.0682   -2.9197 H       1  UNL1        0.0619
     49 H           0.9065    6.5521   -5.1922 H       1  UNL1        0.0654
     50 H          -1.7162    3.5151   -3.6020 H       1  UNL1        0.0657
     51 H          -0.7021    6.1682   -7.0534 H       1  UNL1        0.0696
     52 H           0.7314    5.1517   -6.9224 H       1  UNL1        0.0696
     53 H          -1.8865    4.1841   -8.1862 H       1  UNL1        0.0298
     54 H          -0.6094    4.9521   -9.0751 H       1  UNL1        0.0298
     55 H           0.2501    2.9504   -9.4376 H       1  UNL1        0.0266
     56 H           0.8763    2.9923   -7.8310 H       1  UNL1        0.0266
     57 H          -1.8435    1.8083   -8.6319 H       1  UNL1        0.0270
     58 H          -0.3878    0.8766   -8.5953 H       1  UNL1        0.0270
     59 H          -1.5883    2.2176   -6.1273 H       1  UNL1        0.0358
     60 H          -1.8906    0.5719   -6.6189 H       1  UNL1        0.0358
     61 H           1.8373    0.5918   -3.6708 H       1  UNL1        0.0429
     62 H           1.5909   -0.9264   -4.5409 H       1  UNL1        0.0429
     63 H           0.8417   -0.6915   -2.9800 H       1  UNL1        0.0429
     64 H          -0.3425   -0.1347    1.7020 H       1  UNL1        0.0450
     65 H          -0.6534   -0.4131    0.0128 H       1  UNL1        0.0450
     66 H           1.6853   -1.6319    1.4697 H       1  UNL1        0.0473
     67 H           1.2777   -1.8368   -0.2206 H       1  UNL1        0.0473
     68 H           3.9067   -2.2638    1.9286 H       1  UNL1        0.0621
     69 H           6.3037   -2.3810    1.2960 H       1  UNL1        0.0618
     70 H           7.0690   -1.4707   -0.8774 H       1  UNL1        0.0620
     71 H           3.0202   -0.3074   -1.8070 H       1  UNL1        0.0623
     72 H           4.6720    0.1574   -3.3409 H       1  UNL1        0.0343
     73 H           5.3809   -2.1370   -3.9244 H       1  UNL1        0.0235
     74 H           7.0083   -1.8092   -3.3329 H       1  UNL1        0.0235
     75 H           6.3871   -0.9420   -4.7325 H       1  UNL1        0.0235
     76 H           6.1125    1.6976   -2.0477 H       1  UNL1        0.0235
     77 H           6.8155    1.3416   -3.6205 H       1  UNL1        0.0235
     78 H           7.4645    0.5744   -2.1764 H       1  UNL1        0.0235
     79 H           0.7116    2.4070    1.6913 H       1  UNL1        0.2099
     80 H           1.5125    0.5672   -0.4714 H       1  UNL1        0.1223
@<TRIPOS>BOND
     1     1     2    1
     2     1    41    1
     3     1    42    1
     4     1    43    1
     5     2    38    1
     6     2    22    1
     7     2     3    1
     8     3     4    2
     9     3     5   am
    10     5     6    1
    11     5    44    1
    12     6    39    1
    13     6     7    1
    14     6    24    1
    15     7     8    1
    16     7    45    1
    17     7    46    1
    18     8    13   ar
    19     8     9   ar
    20     9    10   ar
    21     9    47    1
    22    10    11   ar
    23    10    48    1
    24    11    12   ar
    25    11    49    1
    26    12    13   ar
    27    12    14    1
    28    13    50    1
    29    14    15    1
    30    15    16    1
    31    15    51    1
    32    15    52    1
    33    16    17    1
    34    16    53    1
    35    16    54    1
    36    17    18    1
    37    17    55    1
    38    17    56    1
    39    18    19    1
    40    18    57    1
    41    18    58    1
    42    19    20    1
    43    19    59    1
    44    19    60    1
    45    20    21    2
    46    20    22   am
    47    22    23    1
    48    23    61    1
    49    23    62    1
    50    23    63    1
    51    24    40    1
    52    24    25    1
    53    24    37    1
    54    25    26    1
    55    25    64    1
    56    25    65    1
    57    26    27    1
    58    26    80    1
    59    27    28    1
    60    27    66    1
    61    27    67    1
    62    28    33   ar
    63    28    29   ar
    64    29    30   ar
    65    29    68    1
    66    30    31   ar
    67    30    69    1
    68    31    32   ar
    69    31    70    1
    70    32    33   ar
    71    32    34    1
    72    33    71    1
    73    34    35    1
    74    34    36    1
    75    34    72    1
    76    35    73    1
    77    35    74    1
    78    35    75    1
    79    36    76    1
    80    36    77    1
    81    36    78    1
    82    37    79    1
