@<TRIPOS>MOLECULE
BACE_10.smi:1
 86 88 0 0 0
SMALL
GASTEIGER
****
Structure written by MMmdl.
@<TRIPOS>ATOM
      1 C          -0.2196    4.6089   -3.2048 C.3     1  UNL1       -0.0623
      2 C          -0.5914    3.9276   -1.8741 C.3     1  UNL1       -0.0400
      3 C          -0.4799    4.9074   -0.6798 C.3     1  UNL1       -0.0268
      4 C          -1.3941    6.1404   -0.7741 C.3     1  UNL1        0.0479
      5 O          -2.7422    5.7107   -0.8945 O.3     1  UNL1       -0.3797
      6 C          -3.5582    6.0270    0.2212 C.3     1  UNL1        0.0477
      7 C          -4.9262    5.3561    0.0320 C.3     1  UNL1       -0.0281
      8 C          -4.8894    3.8319    0.2343 C.3     1  UNL1       -0.0354
      9 C          -4.8948    3.4319    1.7185 C.3     1  UNL1        0.0092
     10 N          -4.8151    1.9891    1.9005 N.pl3   1  UNL1       -0.3438
     11 C          -3.5913    1.3929    2.2384 C.ar    1  UNL1        0.0282
     12 C          -3.6190    0.1611    2.9233 C.ar    1  UNL1       -0.0355
     13 C          -2.4208   -0.4676    3.3237 C.ar    1  UNL1       -0.0195
     14 C          -1.1838    0.1284    3.0077 C.ar    1  UNL1       -0.0442
     15 C          -1.1391    1.3410    2.2892 C.ar    1  UNL1        0.0388
     16 C          -2.3439    1.9782    1.9219 C.ar    1  UNL1       -0.0287
     17 C           0.1860    1.9663    1.9722 C.2     1  UNL1        0.2444
     18 O           0.9553    2.2599    2.8841 O.2     1  UNL1       -0.2702
     19 N           0.5131    2.1777    0.6835 N.am    1  UNL1       -0.3058
     20 C          -0.1588    1.7105   -0.5358 C.3     1  UNL1        0.0545
     21 C           0.2546    2.6415   -1.7038 C.3     1  UNL1       -0.0292
     22 C           0.1873    0.2220   -0.8460 C.3     1  UNL1        0.1130
     23 C           1.6089   -0.2267   -0.4520 C.3     1  UNL1       -0.0050
     24 N           1.8959   -1.5916   -0.9426 N.4     1  UNL1        0.2321
     25 C           3.2242   -2.1258   -0.5733 C.3     1  UNL1       -0.0076
     26 C           3.3834   -2.2654    0.9304 C.ar    1  UNL1       -0.0027
     27 C           4.2250   -1.3848    1.6413 C.ar    1  UNL1       -0.0535
     28 C           4.3462   -1.4995    3.0387 C.ar    1  UNL1       -0.0611
     29 C           3.6248   -2.4910    3.7307 C.ar    1  UNL1       -0.0583
     30 C           2.7798   -3.3773    3.0288 C.ar    1  UNL1       -0.0444
     31 C           2.6679   -3.2621    1.6257 C.ar    1  UNL1       -0.0501
     32 C           1.9871   -4.4348    3.7860 C.3     1  UNL1       -0.0215
     33 C           2.3649   -5.8574    3.3443 C.3     1  UNL1       -0.0586
     34 C           0.4750   -4.1863    3.6758 C.3     1  UNL1       -0.0586
     35 O          -0.7608   -0.6173   -0.2163 O.3     1  UNL1       -0.3847
     36 C          -2.4446   -1.7936    4.0619 C.3     1  UNL1        0.0724
     37 O          -3.6612   -2.0140    4.7580 O.3     1  UNL1       -0.3784
     38 C          -3.6856   -3.2656    5.4217 C.3     1  UNL1        0.0369
     39 H          -1.6334    3.6153   -1.9559 H       1  UNL1        0.0299
     40 H          -1.2409    1.7984   -0.4457 H       1  UNL1        0.0526
     41 H           0.0506    0.0398   -1.9123 H       1  UNL1        0.0666
     42 H           0.7941    5.0095   -3.1749 H       1  UNL1        0.0232
     43 H          -0.8976    5.4270   -3.4453 H       1  UNL1        0.0232
     44 H          -0.2736    3.9074   -4.0377 H       1  UNL1        0.0232
     45 H          -0.7407    4.3957    0.2442 H       1  UNL1        0.0290
     46 H           0.5550    5.2320   -0.5671 H       1  UNL1        0.0290
     47 H          -1.2453    6.7824    0.0963 H       1  UNL1        0.0560
     48 H          -1.1395    6.7514   -1.6392 H       1  UNL1        0.0560
     49 H          -3.0917    5.6973    1.1506 H       1  UNL1        0.0560
     50 H          -3.6770    7.1098    0.2795 H       1  UNL1        0.0560
     51 H          -5.6503    5.7945    0.7196 H       1  UNL1        0.0288
     52 H          -5.2919    5.5817   -0.9704 H       1  UNL1        0.0288
     53 H          -5.7641    3.3918   -0.2459 H       1  UNL1        0.0281
     54 H          -4.0218    3.4107   -0.2754 H       1  UNL1        0.0281
     55 H          -4.0946    3.9316    2.2644 H       1  UNL1        0.0461
     56 H          -5.8229    3.7717    2.1790 H       1  UNL1        0.0461
     57 H          -5.6556    1.5252    2.2153 H       1  UNL1        0.1461
     58 H          -4.5702   -0.2959    3.1553 H       1  UNL1        0.0639
     59 H          -0.2648   -0.3569    3.3047 H       1  UNL1        0.0628
     60 H          -2.2990    2.9180    1.3914 H       1  UNL1        0.0643
     61 H           1.3944    2.6461    0.5308 H       1  UNL1        0.1494
     62 H           0.1610    2.0867   -2.6375 H       1  UNL1        0.0286
     63 H           1.3139    2.8932   -1.6313 H       1  UNL1        0.0286
     64 H           2.3471    0.4576   -0.8723 H       1  UNL1        0.0840
     65 H           1.7224   -0.1988    0.6318 H       1  UNL1        0.0840
     66 H           3.3483   -3.1056   -1.0355 H       1  UNL1        0.0866
     67 H           4.0045   -1.4827   -0.9824 H       1  UNL1        0.0866
     68 H           4.7747   -0.6146    1.1201 H       1  UNL1        0.0622
     69 H           4.9895   -0.8229    3.5820 H       1  UNL1        0.0618
     70 H           3.7214   -2.5641    4.8041 H       1  UNL1        0.0620
     71 H           2.0187   -3.9313    1.0801 H       1  UNL1        0.0625
     72 H           2.2479   -4.3498    4.8419 H       1  UNL1        0.0343
     73 H           3.4324   -6.0370    3.4767 H       1  UNL1        0.0235
     74 H           2.1245   -6.0330    2.2956 H       1  UNL1        0.0235
     75 H           1.8314   -6.6037    3.9336 H       1  UNL1        0.0235
     76 H           0.2215   -3.1911    4.0404 H       1  UNL1        0.0235
     77 H          -0.0874   -4.9074    4.2693 H       1  UNL1        0.0235
     78 H           0.1258   -4.2621    2.6458 H       1  UNL1        0.0235
     79 H          -1.6282   -0.3393   -0.4707 H       1  UNL1        0.2101
     80 H          -2.2795   -2.5918    3.3363 H       1  UNL1        0.0610
     81 H          -1.6156   -1.8168    4.7713 H       1  UNL1        0.0610
     82 H          -4.6310   -3.3810    5.9517 H       1  UNL1        0.0524
     83 H          -2.8790   -3.3418    6.1521 H       1  UNL1        0.0524
     84 H          -3.5940   -4.0890    4.7120 H       1  UNL1        0.0524
     85 H           1.1906   -2.2110   -0.5691 H       1  UNL1        0.2018
     86 H           1.8196   -1.5896   -1.9494 H       1  UNL1        0.2018
@<TRIPOS>BOND
     1     1     2    1
     2     1    42    1
     3     1    43    1
     4     1    44    1
     5     2    39    1
     6     2    21    1
     7     2     3    1
     8     3     4    1
     9     3    45    1
    10     3    46    1
    11     4     5    1
    12     4    47    1
    13     4    48    1
    14     5     6    1
    15     6     7    1
    16     6    49    1
    17     6    50    1
    18     7     8    1
    19     7    51    1
    20     7    52    1
    21     8     9    1
    22     8    53    1
    23     8    54    1
    24     9    10    1
    25     9    55    1
    26     9    56    1
    27    10    11    1
    28    10    57    1
    29    11    16   ar
    30    11    12   ar
    31    12    13   ar
    32    12    58    1
    33    13    14   ar
    34    13    36    1
    35    14    15   ar
    36    14    59    1
    37    15    16   ar
    38    15    17    1
    39    16    60    1
    40    17    18    2
    41    17    19   am
    42    19    20    1
    43    19    61    1
    44    20    40    1
    45    20    21    1
    46    20    22    1
    47    21    62    1
    48    21    63    1
    49    22    41    1
    50    22    23    1
    51    22    35    1
    52    23    24    1
    53    23    64    1
    54    23    65    1
    55    24    25    1
    56    24    85    1
    57    24    86    1
    58    25    26    1
    59    25    66    1
    60    25    67    1
    61    26    31   ar
    62    26    27   ar
    63    27    28   ar
    64    27    68    1
    65    28    29   ar
    66    28    69    1
    67    29    30   ar
    68    29    70    1
    69    30    31   ar
    70    30    32    1
    71    31    71    1
    72    32    33    1
    73    32    34    1
    74    32    72    1
    75    33    73    1
    76    33    74    1
    77    33    75    1
    78    34    76    1
    79    34    77    1
    80    34    78    1
    81    35    79    1
    82    36    37    1
    83    36    80    1
    84    36    81    1
    85    37    38    1
    86    38    82    1
    87    38    83    1
    88    38    84    1
