@<TRIPOS>MOLECULE
BACE_5.smi:1
 79 80 0 0 0
SMALL
GASTEIGER
****
Structure written by MMmdl.
@<TRIPOS>ATOM
      1 C          -3.9996   -0.0299   -1.3582 C.3     1  UNL1       -0.0649
      2 C          -4.4058    1.3096   -0.7274 C.3     1  UNL1       -0.0505
      3 C          -3.7504    2.5298   -1.3978 C.3     1  UNL1       -0.0112
      4 C          -2.2642    2.6144   -1.2391 C.ar    1  UNL1        0.0364
      5 C          -1.4042    2.0580   -0.3327 C.ar    1  UNL1       -0.0168
      6 C          -0.1175    2.5318   -0.7246 C.ar    1  UNL1        0.0768
      7 N          -0.1747    3.3315   -1.7789 N.ar    1  UNL1       -0.1774
      8 N          -1.4860    3.3780   -2.0790 N.ar    1  UNL1       -0.2813
      9 C           1.2147    2.2284   -0.0959 C.3     1  UNL1        0.0403
     10 N           1.4238    0.7977    0.1097 N.3     1  UNL1       -0.3080
     11 C           1.7052    0.0482   -1.1157 C.3     1  UNL1        0.0240
     12 C           1.9646   -1.4491   -0.8359 C.3     1  UNL1        0.0859
     13 C           3.3968   -1.7738   -0.3298 C.3     1  UNL1        0.0505
     14 C           3.7230   -3.2797   -0.1100 C.3     1  UNL1       -0.0295
     15 C           2.8068   -4.1551    0.7903 C.3     1  UNL1       -0.0421
     16 C           2.4530   -3.4927    2.1351 C.3     1  UNL1       -0.0504
     17 C           1.7924   -4.4244    3.1668 C.3     1  UNL1       -0.0528
     18 C           1.5699   -3.7344    4.5220 C.3     1  UNL1       -0.0530
     19 C           0.4236   -2.7044    4.5063 C.3     1  UNL1       -0.0510
     20 C           0.3503   -1.8285    5.7686 C.3     1  UNL1       -0.0294
     21 C           1.2952   -0.6158    5.7390 C.3     1  UNL1        0.0483
     22 O           2.6478   -1.0404    5.8492 O.3     1  UNL1       -0.3706
     23 C           3.6070    0.0106    5.8912 C.3     1  UNL1        0.1238
     24 C           3.8091    0.6418    4.5004 C.2     1  UNL1        0.2417
     25 O           3.2775    1.7330    4.2920 O.2     1  UNL1       -0.2731
     26 N           4.5660    0.0028    3.5686 N.am    1  UNL1       -0.2914
     27 C           4.8997    0.6540    2.2789 C.3     1  UNL1        0.0991
     28 C           4.8320   -0.2283    1.0173 C.2     1  UNL1        0.2336
     29 O           5.7548   -0.2105    0.2024 O.2     1  UNL1       -0.2738
     30 N           3.7307   -0.9822    0.8585 N.am    1  UNL1       -0.3084
     31 C           6.1748    1.5082    2.4217 C.3     1  UNL1       -0.0379
     32 C           5.2354   -1.2694    3.8767 C.3     1  UNL1        0.0040
     33 C           1.5745   -4.7052    0.0458 C.3     1  UNL1       -0.0624
     34 O           1.7808   -2.1183   -2.0674 O.3     1  UNL1       -0.3887
     35 H          -1.8322    3.9247   -2.8547 H       1  UNL1        0.1885
     36 H           1.2115   -1.8055   -0.1357 H       1  UNL1        0.0624
     37 H           4.0636   -1.4508   -1.1315 H       1  UNL1        0.0524
     38 H           3.4087   -5.0334    1.0283 H       1  UNL1        0.0299
     39 H           4.1122    1.3748    2.0521 H       1  UNL1        0.0594
     40 H          -4.5176   -0.8578   -0.8738 H       1  UNL1        0.0230
     41 H          -2.9290   -0.2121   -1.2634 H       1  UNL1        0.0230
     42 H          -4.2508   -0.0564   -2.4187 H       1  UNL1        0.0230
     43 H          -5.4890    1.4103   -0.8010 H       1  UNL1        0.0266
     44 H          -4.1763    1.3010    0.3385 H       1  UNL1        0.0266
     45 H          -4.0035    2.5346   -2.4588 H       1  UNL1        0.0328
     46 H          -4.1942    3.4358   -0.9834 H       1  UNL1        0.0328
     47 H          -1.6517    1.4000    0.4870 H       1  UNL1        0.0654
     48 H           2.0305    2.6450   -0.6883 H       1  UNL1        0.0489
     49 H           1.2651    2.7320    0.8697 H       1  UNL1        0.0489
     50 H           2.1700    0.6552    0.7824 H       1  UNL1        0.1224
     51 H           0.8524    0.1454   -1.7895 H       1  UNL1        0.0450
     52 H           2.5594    0.4794   -1.6395 H       1  UNL1        0.0450
     53 H           3.8043   -3.7614   -1.0849 H       1  UNL1        0.0286
     54 H           4.7337   -3.3338    0.2977 H       1  UNL1        0.0286
     55 H           3.3702   -3.1022    2.5728 H       1  UNL1        0.0268
     56 H           1.8094   -2.6341    1.9545 H       1  UNL1        0.0268
     57 H           0.8418   -4.8051    2.7932 H       1  UNL1        0.0265
     58 H           2.4341   -5.2932    3.3176 H       1  UNL1        0.0265
     59 H           1.3456   -4.4910    5.2747 H       1  UNL1        0.0265
     60 H           2.5047   -3.2747    4.8369 H       1  UNL1        0.0265
     61 H           0.4877   -2.0546    3.6344 H       1  UNL1        0.0266
     62 H          -0.5161   -3.2473    4.3984 H       1  UNL1        0.0266
     63 H          -0.6683   -1.4493    5.8546 H       1  UNL1        0.0287
     64 H           0.5225   -2.4279    6.6632 H       1  UNL1        0.0287
     65 H           1.1333   -0.0420    4.8257 H       1  UNL1        0.0560
     66 H           1.0584    0.0421    6.5764 H       1  UNL1        0.0560
     67 H           3.2983    0.7741    6.6075 H       1  UNL1        0.0657
     68 H           4.5496   -0.3817    6.2713 H       1  UNL1        0.0657
     69 H           3.0347   -0.9553    1.5899 H       1  UNL1        0.1491
     70 H           6.3993    2.0508    1.5026 H       1  UNL1        0.0252
     71 H           7.0395    0.8893    2.6630 H       1  UNL1        0.0252
     72 H           6.0662    2.2497    3.2139 H       1  UNL1        0.0252
     73 H           6.0105   -1.1145    4.6280 H       1  UNL1        0.0429
     74 H           5.7282   -1.7185    3.0155 H       1  UNL1        0.0429
     75 H           4.5321   -2.0073    4.2610 H       1  UNL1        0.0429
     76 H           0.7985   -3.9555   -0.0921 H       1  UNL1        0.0232
     77 H           1.1239   -5.5335    0.5924 H       1  UNL1        0.0232
     78 H           1.8453   -5.0892   -0.9380 H       1  UNL1        0.0232
     79 H           2.4137   -1.7870   -2.6860 H       1  UNL1        0.2099
@<TRIPOS>BOND
     1     1     2    1
     2     1    40    1
     3     1    41    1
     4     1    42    1
     5     2     3    1
     6     2    43    1
     7     2    44    1
     8     3     4    1
     9     3    45    1
    10     3    46    1
    11     4     8   ar
    12     4     5   ar
    13     5     6   ar
    14     5    47    1
    15     6     7   ar
    16     6     9    1
    17     7     8   ar
    18     8    35    1
    19     9    10    1
    20     9    48    1
    21     9    49    1
    22    10    11    1
    23    10    50    1
    24    11    12    1
    25    11    51    1
    26    11    52    1
    27    12    36    1
    28    12    13    1
    29    12    34    1
    30    13    37    1
    31    13    30    1
    32    13    14    1
    33    14    15    1
    34    14    53    1
    35    14    54    1
    36    15    38    1
    37    15    16    1
    38    15    33    1
    39    16    17    1
    40    16    55    1
    41    16    56    1
    42    17    18    1
    43    17    57    1
    44    17    58    1
    45    18    19    1
    46    18    59    1
    47    18    60    1
    48    19    20    1
    49    19    61    1
    50    19    62    1
    51    20    21    1
    52    20    63    1
    53    20    64    1
    54    21    22    1
    55    21    65    1
    56    21    66    1
    57    22    23    1
    58    23    24    1
    59    23    67    1
    60    23    68    1
    61    24    25    2
    62    24    26   am
    63    26    27    1
    64    26    32    1
    65    27    39    1
    66    27    28    1
    67    27    31    1
    68    28    29    2
    69    28    30   am
    70    30    69    1
    71    31    70    1
    72    31    71    1
    73    31    72    1
    74    32    73    1
    75    32    74    1
    76    32    75    1
    77    33    76    1
    78    33    77    1
    79    33    78    1
    80    34    79    1
