@<TRIPOS>MOLECULE
BACE_11.smi:1
 81 83 0 0 0
SMALL
GASTEIGER
****
Structure written by MMmdl.
@<TRIPOS>ATOM
      1 C          -1.5974   -0.6773    3.8834 C.3     1  UNL1       -0.0379
      2 C          -2.6012    0.0369    2.9582 C.3     1  UNL1        0.0991
      3 C          -1.9930    0.6272    1.6672 C.2     1  UNL1        0.2336
      4 O          -0.8932    1.1766    1.7173 O.2     1  UNL1       -0.2738
      5 N          -2.7226    0.5676    0.5372 N.am    1  UNL1       -0.3080
      6 C          -2.4638    1.2536   -0.7341 C.3     1  UNL1        0.0580
      7 C          -2.7986    2.7628   -0.6129 C.3     1  UNL1       -0.0065
      8 C          -4.2469    3.0185   -0.2186 C.ar    1  UNL1       -0.0421
      9 C          -5.2155    3.2805   -1.2084 C.ar    1  UNL1       -0.0583
     10 C          -6.5611    3.4749   -0.8432 C.ar    1  UNL1       -0.0580
     11 C          -6.9499    3.3876    0.5078 C.ar    1  UNL1       -0.0199
     12 C          -5.9875    3.1127    1.5105 C.ar    1  UNL1        0.1208
     13 C          -4.6388    2.9629    1.1354 C.ar    1  UNL1       -0.0167
     14 O          -6.2749    2.9619    2.8487 O.3     1  UNL1       -0.4920
     15 C          -7.6337    2.9569    3.2554 C.3     1  UNL1        0.0896
     16 C          -7.7284    2.4928    4.7175 C.3     1  UNL1       -0.0186
     17 C          -7.5738    0.9688    4.9148 C.3     1  UNL1       -0.0495
     18 C          -6.2496    0.5099    5.5652 C.3     1  UNL1       -0.0447
     19 C          -4.9952    0.5060    4.6620 C.3     1  UNL1        0.0242
     20 C          -4.9598   -0.5936    3.5781 C.2     1  UNL1        0.2159
     21 O          -5.9506   -1.3117    3.4316 O.2     1  UNL1       -0.2756
     22 N          -3.8430   -0.7630    2.8196 N.am    1  UNL1       -0.2932
     23 C          -3.8013   -1.9015    1.8885 C.3     1  UNL1        0.0039
     24 C          -1.0568    0.9759   -1.3338 C.3     1  UNL1        0.1132
     25 C          -0.6642   -0.5168   -1.3657 C.3     1  UNL1       -0.0049
     26 N           0.7389   -0.6915   -1.7912 N.4     1  UNL1        0.2321
     27 C           1.1840   -2.0971   -1.8287 C.3     1  UNL1       -0.0076
     28 C           2.6198   -2.1886   -2.3040 C.ar    1  UNL1       -0.0027
     29 C           2.9019   -2.3781   -3.6726 C.ar    1  UNL1       -0.0535
     30 C           4.2363   -2.4650   -4.1117 C.ar    1  UNL1       -0.0611
     31 C           5.2919   -2.3608   -3.1860 C.ar    1  UNL1       -0.0583
     32 C           5.0205   -2.1661   -1.8136 C.ar    1  UNL1       -0.0444
     33 C           3.6798   -2.0816   -1.3792 C.ar    1  UNL1       -0.0501
     34 C           6.1573   -2.0524   -0.8053 C.3     1  UNL1       -0.0215
     35 C           7.0682   -0.8510   -1.1049 C.3     1  UNL1       -0.0586
     36 C           6.9585   -3.3599   -0.7092 C.3     1  UNL1       -0.0586
     37 O          -1.0495    1.4324   -2.6736 O.3     1  UNL1       -0.3847
     38 H          -2.8404    0.9606    3.4805 H       1  UNL1        0.0594
     39 H          -3.1883    0.8201   -1.4256 H       1  UNL1        0.0529
     40 H          -0.3030    1.5396   -0.7828 H       1  UNL1        0.0666
     41 H          -0.7134   -0.0664    4.0688 H       1  UNL1        0.0252
     42 H          -1.2623   -1.6206    3.4519 H       1  UNL1        0.0252
     43 H          -2.0438   -0.8990    4.8532 H       1  UNL1        0.0252
     44 H          -3.6098    0.0883    0.5998 H       1  UNL1        0.1491
     45 H          -2.1427    3.2397    0.1166 H       1  UNL1        0.0332
     46 H          -2.6069    3.2702   -1.5590 H       1  UNL1        0.0332
     47 H          -4.9321    3.3286   -2.2496 H       1  UNL1        0.0620
     48 H          -7.3008    3.6788   -1.6033 H       1  UNL1        0.0619
     49 H          -7.9920    3.5303    0.7495 H       1  UNL1        0.0654
     50 H          -3.9030    2.7662    1.9005 H       1  UNL1        0.0657
     51 H          -8.0315    3.9687    3.1639 H       1  UNL1        0.0696
     52 H          -8.2409    2.3034    2.6273 H       1  UNL1        0.0696
     53 H          -7.0250    3.0460    5.3408 H       1  UNL1        0.0298
     54 H          -8.7183    2.7728    5.0795 H       1  UNL1        0.0298
     55 H          -8.3740    0.6504    5.5838 H       1  UNL1        0.0266
     56 H          -7.7659    0.4369    3.9837 H       1  UNL1        0.0266
     57 H          -6.0535    1.1313    6.4396 H       1  UNL1        0.0270
     58 H          -6.3906   -0.4959    5.9636 H       1  UNL1        0.0270
     59 H          -4.8707    1.4844    4.2037 H       1  UNL1        0.0358
     60 H          -4.1302    0.3582    5.3089 H       1  UNL1        0.0358
     61 H          -4.4777   -1.7345    1.0490 H       1  UNL1        0.0429
     62 H          -4.0955   -2.8282    2.3841 H       1  UNL1        0.0429
     63 H          -2.8026   -2.0710    1.4856 H       1  UNL1        0.0429
     64 H          -0.7601   -0.9647   -0.3769 H       1  UNL1        0.0840
     65 H          -1.3271   -1.0733   -2.0301 H       1  UNL1        0.0840
     66 H           0.8447   -0.2947   -2.7143 H       1  UNL1        0.2018
     67 H           1.0970   -2.5396   -0.8353 H       1  UNL1        0.0866
     68 H           0.5391   -2.6716   -2.4953 H       1  UNL1        0.0866
     69 H           2.0975   -2.4592   -4.3892 H       1  UNL1        0.0622
     70 H           4.4517   -2.6125   -5.1599 H       1  UNL1        0.0618
     71 H           6.3115   -2.4319   -3.5353 H       1  UNL1        0.0620
     72 H           3.4609   -1.9348   -0.3314 H       1  UNL1        0.0625
     73 H           5.7128   -1.8774    0.1755 H       1  UNL1        0.0343
     74 H           6.4988    0.0789   -1.1202 H       1  UNL1        0.0235
     75 H           7.5667   -0.9523   -2.0694 H       1  UNL1        0.0235
     76 H           7.8429   -0.7488   -0.3445 H       1  UNL1        0.0235
     77 H           6.3117   -4.1969   -0.4445 H       1  UNL1        0.0235
     78 H           7.7328   -3.2891    0.0550 H       1  UNL1        0.0235
     79 H           7.4484   -3.6022   -1.6526 H       1  UNL1        0.0235
     80 H          -1.7498    1.0057   -3.1442 H       1  UNL1        0.2101
     81 H           1.3348   -0.1830   -1.1536 H       1  UNL1        0.2018
@<TRIPOS>BOND
     1     1     2    1
     2     1    41    1
     3     1    42    1
     4     1    43    1
     5     2    38    1
     6     2    22    1
     7     2     3    1
     8     3     4    2
     9     3     5   am
    10     5     6    1
    11     5    44    1
    12     6    39    1
    13     6     7    1
    14     6    24    1
    15     7     8    1
    16     7    45    1
    17     7    46    1
    18     8    13   ar
    19     8     9   ar
    20     9    10   ar
    21     9    47    1
    22    10    11   ar
    23    10    48    1
    24    11    12   ar
    25    11    49    1
    26    12    13   ar
    27    12    14    1
    28    13    50    1
    29    14    15    1
    30    15    16    1
    31    15    51    1
    32    15    52    1
    33    16    17    1
    34    16    53    1
    35    16    54    1
    36    17    18    1
    37    17    55    1
    38    17    56    1
    39    18    19    1
    40    18    57    1
    41    18    58    1
    42    19    20    1
    43    19    59    1
    44    19    60    1
    45    20    21    2
    46    20    22   am
    47    22    23    1
    48    23    61    1
    49    23    62    1
    50    23    63    1
    51    24    40    1
    52    24    25    1
    53    24    37    1
    54    25    26    1
    55    25    64    1
    56    25    65    1
    57    26    27    1
    58    26    66    1
    59    26    81    1
    60    27    28    1
    61    27    67    1
    62    27    68    1
    63    28    33   ar
    64    28    29   ar
    65    29    30   ar
    66    29    69    1
    67    30    31   ar
    68    30    70    1
    69    31    32   ar
    70    31    71    1
    71    32    33   ar
    72    32    34    1
    73    33    72    1
    74    34    35    1
    75    34    36    1
    76    34    73    1
    77    35    74    1
    78    35    75    1
    79    35    76    1
    80    36    77    1
    81    36    78    1
    82    36    79    1
    83    37    80    1
