@<TRIPOS>MOLECULE
BACE_10.smi:1
 85 87 0 0 0
SMALL
GASTEIGER
****
Structure written by MMmdl.
@<TRIPOS>ATOM
      1 C          -4.3340    2.7260    0.5356 C.3     1  UNL1       -0.0623
      2 C          -2.8618    2.9071    0.1196 C.3     1  UNL1       -0.0400
      3 C          -2.7232    4.0079   -0.9599 C.3     1  UNL1       -0.0268
      4 C          -3.1689    5.4116   -0.5241 C.3     1  UNL1        0.0479
      5 O          -2.4615    5.7824    0.6472 O.3     1  UNL1       -0.3797
      6 C          -2.5082    7.1730    0.9111 C.3     1  UNL1        0.0477
      7 C          -1.8863    7.4725    2.2830 C.3     1  UNL1       -0.0281
      8 C          -0.4532    6.9360    2.4484 C.3     1  UNL1       -0.0354
      9 C          -0.4095    5.5329    3.0780 C.3     1  UNL1        0.0092
     10 N           0.9503    5.0254    3.1934 N.pl3   1  UNL1       -0.3438
     11 C           1.5888    4.3324    2.1535 C.ar    1  UNL1        0.0282
     12 C           2.9235    3.9269    2.3582 C.ar    1  UNL1       -0.0355
     13 C           3.6292    3.2256    1.3599 C.ar    1  UNL1       -0.0195
     14 C           2.9810    2.9022    0.1499 C.ar    1  UNL1       -0.0442
     15 C           1.6402    3.2825   -0.0634 C.ar    1  UNL1        0.0388
     16 C           0.9563    4.0202    0.9274 C.ar    1  UNL1       -0.0287
     17 C           0.9734    2.9395   -1.3623 C.2     1  UNL1        0.2444
     18 O           1.4325    3.3766   -2.4151 O.2     1  UNL1       -0.2702
     19 N          -0.1035    2.1292   -1.3488 N.am    1  UNL1       -0.3060
     20 C          -0.7228    1.4088   -0.2304 C.3     1  UNL1        0.0508
     21 C          -2.2674    1.5447   -0.3234 C.3     1  UNL1       -0.0294
     22 C          -0.2680   -0.0779   -0.2316 C.3     1  UNL1        0.0859
     23 C           1.2618   -0.2813   -0.2095 C.3     1  UNL1        0.0240
     24 N           1.6179   -1.6727   -0.4795 N.3     1  UNL1       -0.3095
     25 C           3.0561   -1.9295   -0.4608 C.3     1  UNL1        0.0213
     26 C           3.6448   -1.9092    0.9385 C.ar    1  UNL1       -0.0333
     27 C           4.6767   -1.0039    1.2590 C.ar    1  UNL1       -0.0573
     28 C           5.2234   -0.9891    2.5562 C.ar    1  UNL1       -0.0612
     29 C           4.7401   -1.8757    3.5368 C.ar    1  UNL1       -0.0583
     30 C           3.7059   -2.7858    3.2267 C.ar    1  UNL1       -0.0445
     31 C           3.1640   -2.7979    1.9234 C.ar    1  UNL1       -0.0539
     32 C           3.1760   -3.7491    4.2813 C.3     1  UNL1       -0.0215
     33 C           2.5557   -3.0024    5.4726 C.3     1  UNL1       -0.0586
     34 C           4.2571   -4.7424    4.7348 C.3     1  UNL1       -0.0586
     35 O          -0.7542   -0.6911    0.9477 O.3     1  UNL1       -0.3887
     36 C           5.0681    2.8126    1.6164 C.3     1  UNL1        0.0724
     37 O           5.7491    2.4150    0.4363 O.3     1  UNL1       -0.3784
     38 C           7.1037    2.0748    0.6744 C.3     1  UNL1        0.0369
     39 H          -2.3195    3.2237    1.0110 H       1  UNL1        0.0299
     40 H          -0.4138    1.8324    0.7234 H       1  UNL1        0.0524
     41 H          -0.6945   -0.5837   -1.0993 H       1  UNL1        0.0624
     42 H          -4.9536    2.4396   -0.3147 H       1  UNL1        0.0232
     43 H          -4.7490    3.6392    0.9609 H       1  UNL1        0.0232
     44 H          -4.4383    1.9532    1.2977 H       1  UNL1        0.0232
     45 H          -1.6865    4.1007   -1.2698 H       1  UNL1        0.0290
     46 H          -3.2762    3.7168   -1.8536 H       1  UNL1        0.0290
     47 H          -2.9540    6.1108   -1.3341 H       1  UNL1        0.0560
     48 H          -4.2429    5.4572   -0.3434 H       1  UNL1        0.0560
     49 H          -1.9683    7.7099    0.1297 H       1  UNL1        0.0560
     50 H          -3.5408    7.5253    0.8942 H       1  UNL1        0.0560
     51 H          -1.8734    8.5549    2.4143 H       1  UNL1        0.0288
     52 H          -2.5255    7.0853    3.0772 H       1  UNL1        0.0288
     53 H           0.0627    6.9454    1.4872 H       1  UNL1        0.0281
     54 H           0.1032    7.6161    3.0943 H       1  UNL1        0.0281
     55 H          -0.8251    5.5816    4.0847 H       1  UNL1        0.0461
     56 H          -1.0404    4.8286    2.5377 H       1  UNL1        0.0461
     57 H           1.4578    5.2093    4.0469 H       1  UNL1        0.1461
     58 H           3.4171    4.1608    3.2907 H       1  UNL1        0.0639
     59 H           3.5054    2.3512   -0.6176 H       1  UNL1        0.0628
     60 H          -0.0589    4.3290    0.7305 H       1  UNL1        0.0643
     61 H          -0.5189    1.9448   -2.2504 H       1  UNL1        0.1494
     62 H          -2.7082    0.7820    0.3178 H       1  UNL1        0.0286
     63 H          -2.6099    1.2940   -1.3283 H       1  UNL1        0.0286
     64 H           1.7331    0.3348   -0.9732 H       1  UNL1        0.0450
     65 H           1.6709    0.0487    0.7466 H       1  UNL1        0.0450
     66 H           3.2501   -2.9176   -0.8787 H       1  UNL1        0.0473
     67 H           3.5788   -1.2194   -1.1032 H       1  UNL1        0.0473
     68 H           5.0510   -0.3183    0.5129 H       1  UNL1        0.0621
     69 H           6.0146   -0.2971    2.8020 H       1  UNL1        0.0618
     70 H           5.1678   -1.8537    4.5283 H       1  UNL1        0.0620
     71 H           2.3726   -3.4896    1.6734 H       1  UNL1        0.0623
     72 H           2.3778   -4.3341    3.8225 H       1  UNL1        0.0343
     73 H           1.7546   -2.3398    5.1441 H       1  UNL1        0.0235
     74 H           3.2941   -2.3970    5.9986 H       1  UNL1        0.0235
     75 H           2.1294   -3.7009    6.1931 H       1  UNL1        0.0235
     76 H           4.6524   -5.3044    3.8880 H       1  UNL1        0.0235
     77 H           3.8525   -5.4625    5.4465 H       1  UNL1        0.0235
     78 H           5.0927   -4.2356    5.2180 H       1  UNL1        0.0235
     79 H          -0.4423   -1.5831    0.9672 H       1  UNL1        0.2099
     80 H           5.5927    3.6523    2.0751 H       1  UNL1        0.0610
     81 H           5.0684    1.9959    2.3391 H       1  UNL1        0.0610
     82 H           7.5717    1.7646   -0.2596 H       1  UNL1        0.0524
     83 H           7.1875    1.2495    1.3820 H       1  UNL1        0.0524
     84 H           7.6618    2.9272    1.0640 H       1  UNL1        0.0524
     85 H           1.2251   -1.9679   -1.3675 H       1  UNL1        0.1223
@<TRIPOS>BOND
     1     1     2    1
     2     1    42    1
     3     1    43    1
     4     1    44    1
     5     2    39    1
     6     2    21    1
     7     2     3    1
     8     3     4    1
     9     3    45    1
    10     3    46    1
    11     4     5    1
    12     4    47    1
    13     4    48    1
    14     5     6    1
    15     6     7    1
    16     6    49    1
    17     6    50    1
    18     7     8    1
    19     7    51    1
    20     7    52    1
    21     8     9    1
    22     8    53    1
    23     8    54    1
    24     9    10    1
    25     9    55    1
    26     9    56    1
    27    10    11    1
    28    10    57    1
    29    11    16   ar
    30    11    12   ar
    31    12    13   ar
    32    12    58    1
    33    13    14   ar
    34    13    36    1
    35    14    15   ar
    36    14    59    1
    37    15    16   ar
    38    15    17    1
    39    16    60    1
    40    17    18    2
    41    17    19   am
    42    19    20    1
    43    19    61    1
    44    20    40    1
    45    20    21    1
    46    20    22    1
    47    21    62    1
    48    21    63    1
    49    22    41    1
    50    22    23    1
    51    22    35    1
    52    23    24    1
    53    23    64    1
    54    23    65    1
    55    24    25    1
    56    24    85    1
    57    25    26    1
    58    25    66    1
    59    25    67    1
    60    26    31   ar
    61    26    27   ar
    62    27    28   ar
    63    27    68    1
    64    28    29   ar
    65    28    69    1
    66    29    30   ar
    67    29    70    1
    68    30    31   ar
    69    30    32    1
    70    31    71    1
    71    32    33    1
    72    32    34    1
    73    32    72    1
    74    33    73    1
    75    33    74    1
    76    33    75    1
    77    34    76    1
    78    34    77    1
    79    34    78    1
    80    35    79    1
    81    36    37    1
    82    36    80    1
    83    36    81    1
    84    37    38    1
    85    38    82    1
    86    38    83    1
    87    38    84    1
