BACE_5.smi:1
 OpenBabel09281823033D
Structure written by MMmdl.
 79 80  0  0  1  0  0  0  0  0999 V2000
   21.6778   38.6902   -9.1709 C   0  0  0  0  0  0  0  0  0  0  0  0
   21.9851   39.0464   -7.7066 C   0  0  0  0  0  0  0  0  0  0  0  0
   20.9577   39.9774   -7.0395 C   0  0  0  0  0  0  0  0  0  0  0  0
   19.5481   39.4517   -7.0615 C   0  0  0  0  0  0  0  0  0  0  0  0
   18.3905   40.0437   -7.6397 C   0  0  0  0  0  0  0  0  0  0  0  0
   17.3747   39.1822   -7.3367 C   0  0  0  0  0  0  0  0  0  0  0  0
   17.9454   38.1505   -6.6404 N   0  0  0  0  0  0  0  0  0  0  0  0
   19.2637   38.3187   -6.4421 N   0  0  0  0  0  0  0  0  0  0  0  0
   15.9238   39.2074   -7.6682 C   0  0  0  0  0  0  0  0  0  0  0  0
   15.7799   39.2440   -9.1183 N   0  0  0  0  0  0  0  0  0  0  0  0
   14.7792   40.1732   -9.6199 C   0  0  0  0  0  0  0  0  0  0  0  0
   15.1844   40.6453  -11.0330 C   0  0  2  0  0  0  0  0  0  0  0  0
   16.4069   41.6176  -11.1165 C   0  0  2  0  0  0  0  0  0  0  0  0
   17.7601   40.8622  -11.2324 C   0  0  0  0  0  0  0  0  0  0  0  0
   19.0256   41.7120  -11.5272 C   0  0  1  0  0  0  0  0  0  0  0  0
   19.6903   42.2484  -10.2428 C   0  0  0  0  0  0  0  0  0  0  0  0
   20.7310   43.3552  -10.4623 C   0  0  0  0  0  0  0  0  0  0  0  0
   21.1879   43.9690   -9.1300 C   0  0  0  0  0  0  0  0  0  0  0  0
   22.1772   45.1450   -9.2579 C   0  0  0  0  0  0  0  0  0  0  0  0
   21.6713   46.3669  -10.0523 C   0  0  0  0  0  0  0  0  0  0  0  0
   20.2716   46.8572   -9.6608 C   0  0  0  0  0  0  0  0  0  0  0  0
   20.2210   47.1387   -8.2657 O   0  0  0  0  0  0  0  0  0  0  0  0
   18.9207   47.4320   -7.7633 C   0  0  0  0  0  0  0  0  0  0  0  0
   18.0637   46.1498   -7.6913 C   0  0  0  0  0  0  0  0  0  0  0  0
   18.3354   45.3508   -6.7939 O   0  0  0  0  0  0  0  0  0  0  0  0
   17.0932   45.9164   -8.6185 N   0  0  0  0  0  0  0  0  0  0  0  0
   16.3759   44.6142   -8.6700 C   0  0  2  0  0  0  0  0  0  0  0  0
   16.4447   43.8751  -10.0257 C   0  0  0  0  0  0  0  0  0  0  0  0
   16.5086   44.4913  -11.0915 O   0  0  0  0  0  0  0  0  0  0  0  0
   16.4117   42.5312   -9.9716 N   0  0  0  0  0  0  0  0  0  0  0  0
   14.9266   44.7945   -8.1849 C   0  0  0  0  0  0  0  0  0  0  0  0
   16.6467   46.9731   -9.5414 C   0  0  0  0  0  0  0  0  0  0  0  0
   20.0434   40.8810  -12.3324 C   0  0  0  0  0  0  0  0  0  0  0  0
   14.0599   41.2487  -11.6392 O   0  0  0  0  0  0  0  0  0  0  0  0
   17.4250   37.3408   -6.2981 H   0  0  0  0  0  0  0  0  0  0  0  0
   15.3856   39.7612  -11.6398 H   0  0  0  0  0  0  0  0  0  0  0  0
   16.3113   42.1862  -12.0402 H   0  0  0  0  0  0  0  0  0  0  0  0
   18.7267   42.5570  -12.1503 H   0  0  0  0  0  0  0  0  0  0  0  0
   16.8323   43.9199   -7.9614 H   0  0  0  0  0  0  0  0  0  0  0  0
   22.4584   38.0424   -9.5764 H   0  0  0  0  0  0  0  0  0  0  0  0
   21.6347   39.5836   -9.7965 H   0  0  0  0  0  0  0  0  0  0  0  0
   20.7277   38.1569   -9.2644 H   0  0  0  0  0  0  0  0  0  0  0  0
   22.9721   39.5081   -7.6602 H   0  0  0  0  0  0  0  0  0  0  0  0
   22.0569   38.1260   -7.1292 H   0  0  0  0  0  0  0  0  0  0  0  0
   20.9882   40.9503   -7.5285 H   0  0  0  0  0  0  0  0  0  0  0  0
   21.2587   40.1559   -6.0089 H   0  0  0  0  0  0  0  0  0  0  0  0
   18.3066   40.9723   -8.1708 H   0  0  0  0  0  0  0  0  0  0  0  0
   15.4753   40.0810   -7.1950 H   0  0  0  0  0  0  0  0  0  0  0  0
   15.4121   38.3369   -7.2558 H   0  0  0  0  0  0  0  0  0  0  0  0
   15.5437   38.3116   -9.4379 H   0  0  0  0  0  0  0  0  0  0  0  0
   14.6503   41.0251   -8.9556 H   0  0  0  0  0  0  0  0  0  0  0  0
   13.8121   39.6685   -9.6427 H   0  0  0  0  0  0  0  0  0  0  0  0
   17.9387   40.2400  -10.3582 H   0  0  0  0  0  0  0  0  0  0  0  0
   17.6421   40.1496  -12.0446 H   0  0  0  0  0  0  0  0  0  0  0  0
   18.9348   42.6493   -9.5741 H   0  0  0  0  0  0  0  0  0  0  0  0
   20.1501   41.4255   -9.6989 H   0  0  0  0  0  0  0  0  0  0  0  0
   20.2997   44.1287  -11.0990 H   0  0  0  0  0  0  0  0  0  0  0  0
   21.5995   42.9654  -10.9936 H   0  0  0  0  0  0  0  0  0  0  0  0
   20.3188   44.2931   -8.5535 H   0  0  0  0  0  0  0  0  0  0  0  0
   21.6553   43.1920   -8.5226 H   0  0  0  0  0  0  0  0  0  0  0  0
   23.1039   44.7856   -9.7073 H   0  0  0  0  0  0  0  0  0  0  0  0
   22.4483   45.4716   -8.2524 H   0  0  0  0  0  0  0  0  0  0  0  0
   22.3862   47.1819   -9.9321 H   0  0  0  0  0  0  0  0  0  0  0  0
   21.6721   46.1270  -11.1165 H   0  0  0  0  0  0  0  0  0  0  0  0
   19.5455   46.1019   -9.9500 H   0  0  0  0  0  0  0  0  0  0  0  0
   20.0260   47.7615  -10.2163 H   0  0  0  0  0  0  0  0  0  0  0  0
   18.4742   48.2508   -8.3252 H   0  0  0  0  0  0  0  0  0  0  0  0
   19.0431   47.8085   -6.7463 H   0  0  0  0  0  0  0  0  0  0  0  0
   16.3595   42.1006   -9.0568 H   0  0  0  0  0  0  0  0  0  0  0  0
   14.4510   43.8241   -8.0359 H   0  0  0  0  0  0  0  0  0  0  0  0
   14.3306   45.3285   -8.9219 H   0  0  0  0  0  0  0  0  0  0  0  0
   14.8853   45.3475   -7.2447 H   0  0  0  0  0  0  0  0  0  0  0  0
   15.7355   46.7020  -10.0767 H   0  0  0  0  0  0  0  0  0  0  0  0
   17.4081   47.1904  -10.2906 H   0  0  0  0  0  0  0  0  0  0  0  0
   16.4095   47.8912   -9.0040 H   0  0  0  0  0  0  0  0  0  0  0  0
   20.9187   41.4623  -12.6200 H   0  0  0  0  0  0  0  0  0  0  0  0
   19.6012   40.4989  -13.2487 H   0  0  0  0  0  0  0  0  0  0  0  0
   20.3904   40.0175  -11.7637 H   0  0  0  0  0  0  0  0  0  0  0  0
   13.2913   40.8505  -11.2412 H   0  0  0  0  0  0  0  0  0  0  0  0
  1  2  1  0  0  0  0
  1 40  1  0  0  0  0
  1 41  1  0  0  0  0
  1 42  1  0  0  0  0
  2  3  1  0  0  0  0
  2 43  1  0  0  0  0
  2 44  1  0  0  0  0
  3 45  1  0  0  0  0
  3 46  1  0  0  0  0
  3  4  1  0  0  0  0
  4  8  2  0  0  0  0
  4  5  1  0  0  0  0
  5  6  2  0  0  0  0
  5 47  1  0  0  0  0
  6  7  1  0  0  0  0
  6  9  1  0  0  0  0
  7  8  1  0  0  0  0
  7 35  1  0  0  0  0
  9 10  1  0  0  0  0
  9 48  1  0  0  0  0
  9 49  1  0  0  0  0
 10 11  1  0  0  0  0
 10 50  1  0  0  0  0
 11 12  1  0  0  0  0
 11 51  1  0  0  0  0
 11 52  1  0  0  0  0
 12 36  1  6  0  0  0
 12 13  1  0  0  0  0
 12 34  1  0  0  0  0
 13 37  1  6  0  0  0
 13 30  1  0  0  0  0
 13 14  1  0  0  0  0
 14 15  1  0  0  0  0
 14 53  1  0  0  0  0
 14 54  1  0  0  0  0
 15 38  1  6  0  0  0
 15 16  1  0  0  0  0
 15 33  1  0  0  0  0
 16 17  1  0  0  0  0
 16 55  1  0  0  0  0
 16 56  1  0  0  0  0
 17 18  1  0  0  0  0
 17 57  1  0  0  0  0
 17 58  1  0  0  0  0
 18 19  1  0  0  0  0
 18 59  1  0  0  0  0
 18 60  1  0  0  0  0
 19 20  1  0  0  0  0
 19 61  1  0  0  0  0
 19 62  1  0  0  0  0
 20 21  1  0  0  0  0
 20 63  1  0  0  0  0
 20 64  1  0  0  0  0
 21 22  1  0  0  0  0
 21 65  1  0  0  0  0
 21 66  1  0  0  0  0
 22 23  1  0  0  0  0
 23 24  1  0  0  0  0
 23 67  1  0  0  0  0
 23 68  1  0  0  0  0
 24 25  2  0  0  0  0
 24 26  1  0  0  0  0
 26 27  1  0  0  0  0
 26 32  1  0  0  0  0
 27 39  1  1  0  0  0
 27 28  1  0  0  0  0
 27 31  1  0  0  0  0
 28 29  2  0  0  0  0
 28 30  1  0  0  0  0
 30 69  1  0  0  0  0
 31 70  1  0  0  0  0
 31 71  1  0  0  0  0
 31 72  1  0  0  0  0
 32 73  1  0  0  0  0
 32 74  1  0  0  0  0
 32 75  1  0  0  0  0
 33 76  1  0  0  0  0
 33 77  1  0  0  0  0
 33 78  1  0  0  0  0
 34 79  1  0  0  0  0
M  END
