BACE_12.smi:1
 OpenBabel09281823033D
Structure written by MMmdl.
 78 81  0  0  1  0  0  0  0  0999 V2000
   30.3306   45.7914   -9.1817 C   0  0  0  0  0  0  0  0  0  0  0  0
   29.9238   44.3587   -8.8075 C   0  0  0  0  0  0  0  0  0  0  0  0
   31.1439   43.4241   -8.7775 C   0  0  0  0  0  0  0  0  0  0  0  0
   28.8051   43.8590   -9.7167 C   0  0  0  0  0  0  0  0  0  0  0  0
   29.0762   43.4405  -11.0387 C   0  0  0  0  0  0  0  0  0  0  0  0
   28.0244   43.0407  -11.8868 C   0  0  0  0  0  0  0  0  0  0  0  0
   26.6931   43.0705  -11.4281 C   0  0  0  0  0  0  0  0  0  0  0  0
   26.4088   43.4701  -10.1032 C   0  0  0  0  0  0  0  0  0  0  0  0
   27.4691   43.8580   -9.2541 C   0  0  0  0  0  0  0  0  0  0  0  0
   24.9743   43.5193   -9.5966 C   0  0  0  0  0  0  0  0  0  0  0  0
   24.4280   42.1999   -9.2592 N   0  0  0  0  0  0  0  0  0  0  0  0
   23.8229   41.4687  -10.3757 C   0  0  0  0  0  0  0  0  0  0  0  0
   22.3834   41.9392  -10.7080 C   0  0  2  0  0  0  0  0  0  0  0  0
   21.3010   41.3389   -9.7714 C   0  0  2  0  0  0  0  0  0  0  0  0
   21.2516   39.7865   -9.7728 C   0  0  0  0  0  0  0  0  0  0  0  0
   20.1361   39.2318   -8.9088 C   0  0  0  0  0  0  0  0  0  0  0  0
   20.2113   39.4048   -7.5119 C   0  0  0  0  0  0  0  0  0  0  0  0
   19.1686   38.9498   -6.6904 C   0  0  0  0  0  0  0  0  0  0  0  0
   18.0593   38.3069   -7.2607 C   0  0  0  0  0  0  0  0  0  0  0  0
   17.9757   38.1144   -8.6535 C   0  0  0  0  0  0  0  0  0  0  0  0
   19.0229   38.5764   -9.4809 C   0  0  0  0  0  0  0  0  0  0  0  0
   16.7514   37.4270   -9.2398 C   0  0  0  0  0  0  0  0  0  0  0  0
   15.5024   38.3254   -9.2215 C   0  0  0  0  0  0  0  0  0  0  0  0
   15.5281   39.4574  -10.2647 C   0  0  0  0  0  0  0  0  0  0  0  0
   14.7762   40.7081   -9.7747 C   0  0  0  0  0  0  0  0  0  0  0  0
   14.7823   41.7925  -10.7467 N   0  0  0  0  0  0  0  0  0  0  0  0
   15.8621   42.6827  -10.8404 C   0  0  0  0  0  0  0  0  0  0  0  0
   17.1269   42.4348  -10.2671 C   0  0  0  0  0  0  0  0  0  0  0  0
   18.1616   43.3722  -10.4674 C   0  0  0  0  0  0  0  0  0  0  0  0
   17.8732   44.5506  -11.1847 C   0  0  0  0  0  0  0  0  0  0  0  0
   16.5717   44.7221  -11.7132 C   0  0  0  0  0  0  0  0  0  0  0  0
   15.6008   43.7956  -11.5592 N   0  0  0  0  0  0  0  0  0  0  0  0
   16.1621   45.8179  -12.4409 O   0  0  0  0  0  0  0  0  0  0  0  0
   17.1098   46.8545  -12.6710 C   0  0  0  0  0  0  0  0  0  0  0  0
   19.5398   43.1258   -9.9276 C   0  0  0  0  0  0  0  0  0  0  0  0
   20.2244   44.0403   -9.4703 O   0  0  0  0  0  0  0  0  0  0  0  0
   19.9712   41.8674  -10.0858 N   0  0  0  0  0  0  0  0  0  0  0  0
   22.0599   41.5845  -12.0371 O   0  0  0  0  0  0  0  0  0  0  0  0
   22.3517   43.0277  -10.6713 H   0  0  0  0  0  0  0  0  0  0  0  0
   21.5326   41.6587   -8.7539 H   0  0  0  0  0  0  0  0  0  0  0  0
   29.4732   46.4643   -9.1396 H   0  0  0  0  0  0  0  0  0  0  0  0
   30.7408   45.8365  -10.1912 H   0  0  0  0  0  0  0  0  0  0  0  0
   31.0875   46.1764   -8.4971 H   0  0  0  0  0  0  0  0  0  0  0  0
   29.5286   44.3901   -7.7922 H   0  0  0  0  0  0  0  0  0  0  0  0
   30.8590   42.4225   -8.4663 H   0  0  0  0  0  0  0  0  0  0  0  0
   31.8904   43.7817   -8.0682 H   0  0  0  0  0  0  0  0  0  0  0  0
   31.6318   43.3513   -9.7497 H   0  0  0  0  0  0  0  0  0  0  0  0
   30.0875   43.4377  -11.4191 H   0  0  0  0  0  0  0  0  0  0  0  0
   28.2379   42.7253  -12.8982 H   0  0  0  0  0  0  0  0  0  0  0  0
   25.9001   42.7923  -12.1027 H   0  0  0  0  0  0  0  0  0  0  0  0
   27.2524   44.1793   -8.2445 H   0  0  0  0  0  0  0  0  0  0  0  0
   24.9633   44.1440   -8.7035 H   0  0  0  0  0  0  0  0  0  0  0  0
   24.3481   44.0358  -10.3244 H   0  0  0  0  0  0  0  0  0  0  0  0
   23.7825   42.2742   -8.4807 H   0  0  0  0  0  0  0  0  0  0  0  0
   24.4624   41.5715  -11.2397 H   0  0  0  0  0  0  0  0  0  0  0  0
   23.8355   40.4025  -10.1641 H   0  0  0  0  0  0  0  0  0  0  0  0
   21.1394   39.4073  -10.7903 H   0  0  0  0  0  0  0  0  0  0  0  0
   22.1797   39.3598   -9.3903 H   0  0  0  0  0  0  0  0  0  0  0  0
   21.0595   39.9042   -7.0641 H   0  0  0  0  0  0  0  0  0  0  0  0
   19.2103   39.1027   -5.6244 H   0  0  0  0  0  0  0  0  0  0  0  0
   17.2618   37.9752   -6.6153 H   0  0  0  0  0  0  0  0  0  0  0  0
   18.9589   38.4444  -10.5522 H   0  0  0  0  0  0  0  0  0  0  0  0
   16.9594   37.0779  -10.2506 H   0  0  0  0  0  0  0  0  0  0  0  0
   16.5562   36.5335   -8.6435 H   0  0  0  0  0  0  0  0  0  0  0  0
   14.6106   37.7257   -9.4027 H   0  0  0  0  0  0  0  0  0  0  0  0
   15.3775   38.7314   -8.2163 H   0  0  0  0  0  0  0  0  0  0  0  0
   16.5582   39.7100  -10.5057 H   0  0  0  0  0  0  0  0  0  0  0  0
   15.0922   39.1040  -11.1993 H   0  0  0  0  0  0  0  0  0  0  0  0
   13.7364   40.4470   -9.5756 H   0  0  0  0  0  0  0  0  0  0  0  0
   15.1893   41.0573   -8.8276 H   0  0  0  0  0  0  0  0  0  0  0  0
   13.8769   42.1656  -10.9899 H   0  0  0  0  0  0  0  0  0  0  0  0
   17.3134   41.5471   -9.6808 H   0  0  0  0  0  0  0  0  0  0  0  0
   18.6546   45.2818  -11.3281 H   0  0  0  0  0  0  0  0  0  0  0  0
   16.6424   47.6497  -13.2543 H   0  0  0  0  0  0  0  0  0  0  0  0
   17.9698   46.4909  -13.2375 H   0  0  0  0  0  0  0  0  0  0  0  0
   17.4533   47.2923  -11.7314 H   0  0  0  0  0  0  0  0  0  0  0  0
   19.3238   41.2138  -10.4960 H   0  0  0  0  0  0  0  0  0  0  0  0
   22.8424   41.2541  -12.4728 H   0  0  0  0  0  0  0  0  0  0  0  0
  1  2  1  0  0  0  0
  1 41  1  0  0  0  0
  1 42  1  0  0  0  0
  1 43  1  0  0  0  0
  2  3  1  0  0  0  0
  2  4  1  0  0  0  0
  2 44  1  0  0  0  0
  3 45  1  0  0  0  0
  3 46  1  0  0  0  0
  3 47  1  0  0  0  0
  4  9  1  0  0  0  0
  4  5  2  0  0  0  0
  5  6  1  0  0  0  0
  5 48  1  0  0  0  0
  6  7  2  0  0  0  0
  6 49  1  0  0  0  0
  7  8  1  0  0  0  0
  7 50  1  0  0  0  0
  8  9  2  0  0  0  0
  8 10  1  0  0  0  0
  9 51  1  0  0  0  0
 10 11  1  0  0  0  0
 10 52  1  0  0  0  0
 10 53  1  0  0  0  0
 11 12  1  0  0  0  0
 11 54  1  0  0  0  0
 12 13  1  0  0  0  0
 12 55  1  0  0  0  0
 12 56  1  0  0  0  0
 13 39  1  1  0  0  0
 13 14  1  0  0  0  0
 13 38  1  0  0  0  0
 14 40  1  1  0  0  0
 14 37  1  0  0  0  0
 14 15  1  0  0  0  0
 15 16  1  0  0  0  0
 15 57  1  0  0  0  0
 15 58  1  0  0  0  0
 16 21  1  0  0  0  0
 16 17  2  0  0  0  0
 17 18  1  0  0  0  0
 17 59  1  0  0  0  0
 18 19  2  0  0  0  0
 18 60  1  0  0  0  0
 19 20  1  0  0  0  0
 19 61  1  0  0  0  0
 20 21  2  0  0  0  0
 20 22  1  0  0  0  0
 21 62  1  0  0  0  0
 22 23  1  0  0  0  0
 22 63  1  0  0  0  0
 22 64  1  0  0  0  0
 23 24  1  0  0  0  0
 23 65  1  0  0  0  0
 23 66  1  0  0  0  0
 24 25  1  0  0  0  0
 24 67  1  0  0  0  0
 24 68  1  0  0  0  0
 25 26  1  0  0  0  0
 25 69  1  0  0  0  0
 25 70  1  0  0  0  0
 26 27  1  0  0  0  0
 26 71  1  0  0  0  0
 27 32  1  0  0  0  0
 27 28  2  0  0  0  0
 28 29  1  0  0  0  0
 28 72  1  0  0  0  0
 29 30  2  0  0  0  0
 29 35  1  0  0  0  0
 30 31  1  0  0  0  0
 30 73  1  0  0  0  0
 31 32  2  0  0  0  0
 31 33  1  0  0  0  0
 33 34  1  0  0  0  0
 34 74  1  0  0  0  0
 34 75  1  0  0  0  0
 34 76  1  0  0  0  0
 35 36  2  0  0  0  0
 35 37  1  0  0  0  0
 37 77  1  0  0  0  0
 38 78  1  0  0  0  0
M  END
