BACE_3.smi:1
 OpenBabel09281823033D
Structure written by MMmdl.
 85 86  0  0  1  0  0  0  0  0999 V2000
   21.4760   39.2192   -8.3792 C   0  0  0  0  0  0  0  0  0  0  0  0
   22.5455   40.1346   -8.3785 C   0  0  0  0  0  0  0  0  0  0  0  0
   22.7091   41.0221   -7.2987 C   0  0  0  0  0  0  0  0  0  0  0  0
   21.8129   40.9980   -6.2087 C   0  0  0  0  0  0  0  0  0  0  0  0
   22.0279   41.9375   -5.0257 C   0  0  0  0  0  0  0  0  0  0  0  0
   20.9185   42.9950   -4.9255 C   0  0  0  0  0  0  0  0  0  0  0  0
   22.2023   41.1637   -3.7065 C   0  0  0  0  0  0  0  0  0  0  0  0
   20.7273   40.0923   -6.2277 C   0  0  0  0  0  0  0  0  0  0  0  0
   20.5581   39.2025   -7.3095 C   0  0  0  0  0  0  0  0  0  0  0  0
   19.3996   38.2261   -7.3289 C   0  0  0  0  0  0  0  0  0  0  0  0
   18.1415   38.8587   -7.7003 N   0  0  0  0  0  0  0  0  0  0  0  0
   17.2717   37.9916   -8.4982 C   0  0  0  0  0  0  0  0  0  0  0  0
   15.8575   38.5908   -8.6804 C   0  0  0  0  0  0  0  0  0  0  0  0
   15.2410   38.5500   -7.4130 O   0  0  0  0  0  0  0  0  0  0  0  0
   15.1694   37.7816   -9.6043 O   0  0  0  0  0  0  0  0  0  0  0  0
   15.8027   40.0603   -9.1910 C   0  0  1  0  0  0  0  0  0  0  0  0
   16.7476   40.2789  -10.2906 N   0  0  0  0  0  0  0  0  0  0  0  0
   17.7474   41.1770  -10.3119 C   0  0  0  0  0  0  0  0  0  0  0  0
   18.0056   41.9254   -9.3682 O   0  0  0  0  0  0  0  0  0  0  0  0
   18.5414   41.2701  -11.6269 C   0  0  2  0  0  0  0  0  0  0  0  0
   19.6251   40.1687  -11.6295 C   0  0  0  0  0  0  0  0  0  0  0  0
   14.3669   40.5420   -9.5701 C   0  0  0  0  0  0  0  0  0  0  0  0
   14.1056   42.0717   -9.6825 C   0  0  2  0  0  0  0  0  0  0  0  0
   14.5378   42.6266  -11.0501 C   0  0  0  0  0  0  0  0  0  0  0  0
   14.5851   42.8786   -8.4444 C   0  0  0  0  0  0  0  0  0  0  0  0
   14.6152   44.4107   -8.5866 C   0  0  0  0  0  0  0  0  0  0  0  0
   16.0343   44.8873   -8.9329 C   0  0  0  0  0  0  0  0  0  0  0  0
   16.1615   46.3865   -9.2260 C   0  0  0  0  0  0  0  0  0  0  0  0
   17.6237   46.8671   -9.3111 C   0  0  0  0  0  0  0  0  0  0  0  0
   18.5252   46.0321  -10.2389 C   0  0  0  0  0  0  0  0  0  0  0  0
   18.0854   46.0423  -11.7131 C   0  0  0  0  0  0  0  0  0  0  0  0
   18.8600   45.0417  -12.5854 C   0  0  0  0  0  0  0  0  0  0  0  0
   18.3571   43.5934  -12.4343 C   0  0  0  0  0  0  0  0  0  0  0  0
   17.2600   43.3497  -12.9343 O   0  0  0  0  0  0  0  0  0  0  0  0
   19.1013   42.6389  -11.8096 N   0  0  0  0  0  0  0  0  0  0  0  0
   20.4265   42.9332  -11.2395 C   0  0  0  0  0  0  0  0  0  0  0  0
   16.1499   40.6305   -8.3338 H   0  0  0  0  0  0  0  0  0  0  0  0
   17.8583   41.0323  -12.4398 H   0  0  0  0  0  0  0  0  0  0  0  0
   13.0196   42.1784   -9.6868 H   0  0  0  0  0  0  0  0  0  0  0  0
   21.3603   38.5373   -9.2080 H   0  0  0  0  0  0  0  0  0  0  0  0
   23.2454   40.1468   -9.2028 H   0  0  0  0  0  0  0  0  0  0  0  0
   23.5372   41.7152   -7.3089 H   0  0  0  0  0  0  0  0  0  0  0  0
   22.9615   42.4741   -5.2003 H   0  0  0  0  0  0  0  0  0  0  0  0
   20.8427   43.5712   -5.8480 H   0  0  0  0  0  0  0  0  0  0  0  0
   21.1150   43.6950   -4.1139 H   0  0  0  0  0  0  0  0  0  0  0  0
   19.9437   42.5448   -4.7396 H   0  0  0  0  0  0  0  0  0  0  0  0
   23.0219   40.4491   -3.7779 H   0  0  0  0  0  0  0  0  0  0  0  0
   21.3014   40.6105   -3.4409 H   0  0  0  0  0  0  0  0  0  0  0  0
   22.4281   41.8407   -2.8818 H   0  0  0  0  0  0  0  0  0  0  0  0
   20.0215   40.0739   -5.4084 H   0  0  0  0  0  0  0  0  0  0  0  0
   19.3040   37.7502   -6.3532 H   0  0  0  0  0  0  0  0  0  0  0  0
   19.6459   37.4382   -8.0416 H   0  0  0  0  0  0  0  0  0  0  0  0
   17.6291   39.1110   -6.8568 H   0  0  0  0  0  0  0  0  0  0  0  0
   17.1902   37.0051   -8.0379 H   0  0  0  0  0  0  0  0  0  0  0  0
   17.7294   37.8274   -9.4744 H   0  0  0  0  0  0  0  0  0  0  0  0
   15.4607   37.7257   -6.9708 H   0  0  0  0  0  0  0  0  0  0  0  0
   14.2936   38.1353   -9.6681 H   0  0  0  0  0  0  0  0  0  0  0  0
   16.6351   39.6786  -11.0938 H   0  0  0  0  0  0  0  0  0  0  0  0
   19.1676   39.1807  -11.6780 H   0  0  0  0  0  0  0  0  0  0  0  0
   20.2424   40.1721  -10.7325 H   0  0  0  0  0  0  0  0  0  0  0  0
   20.2833   40.2611  -12.4937 H   0  0  0  0  0  0  0  0  0  0  0  0
   14.0604   40.0649  -10.5017 H   0  0  0  0  0  0  0  0  0  0  0  0
   13.6624   40.1472   -8.8401 H   0  0  0  0  0  0  0  0  0  0  0  0
   14.2112   43.6526  -11.2097 H   0  0  0  0  0  0  0  0  0  0  0  0
   14.0947   42.0365  -11.8492 H   0  0  0  0  0  0  0  0  0  0  0  0
   15.6130   42.6062  -11.1744 H   0  0  0  0  0  0  0  0  0  0  0  0
   13.9520   42.6102   -7.6039 H   0  0  0  0  0  0  0  0  0  0  0  0
   15.5784   42.5791   -8.1305 H   0  0  0  0  0  0  0  0  0  0  0  0
   14.3239   44.8641   -7.6401 H   0  0  0  0  0  0  0  0  0  0  0  0
   13.8826   44.7472   -9.3180 H   0  0  0  0  0  0  0  0  0  0  0  0
   16.6965   44.6325   -8.1030 H   0  0  0  0  0  0  0  0  0  0  0  0
   16.3956   44.3229   -9.7915 H   0  0  0  0  0  0  0  0  0  0  0  0
   15.6600   46.9465   -8.4412 H   0  0  0  0  0  0  0  0  0  0  0  0
   15.6388   46.6230  -10.1505 H   0  0  0  0  0  0  0  0  0  0  0  0
   17.6435   47.9120   -9.6220 H   0  0  0  0  0  0  0  0  0  0  0  0
   18.0561   46.8479   -8.3095 H   0  0  0  0  0  0  0  0  0  0  0  0
   18.5743   45.0086   -9.8661 H   0  0  0  0  0  0  0  0  0  0  0  0
   19.5461   46.4097  -10.1733 H   0  0  0  0  0  0  0  0  0  0  0  0
   17.0194   45.8285  -11.7946 H   0  0  0  0  0  0  0  0  0  0  0  0
   18.2149   47.0468  -12.1154 H   0  0  0  0  0  0  0  0  0  0  0  0
   19.9316   45.1521  -12.4382 H   0  0  0  0  0  0  0  0  0  0  0  0
   18.6855   45.3139  -13.6269 H   0  0  0  0  0  0  0  0  0  0  0  0
   20.7209   42.2318  -10.4607 H   0  0  0  0  0  0  0  0  0  0  0  0
   20.4649   43.9043  -10.7480 H   0  0  0  0  0  0  0  0  0  0  0  0
   21.1844   42.9115  -12.0267 H   0  0  0  0  0  0  0  0  0  0  0  0
  1  9  1  0  0  0  0
  1  2  2  0  0  0  0
  1 40  1  0  0  0  0
  2  3  1  0  0  0  0
  2 41  1  0  0  0  0
  3  4  2  0  0  0  0
  3 42  1  0  0  0  0
  4  5  1  0  0  0  0
  4  8  1  0  0  0  0
  5  6  1  0  0  0  0
  5  7  1  0  0  0  0
  5 43  1  0  0  0  0
  6 44  1  0  0  0  0
  6 45  1  0  0  0  0
  6 46  1  0  0  0  0
  7 47  1  0  0  0  0
  7 48  1  0  0  0  0
  7 49  1  0  0  0  0
  8  9  2  0  0  0  0
  8 50  1  0  0  0  0
  9 10  1  0  0  0  0
 10 11  1  0  0  0  0
 10 51  1  0  0  0  0
 10 52  1  0  0  0  0
 11 12  1  0  0  0  0
 11 53  1  0  0  0  0
 12 13  1  0  0  0  0
 12 54  1  0  0  0  0
 12 55  1  0  0  0  0
 13 14  1  0  0  0  0
 13 15  1  0  0  0  0
 13 16  1  0  0  0  0
 14 56  1  0  0  0  0
 15 57  1  0  0  0  0
 16 37  1  1  0  0  0
 16 17  1  0  0  0  0
 16 22  1  0  0  0  0
 17 18  1  0  0  0  0
 17 58  1  0  0  0  0
 18 19  2  0  0  0  0
 18 20  1  0  0  0  0
 20 38  1  6  0  0  0
 20 35  1  0  0  0  0
 20 21  1  0  0  0  0
 21 59  1  0  0  0  0
 21 60  1  0  0  0  0
 21 61  1  0  0  0  0
 22 23  1  0  0  0  0
 22 62  1  0  0  0  0
 22 63  1  0  0  0  0
 23 39  1  1  0  0  0
 23 24  1  0  0  0  0
 23 25  1  0  0  0  0
 24 64  1  0  0  0  0
 24 65  1  0  0  0  0
 24 66  1  0  0  0  0
 25 26  1  0  0  0  0
 25 67  1  0  0  0  0
 25 68  1  0  0  0  0
 26 27  1  0  0  0  0
 26 69  1  0  0  0  0
 26 70  1  0  0  0  0
 27 28  1  0  0  0  0
 27 71  1  0  0  0  0
 27 72  1  0  0  0  0
 28 29  1  0  0  0  0
 28 73  1  0  0  0  0
 28 74  1  0  0  0  0
 29 30  1  0  0  0  0
 29 75  1  0  0  0  0
 29 76  1  0  0  0  0
 30 31  1  0  0  0  0
 30 77  1  0  0  0  0
 30 78  1  0  0  0  0
 31 32  1  0  0  0  0
 31 79  1  0  0  0  0
 31 80  1  0  0  0  0
 32 33  1  0  0  0  0
 32 81  1  0  0  0  0
 32 82  1  0  0  0  0
 33 34  2  0  0  0  0
 33 35  1  0  0  0  0
 35 36  1  0  0  0  0
 36 83  1  0  0  0  0
 36 84  1  0  0  0  0
 36 85  1  0  0  0  0
M  END
