BACE_5.smi:1
 OpenBabel09281823033D
Structure written by MMmdl.
 79 80  0  0  1  0  0  0  0  0999 V2000
   22.4571   43.8948    1.3220 C   0  0  0  0  0  0  0  0  0  0  0  0
   21.4985   44.4126    0.2451 C   0  0  0  0  0  0  0  0  0  0  0  0
   20.4333   43.3878   -0.1946 C   0  0  0  0  0  0  0  0  0  0  0  0
   20.7739   42.5499   -1.3896 C   0  0  0  0  0  0  0  0  0  0  0  0
   21.7287   42.6590   -2.3634 C   0  0  0  0  0  0  0  0  0  0  0  0
   21.4924   41.5581   -3.2363 C   0  0  0  0  0  0  0  0  0  0  0  0
   20.4603   40.8273   -2.8388 N   0  0  0  0  0  0  0  0  0  0  0  0
   20.0451   41.4289   -1.7104 N   0  0  0  0  0  0  0  0  0  0  0  0
   22.2566   41.2094   -4.4910 C   0  0  0  0  0  0  0  0  0  0  0  0
   21.7049   40.0464   -5.1886 N   0  0  0  0  0  0  0  0  0  0  0  0
   22.1850   39.7967   -6.5491 C   0  0  0  0  0  0  0  0  0  0  0  0
   21.7371   40.8615   -7.5773 C   0  0  2  0  0  0  0  0  0  0  0  0
   20.2050   40.9771   -7.7754 C   0  0  2  0  0  0  0  0  0  0  0  0
   19.5379   39.7222   -8.4019 C   0  0  0  0  0  0  0  0  0  0  0  0
   18.1985   39.3234   -7.7401 C   0  0  1  0  0  0  0  0  0  0  0  0
   17.3629   38.3617   -8.6155 C   0  0  0  0  0  0  0  0  0  0  0  0
   16.7665   38.9589   -9.9063 C   0  0  0  0  0  0  0  0  0  0  0  0
   15.7462   40.0829   -9.6607 C   0  0  0  0  0  0  0  0  0  0  0  0
   15.0127   40.5137  -10.9435 C   0  0  0  0  0  0  0  0  0  0  0  0
   13.9253   41.5750  -10.6948 C   0  0  0  0  0  0  0  0  0  0  0  0
   14.4797   42.9763  -10.4187 C   0  0  0  0  0  0  0  0  0  0  0  0
   14.9798   43.5073  -11.6399 O   0  0  0  0  0  0  0  0  0  0  0  0
   15.7701   44.6814  -11.5106 C   0  0  0  0  0  0  0  0  0  0  0  0
   17.1884   44.3041  -11.0482 C   0  0  0  0  0  0  0  0  0  0  0  0
   17.8678   43.6507  -11.8433 O   0  0  0  0  0  0  0  0  0  0  0  0
   17.6407   44.6768   -9.8200 N   0  0  0  0  0  0  0  0  0  0  0  0
   18.9996   44.2676   -9.3801 C   0  0  2  0  0  0  0  0  0  0  0  0
   18.9467   43.0336   -8.4613 C   0  0  0  0  0  0  0  0  0  0  0  0
   18.0401   42.8960   -7.6402 O   0  0  0  0  0  0  0  0  0  0  0  0
   19.9589   42.1646   -8.5913 N   0  0  0  0  0  0  0  0  0  0  0  0
   19.7245   45.4133   -8.6373 C   0  0  0  0  0  0  0  0  0  0  0  0
   16.7918   45.4167   -8.8663 C   0  0  0  0  0  0  0  0  0  0  0  0
   18.4357   38.6783   -6.3623 C   0  0  0  0  0  0  0  0  0  0  0  0
   22.3511   40.5576   -8.8152 O   0  0  0  0  0  0  0  0  0  0  0  0
   19.2269   41.0942   -1.2069 H   0  0  0  0  0  0  0  0  0  0  0  0
   22.1284   41.8335   -7.2792 H   0  0  0  0  0  0  0  0  0  0  0  0
   19.7754   41.1626   -6.7889 H   0  0  0  0  0  0  0  0  0  0  0  0
   17.6111   40.2236   -7.5649 H   0  0  0  0  0  0  0  0  0  0  0  0
   19.6264   44.0261  -10.2424 H   0  0  0  0  0  0  0  0  0  0  0  0
   23.2593   44.6076    1.5034 H   0  0  0  0  0  0  0  0  0  0  0  0
   22.9116   42.9501    1.0337 H   0  0  0  0  0  0  0  0  0  0  0  0
   21.9414   43.7482    2.2689 H   0  0  0  0  0  0  0  0  0  0  0  0
   22.0600   44.7876   -0.6077 H   0  0  0  0  0  0  0  0  0  0  0  0
   20.9865   45.2820    0.6600 H   0  0  0  0  0  0  0  0  0  0  0  0
   19.5218   43.9263   -0.4400 H   0  0  0  0  0  0  0  0  0  0  0  0
   20.1633   42.7488    0.6466 H   0  0  0  0  0  0  0  0  0  0  0  0
   22.4886   43.4191   -2.4532 H   0  0  0  0  0  0  0  0  0  0  0  0
   23.3032   41.0278   -4.2492 H   0  0  0  0  0  0  0  0  0  0  0  0
   22.2459   42.0839   -5.1411 H   0  0  0  0  0  0  0  0  0  0  0  0
   20.6898   40.0770   -5.1346 H   0  0  0  0  0  0  0  0  0  0  0  0
   21.8537   38.8092   -6.8679 H   0  0  0  0  0  0  0  0  0  0  0  0
   23.2719   39.7506   -6.5396 H   0  0  0  0  0  0  0  0  0  0  0  0
   19.3982   39.9007   -9.4680 H   0  0  0  0  0  0  0  0  0  0  0  0
   20.2027   38.8598   -8.3545 H   0  0  0  0  0  0  0  0  0  0  0  0
   17.9732   37.4957   -8.8720 H   0  0  0  0  0  0  0  0  0  0  0  0
   16.5347   37.9700   -8.0208 H   0  0  0  0  0  0  0  0  0  0  0  0
   16.2643   38.1531  -10.4390 H   0  0  0  0  0  0  0  0  0  0  0  0
   17.5494   39.3076  -10.5764 H   0  0  0  0  0  0  0  0  0  0  0  0
   15.0123   39.7480   -8.9245 H   0  0  0  0  0  0  0  0  0  0  0  0
   16.2555   40.9396   -9.2229 H   0  0  0  0  0  0  0  0  0  0  0  0
   14.5366   39.6357  -11.3817 H   0  0  0  0  0  0  0  0  0  0  0  0
   15.7321   40.8747  -11.6791 H   0  0  0  0  0  0  0  0  0  0  0  0
   13.2604   41.6243  -11.5553 H   0  0  0  0  0  0  0  0  0  0  0  0
   13.3023   41.2569   -9.8578 H   0  0  0  0  0  0  0  0  0  0  0  0
   15.2427   42.9268   -9.6442 H   0  0  0  0  0  0  0  0  0  0  0  0
   13.6885   43.6276  -10.0503 H   0  0  0  0  0  0  0  0  0  0  0  0
   15.2667   45.4319  -10.9031 H   0  0  0  0  0  0  0  0  0  0  0  0
   15.8591   45.1243  -12.5023 H   0  0  0  0  0  0  0  0  0  0  0  0
   20.6592   42.3544   -9.2936 H   0  0  0  0  0  0  0  0  0  0  0  0
   20.7783   45.1696   -8.4979 H   0  0  0  0  0  0  0  0  0  0  0  0
   19.3184   45.6081   -7.6433 H   0  0  0  0  0  0  0  0  0  0  0  0
   19.6852   46.3420   -9.2087 H   0  0  0  0  0  0  0  0  0  0  0  0
   17.1727   45.3904   -7.8486 H   0  0  0  0  0  0  0  0  0  0  0  0
   15.7901   44.9967   -8.7944 H   0  0  0  0  0  0  0  0  0  0  0  0
   16.7118   46.4629   -9.1575 H   0  0  0  0  0  0  0  0  0  0  0  0
   17.4869   38.4248   -5.8899 H   0  0  0  0  0  0  0  0  0  0  0  0
   18.9554   39.3485   -5.6797 H   0  0  0  0  0  0  0  0  0  0  0  0
   19.0162   37.7594   -6.4437 H   0  0  0  0  0  0  0  0  0  0  0  0
   22.1081   39.6816   -9.0744 H   0  0  0  0  0  0  0  0  0  0  0  0
  1  2  1  0  0  0  0
  1 40  1  0  0  0  0
  1 41  1  0  0  0  0
  1 42  1  0  0  0  0
  2  3  1  0  0  0  0
  2 43  1  0  0  0  0
  2 44  1  0  0  0  0
  3  4  1  0  0  0  0
  3 45  1  0  0  0  0
  3 46  1  0  0  0  0
  4  8  1  0  0  0  0
  4  5  2  0  0  0  0
  5  6  1  0  0  0  0
  5 47  1  0  0  0  0
  6  7  2  0  0  0  0
  6  9  1  0  0  0  0
  7  8  1  0  0  0  0
  8 35  1  0  0  0  0
  9 10  1  0  0  0  0
  9 48  1  0  0  0  0
  9 49  1  0  0  0  0
 10 11  1  0  0  0  0
 10 50  1  0  0  0  0
 11 12  1  0  0  0  0
 11 51  1  0  0  0  0
 11 52  1  0  0  0  0
 12 36  1  1  0  0  0
 12 13  1  0  0  0  0
 12 34  1  0  0  0  0
 13 37  1  1  0  0  0
 13 30  1  0  0  0  0
 13 14  1  0  0  0  0
 14 15  1  0  0  0  0
 14 53  1  0  0  0  0
 14 54  1  0  0  0  0
 15 38  1  1  0  0  0
 15 16  1  0  0  0  0
 15 33  1  0  0  0  0
 16 17  1  0  0  0  0
 16 55  1  0  0  0  0
 16 56  1  0  0  0  0
 17 18  1  0  0  0  0
 17 57  1  0  0  0  0
 17 58  1  0  0  0  0
 18 19  1  0  0  0  0
 18 59  1  0  0  0  0
 18 60  1  0  0  0  0
 19 20  1  0  0  0  0
 19 61  1  0  0  0  0
 19 62  1  0  0  0  0
 20 21  1  0  0  0  0
 20 63  1  0  0  0  0
 20 64  1  0  0  0  0
 21 22  1  0  0  0  0
 21 65  1  0  0  0  0
 21 66  1  0  0  0  0
 22 23  1  0  0  0  0
 23 24  1  0  0  0  0
 23 67  1  0  0  0  0
 23 68  1  0  0  0  0
 24 25  2  0  0  0  0
 24 26  1  0  0  0  0
 26 27  1  0  0  0  0
 26 32  1  0  0  0  0
 27 39  1  6  0  0  0
 27 28  1  0  0  0  0
 27 31  1  0  0  0  0
 28 29  2  0  0  0  0
 28 30  1  0  0  0  0
 30 69  1  0  0  0  0
 31 70  1  0  0  0  0
 31 71  1  0  0  0  0
 31 72  1  0  0  0  0
 32 73  1  0  0  0  0
 32 74  1  0  0  0  0
 32 75  1  0  0  0  0
 33 76  1  0  0  0  0
 33 77  1  0  0  0  0
 33 78  1  0  0  0  0
 34 79  1  0  0  0  0
M  END
