BACE_13.smi:1
 OpenBabel09281823033D
Structure written by MMmdl.
 76 79  0  0  1  0  0  0  0  0999 V2000
   16.6915   45.4040  -12.4886 C   0  0  0  0  0  0  0  0  0  0  0  0
   16.8043   44.0324  -12.8413 O   0  0  0  0  0  0  0  0  0  0  0  0
   18.1010   43.5008  -12.6292 C   0  0  0  0  0  0  0  0  0  0  0  0
   18.3887   43.2443  -11.1653 C   0  0  0  0  0  0  0  0  0  0  0  0
   19.7115   43.2840  -10.6855 C   0  0  0  0  0  0  0  0  0  0  0  0
   19.9777   43.0390   -9.3203 C   0  0  0  0  0  0  0  0  0  0  0  0
   18.9035   42.7935   -8.4338 C   0  0  0  0  0  0  0  0  0  0  0  0
   17.5792   42.7281   -8.9166 C   0  0  0  0  0  0  0  0  0  0  0  0
   17.3326   42.9429  -10.2855 C   0  0  0  0  0  0  0  0  0  0  0  0
   16.5327   42.4446   -8.0324 N   0  0  0  0  0  0  0  0  0  0  0  0
   15.4898   41.5043   -8.4360 C   0  0  0  0  0  0  0  0  0  0  0  0
   16.0390   40.0883   -8.6873 C   0  0  0  0  0  0  0  0  0  0  0  0
   16.5769   39.4249   -7.4091 C   0  0  0  0  0  0  0  0  0  0  0  0
   17.4145   38.1634   -7.6856 C   0  0  0  0  0  0  0  0  0  0  0  0
   18.5962   38.4453   -8.4390 O   0  0  0  0  0  0  0  0  0  0  0  0
   19.6839   39.0187   -7.8106 C   0  0  0  0  0  0  0  0  0  0  0  0
   19.7287   39.3496   -6.4351 C   0  0  0  0  0  0  0  0  0  0  0  0
   20.8729   39.9447   -5.8737 C   0  0  0  0  0  0  0  0  0  0  0  0
   21.9973   40.2049   -6.6748 C   0  0  0  0  0  0  0  0  0  0  0  0
   21.9736   39.8818   -8.0448 C   0  0  0  0  0  0  0  0  0  0  0  0
   20.8197   39.2877   -8.6034 C   0  0  0  0  0  0  0  0  0  0  0  0
   23.1870   40.1806   -8.9104 C   0  0  0  0  0  0  0  0  0  0  0  0
   23.4747   41.6817   -9.1879 C   0  0  2  0  0  0  0  0  0  0  0  0
   22.2258   42.3143   -9.6095 N   0  0  0  0  0  0  0  0  0  0  0  0
   21.3879   43.0010   -8.8161 C   0  0  0  0  0  0  0  0  0  0  0  0
   21.6867   43.4450   -7.7087 O   0  0  0  0  0  0  0  0  0  0  0  0
   24.5589   41.8585  -10.2880 C   0  0  1  0  0  0  0  0  0  0  0  0
   25.1335   43.3012  -10.4244 C   0  0  1  0  0  0  0  0  0  0  0  0
   26.2134   43.6874   -9.3848 C   0  0  0  0  0  0  0  0  0  0  0  0
   27.4346   42.9962   -9.6393 O   0  0  0  0  0  0  0  0  0  0  0  0
   27.9740   43.2660  -10.9293 C   0  0  2  0  0  0  0  0  0  0  0  0
   26.9381   42.9152  -12.0236 C   0  0  0  0  0  0  0  0  0  0  0  0
   25.6444   43.5635  -11.7785 N   0  0  0  0  0  0  0  0  0  0  0  0
   29.2394   42.3948  -11.0881 C   0  0  0  0  0  0  0  0  0  0  0  0
   30.1890   42.5490  -10.0387 O   0  0  0  0  0  0  0  0  0  0  0  0
   30.8066   43.8241   -9.9804 C   0  0  0  0  0  0  0  0  0  0  0  0
   25.6105   40.9500  -10.0409 O   0  0  0  0  0  0  0  0  0  0  0  0
   23.8312   42.1353   -8.2598 H   0  0  0  0  0  0  0  0  0  0  0  0
   24.1127   41.5718  -11.2392 H   0  0  0  0  0  0  0  0  0  0  0  0
   24.2907   43.9745  -10.2683 H   0  0  0  0  0  0  0  0  0  0  0  0
   28.2293   44.3243  -10.9985 H   0  0  0  0  0  0  0  0  0  0  0  0
   15.6796   45.7497  -12.6920 H   0  0  0  0  0  0  0  0  0  0  0  0
   17.3752   46.0199  -13.0741 H   0  0  0  0  0  0  0  0  0  0  0  0
   16.8945   45.5686  -11.4307 H   0  0  0  0  0  0  0  0  0  0  0  0
   18.8579   44.1585  -13.0590 H   0  0  0  0  0  0  0  0  0  0  0  0
   18.1754   42.5505  -13.1580 H   0  0  0  0  0  0  0  0  0  0  0  0
   20.5190   43.4957  -11.3719 H   0  0  0  0  0  0  0  0  0  0  0  0
   19.1009   42.6048   -7.3878 H   0  0  0  0  0  0  0  0  0  0  0  0
   16.3238   42.9001  -10.6648 H   0  0  0  0  0  0  0  0  0  0  0  0
   16.7751   42.3724   -7.0502 H   0  0  0  0  0  0  0  0  0  0  0  0
   14.9668   41.8742   -9.3165 H   0  0  0  0  0  0  0  0  0  0  0  0
   14.7451   41.4665   -7.6396 H   0  0  0  0  0  0  0  0  0  0  0  0
   16.8179   40.1232   -9.4485 H   0  0  0  0  0  0  0  0  0  0  0  0
   15.2448   39.4644   -9.0971 H   0  0  0  0  0  0  0  0  0  0  0  0
   15.7380   39.1608   -6.7622 H   0  0  0  0  0  0  0  0  0  0  0  0
   17.1644   40.1419   -6.8404 H   0  0  0  0  0  0  0  0  0  0  0  0
   16.8153   37.4539   -8.2581 H   0  0  0  0  0  0  0  0  0  0  0  0
   17.6604   37.6547   -6.7559 H   0  0  0  0  0  0  0  0  0  0  0  0
   18.8935   39.1692   -5.7779 H   0  0  0  0  0  0  0  0  0  0  0  0
   20.8857   40.1992   -4.8240 H   0  0  0  0  0  0  0  0  0  0  0  0
   22.8672   40.6676   -6.2368 H   0  0  0  0  0  0  0  0  0  0  0  0
   20.7939   39.0397   -9.6549 H   0  0  0  0  0  0  0  0  0  0  0  0
   23.0463   39.6762   -9.8655 H   0  0  0  0  0  0  0  0  0  0  0  0
   24.0519   39.7224   -8.4338 H   0  0  0  0  0  0  0  0  0  0  0  0
   21.8457   41.9949  -10.4876 H   0  0  0  0  0  0  0  0  0  0  0  0
   25.8736   43.4497   -8.3765 H   0  0  0  0  0  0  0  0  0  0  0  0
   26.3953   44.7621   -9.4068 H   0  0  0  0  0  0  0  0  0  0  0  0
   26.8094   41.8339  -12.0726 H   0  0  0  0  0  0  0  0  0  0  0  0
   27.3207   43.2119  -12.9998 H   0  0  0  0  0  0  0  0  0  0  0  0
   24.9757   43.2085  -12.4547 H   0  0  0  0  0  0  0  0  0  0  0  0
   28.9480   41.3459  -11.0943 H   0  0  0  0  0  0  0  0  0  0  0  0
   29.7174   42.5836  -12.0505 H   0  0  0  0  0  0  0  0  0  0  0  0
   31.5995   43.8074   -9.2339 H   0  0  0  0  0  0  0  0  0  0  0  0
   30.0961   44.5987   -9.6841 H   0  0  0  0  0  0  0  0  0  0  0  0
   31.2532   44.0997  -10.9387 H   0  0  0  0  0  0  0  0  0  0  0  0
   25.2709   40.0607  -10.0402 H   0  0  0  0  0  0  0  0  0  0  0  0
  1  2  1  0  0  0  0
  1 42  1  0  0  0  0
  1 43  1  0  0  0  0
  1 44  1  0  0  0  0
  2  3  1  0  0  0  0
  3  4  1  0  0  0  0
  3 45  1  0  0  0  0
  3 46  1  0  0  0  0
  4  9  1  0  0  0  0
  4  5  2  0  0  0  0
  5  6  1  0  0  0  0
  5 47  1  0  0  0  0
  6 25  1  0  0  0  0
  6  7  2  0  0  0  0
  7  8  1  0  0  0  0
  7 48  1  0  0  0  0
  8  9  2  0  0  0  0
  8 10  1  0  0  0  0
  9 49  1  0  0  0  0
 10 11  1  0  0  0  0
 10 50  1  0  0  0  0
 11 12  1  0  0  0  0
 11 51  1  0  0  0  0
 11 52  1  0  0  0  0
 12 13  1  0  0  0  0
 12 53  1  0  0  0  0
 12 54  1  0  0  0  0
 13 14  1  0  0  0  0
 13 55  1  0  0  0  0
 13 56  1  0  0  0  0
 14 15  1  0  0  0  0
 14 57  1  0  0  0  0
 14 58  1  0  0  0  0
 15 16  1  0  0  0  0
 16 21  1  0  0  0  0
 16 17  2  0  0  0  0
 17 18  1  0  0  0  0
 17 59  1  0  0  0  0
 18 19  2  0  0  0  0
 18 60  1  0  0  0  0
 19 20  1  0  0  0  0
 19 61  1  0  0  0  0
 20 21  2  0  0  0  0
 20 22  1  0  0  0  0
 21 62  1  0  0  0  0
 22 23  1  0  0  0  0
 22 63  1  0  0  0  0
 22 64  1  0  0  0  0
 23 38  1  1  0  0  0
 23 24  1  0  0  0  0
 23 27  1  0  0  0  0
 24 25  1  0  0  0  0
 24 65  1  0  0  0  0
 25 26  2  0  0  0  0
 27 39  1  6  0  0  0
 27 28  1  0  0  0  0
 27 37  1  0  0  0  0
 28 40  1  1  0  0  0
 28 33  1  0  0  0  0
 28 29  1  0  0  0  0
 29 30  1  0  0  0  0
 29 66  1  0  0  0  0
 29 67  1  0  0  0  0
 30 31  1  0  0  0  0
 31 41  1  6  0  0  0
 31 32  1  0  0  0  0
 31 34  1  0  0  0  0
 32 33  1  0  0  0  0
 32 68  1  0  0  0  0
 32 69  1  0  0  0  0
 33 70  1  0  0  0  0
 34 35  1  0  0  0  0
 34 71  1  0  0  0  0
 34 72  1  0  0  0  0
 35 36  1  0  0  0  0
 36 73  1  0  0  0  0
 36 74  1  0  0  0  0
 36 75  1  0  0  0  0
 37 76  1  0  0  0  0
M  END
