BACE_10.smi:1
 OpenBabel09281823033D
Structure written by MMmdl.
 86 88  0  0  1  0  0  0  0  0999 V2000
   21.2547   38.4987   -7.5065 C   0  0  0  0  0  0  0  0  0  0  0  0
   20.4838   39.4066   -8.4794 C   0  0  2  0  0  0  0  0  0  0  0  0
   19.7377   38.5580   -9.5401 C   0  0  0  0  0  0  0  0  0  0  0  0
   18.4464   37.9164   -9.0170 C   0  0  0  0  0  0  0  0  0  0  0  0
   17.6119   38.9526   -8.5334 O   0  0  0  0  0  0  0  0  0  0  0  0
   16.3172   38.5209   -8.1632 C   0  0  0  0  0  0  0  0  0  0  0  0
   15.6883   39.5451   -7.2085 C   0  0  0  0  0  0  0  0  0  0  0  0
   15.8091   41.0007   -7.6851 C   0  0  0  0  0  0  0  0  0  0  0  0
   15.1521   41.2524   -9.0478 C   0  0  0  0  0  0  0  0  0  0  0  0
   15.3482   42.6242   -9.4892 N   0  0  0  0  0  0  0  0  0  0  0  0
   16.3927   42.9966  -10.3496 C   0  0  0  0  0  0  0  0  0  0  0  0
   16.3130   44.2805  -10.9245 C   0  0  0  0  0  0  0  0  0  0  0  0
   17.2847   44.7191  -11.8449 C   0  0  0  0  0  0  0  0  0  0  0  0
   18.3601   43.8696  -12.1706 C   0  0  0  0  0  0  0  0  0  0  0  0
   18.4731   42.5872  -11.5957 C   0  0  0  0  0  0  0  0  0  0  0  0
   17.4854   42.1524  -10.6790 C   0  0  0  0  0  0  0  0  0  0  0  0
   19.5811   41.6771  -12.0529 C   0  0  0  0  0  0  0  0  0  0  0  0
   19.6600   41.3503  -13.2349 O   0  0  0  0  0  0  0  0  0  0  0  0
   20.5095   41.2397  -11.1924 N   0  0  0  0  0  0  0  0  0  0  0  0
   20.7794   41.6495   -9.8184 C   0  0  1  0  0  0  0  0  0  0  0  0
   21.4459   40.4627   -9.0681 C   0  0  0  0  0  0  0  0  0  0  0  0
   21.6850   42.9203   -9.7833 C   0  0  1  0  0  0  0  0  0  0  0  0
   22.7982   43.0265  -10.8597 C   0  0  0  0  0  0  0  0  0  0  0  0
   23.7579   41.8989  -10.8291 N   0  3  0  0  0  0  0  0  0  0  0  0
   24.7784   41.9084   -9.7638 C   0  0  0  0  0  0  0  0  0  0  0  0
   25.9349   42.8446  -10.0708 C   0  0  0  0  0  0  0  0  0  0  0  0
   25.9083   44.1763   -9.6069 C   0  0  0  0  0  0  0  0  0  0  0  0
   26.9939   45.0330   -9.8624 C   0  0  0  0  0  0  0  0  0  0  0  0
   28.1071   44.5640  -10.5839 C   0  0  0  0  0  0  0  0  0  0  0  0
   28.1466   43.2369  -11.0619 C   0  0  0  0  0  0  0  0  0  0  0  0
   27.0555   42.3762  -10.7937 C   0  0  0  0  0  0  0  0  0  0  0  0
   29.3829   42.7703  -11.8313 C   0  0  0  0  0  0  0  0  0  0  0  0
   29.0667   41.7965  -12.9754 C   0  0  0  0  0  0  0  0  0  0  0  0
   30.4338   42.1763  -10.8895 C   0  0  0  0  0  0  0  0  0  0  0  0
   20.8605   44.0609   -9.8950 O   0  0  0  0  0  0  0  0  0  0  0  0
   17.1794   46.1009  -12.4684 C   0  0  0  0  0  0  0  0  0  0  0  0
   15.8435   46.4241  -12.8280 O   0  0  0  0  0  0  0  0  0  0  0  0
   15.7348   47.7013  -13.4344 C   0  0  0  0  0  0  0  0  0  0  0  0
   19.7511   39.9572   -7.8888 H   0  0  0  0  0  0  0  0  0  0  0  0
   19.8458   41.8674   -9.2965 H   0  0  0  0  0  0  0  0  0  0  0  0
   22.1372   43.0109   -8.7964 H   0  0  0  0  0  0  0  0  0  0  0  0
   22.0117   37.9140   -8.0321 H   0  0  0  0  0  0  0  0  0  0  0  0
   20.5877   37.8038   -6.9963 H   0  0  0  0  0  0  0  0  0  0  0  0
   21.7633   39.0756   -6.7329 H   0  0  0  0  0  0  0  0  0  0  0  0
   19.4409   39.1602  -10.3919 H   0  0  0  0  0  0  0  0  0  0  0  0
   20.3984   37.7882   -9.9399 H   0  0  0  0  0  0  0  0  0  0  0  0
   17.9476   37.3775   -9.8245 H   0  0  0  0  0  0  0  0  0  0  0  0
   18.6533   37.2008   -8.2222 H   0  0  0  0  0  0  0  0  0  0  0  0
   15.7085   38.3747   -9.0540 H   0  0  0  0  0  0  0  0  0  0  0  0
   16.3743   37.5648   -7.6567 H   0  0  0  0  0  0  0  0  0  0  0  0
   14.6405   39.2921   -7.0382 H   0  0  0  0  0  0  0  0  0  0  0  0
   16.1722   39.4597   -6.2338 H   0  0  0  0  0  0  0  0  0  0  0  0
   15.3538   41.6507   -6.9358 H   0  0  0  0  0  0  0  0  0  0  0  0
   16.8619   41.2808   -7.7226 H   0  0  0  0  0  0  0  0  0  0  0  0
   15.5204   40.5599   -9.8034 H   0  0  0  0  0  0  0  0  0  0  0  0
   14.0792   41.0672   -8.9739 H   0  0  0  0  0  0  0  0  0  0  0  0
   14.6196   43.2865   -9.2675 H   0  0  0  0  0  0  0  0  0  0  0  0
   15.4865   44.9313  -10.6728 H   0  0  0  0  0  0  0  0  0  0  0  0
   19.1067   44.2118  -12.8676 H   0  0  0  0  0  0  0  0  0  0  0  0
   17.5633   41.1619  -10.2550 H   0  0  0  0  0  0  0  0  0  0  0  0
   21.1578   40.5779  -11.5922 H   0  0  0  0  0  0  0  0  0  0  0  0
   22.0029   40.8730   -8.2238 H   0  0  0  0  0  0  0  0  0  0  0  0
   22.1922   39.9688   -9.6920 H   0  0  0  0  0  0  0  0  0  0  0  0
   22.3483   43.0585  -11.8544 H   0  0  0  0  0  0  0  0  0  0  0  0
   23.3376   43.9688  -10.7553 H   0  0  0  0  0  0  0  0  0  0  0  0
   23.2247   41.0483  -10.7473 H   0  0  0  0  0  0  0  0  0  0  0  0
   24.3283   42.1574   -8.8011 H   0  0  0  0  0  0  0  0  0  0  0  0
   25.1666   40.8937   -9.6646 H   0  0  0  0  0  0  0  0  0  0  0  0
   25.0625   44.5497   -9.0477 H   0  0  0  0  0  0  0  0  0  0  0  0
   26.9784   46.0502   -9.5002 H   0  0  0  0  0  0  0  0  0  0  0  0
   28.9386   45.2316  -10.7633 H   0  0  0  0  0  0  0  0  0  0  0  0
   27.0764   41.3504  -11.1293 H   0  0  0  0  0  0  0  0  0  0  0  0
   29.8218   43.6572  -12.2943 H   0  0  0  0  0  0  0  0  0  0  0  0
   28.3356   42.2391  -13.6456 H   0  0  0  0  0  0  0  0  0  0  0  0
   28.6720   40.8457  -12.6166 H   0  0  0  0  0  0  0  0  0  0  0  0
   29.9596   41.5685  -13.5596 H   0  0  0  0  0  0  0  0  0  0  0  0
   30.7014   42.8816  -10.1022 H   0  0  0  0  0  0  0  0  0  0  0  0
   31.3436   41.9187  -11.4318 H   0  0  0  0  0  0  0  0  0  0  0  0
   30.0550   41.2670  -10.4306 H   0  0  0  0  0  0  0  0  0  0  0  0
   20.1630   43.9996   -9.2588 H   0  0  0  0  0  0  0  0  0  0  0  0
   17.5617   46.8334  -11.7560 H   0  0  0  0  0  0  0  0  0  0  0  0
   17.8192   46.1451  -13.3495 H   0  0  0  0  0  0  0  0  0  0  0  0
   14.6856   47.9180  -13.6406 H   0  0  0  0  0  0  0  0  0  0  0  0
   16.2773   47.7418  -14.3800 H   0  0  0  0  0  0  0  0  0  0  0  0
   16.1166   48.4867  -12.7786 H   0  0  0  0  0  0  0  0  0  0  0  0
   24.2290   41.8501  -11.7270 H   0  0  0  0  0  0  0  0  0  0  0  0
  1  2  1  0  0  0  0
  1 42  1  0  0  0  0
  1 43  1  0  0  0  0
  1 44  1  0  0  0  0
  2 39  1  1  0  0  0
  2 21  1  0  0  0  0
  2  3  1  0  0  0  0
  3  4  1  0  0  0  0
  3 45  1  0  0  0  0
  3 46  1  0  0  0  0
  4  5  1  0  0  0  0
  4 47  1  0  0  0  0
  4 48  1  0  0  0  0
  5  6  1  0  0  0  0
  6  7  1  0  0  0  0
  6 49  1  0  0  0  0
  6 50  1  0  0  0  0
  7  8  1  0  0  0  0
  7 51  1  0  0  0  0
  7 52  1  0  0  0  0
  8  9  1  0  0  0  0
  8 53  1  0  0  0  0
  8 54  1  0  0  0  0
  9 10  1  0  0  0  0
  9 55  1  0  0  0  0
  9 56  1  0  0  0  0
 10 11  1  0  0  0  0
 10 57  1  0  0  0  0
 11 16  1  0  0  0  0
 11 12  2  0  0  0  0
 12 13  1  0  0  0  0
 12 58  1  0  0  0  0
 13 14  2  0  0  0  0
 13 36  1  0  0  0  0
 14 15  1  0  0  0  0
 14 59  1  0  0  0  0
 15 16  2  0  0  0  0
 15 17  1  0  0  0  0
 16 60  1  0  0  0  0
 17 18  2  0  0  0  0
 17 19  1  0  0  0  0
 19 20  1  0  0  0  0
 19 61  1  0  0  0  0
 20 40  1  1  0  0  0
 20 21  1  0  0  0  0
 20 22  1  0  0  0  0
 21 62  1  0  0  0  0
 21 63  1  0  0  0  0
 22 41  1  1  0  0  0
 22 23  1  0  0  0  0
 22 35  1  0  0  0  0
 23 24  1  0  0  0  0
 23 64  1  0  0  0  0
 23 65  1  0  0  0  0
 24 25  1  0  0  0  0
 24 66  1  0  0  0  0
 24 86  1  0  0  0  0
 25 26  1  0  0  0  0
 25 67  1  0  0  0  0
 25 68  1  0  0  0  0
 26 31  1  0  0  0  0
 26 27  2  0  0  0  0
 27 28  1  0  0  0  0
 27 69  1  0  0  0  0
 28 29  2  0  0  0  0
 28 70  1  0  0  0  0
 29 30  1  0  0  0  0
 29 71  1  0  0  0  0
 30 31  2  0  0  0  0
 30 32  1  0  0  0  0
 31 72  1  0  0  0  0
 32 33  1  0  0  0  0
 32 34  1  0  0  0  0
 32 73  1  0  0  0  0
 33 74  1  0  0  0  0
 33 75  1  0  0  0  0
 33 76  1  0  0  0  0
 34 77  1  0  0  0  0
 34 78  1  0  0  0  0
 34 79  1  0  0  0  0
 35 80  1  0  0  0  0
 36 37  1  0  0  0  0
 36 81  1  0  0  0  0
 36 82  1  0  0  0  0
 37 38  1  0  0  0  0
 38 83  1  0  0  0  0
 38 84  1  0  0  0  0
 38 85  1  0  0  0  0
M  CHG  1  24   1
M  END
