BACE_18.smi:1
 OpenBabel09281823033D
Structure written by MMmdl.
 66 67  0  0  1  0  0  0  0  0999 V2000
   13.4899   44.5526   -7.8867 O   0  0  0  0  0  0  0  0  0  0  0  0
   14.6674   44.6845   -8.6550 C   0  0  0  0  0  0  0  0  0  0  0  0
   15.7811   43.6877   -8.2613 C   0  0  2  0  0  0  0  0  0  0  0  0
   16.9996   44.0191   -8.8881 O   0  0  0  0  0  0  0  0  0  0  0  0
   15.4420   42.1657   -8.3476 C   0  0  1  0  0  0  0  0  0  0  0  0
   14.6983   41.7008   -9.5309 N   0  0  0  0  0  0  0  0  0  0  0  0
   15.0454   41.6537  -10.8298 C   0  0  0  0  0  0  0  0  0  0  0  0
   14.4466   40.9500  -11.6398 O   0  0  0  0  0  0  0  0  0  0  0  0
   16.6190   41.2410   -7.9475 C   0  0  0  0  0  0  0  0  0  0  0  0
   16.3392   39.7172   -7.8118 C   0  0  2  0  0  0  0  0  0  0  0  0
   15.0193   39.4056   -7.0748 C   0  0  0  0  0  0  0  0  0  0  0  0
   17.4878   38.9854   -7.0697 C   0  0  0  0  0  0  0  0  0  0  0  0
   18.9039   39.1144   -7.6557 C   0  0  0  0  0  0  0  0  0  0  0  0
   19.1293   38.2560   -8.9095 C   0  0  0  0  0  0  0  0  0  0  0  0
   20.5689   38.3564   -9.4537 C   0  0  0  0  0  0  0  0  0  0  0  0
   20.6573   39.0677  -10.8106 C   0  0  0  0  0  0  0  0  0  0  0  0
   20.3455   40.5670  -10.7327 C   0  0  0  0  0  0  0  0  0  0  0  0
   20.1136   41.1661  -12.1253 C   0  0  0  0  0  0  0  0  0  0  0  0
   19.7957   42.5480  -12.0398 O   0  0  0  0  0  0  0  0  0  0  0  0
   18.4806   42.9276  -11.8999 C   0  0  0  0  0  0  0  0  0  0  0  0
   17.4466   42.0656  -11.4620 C   0  0  0  0  0  0  0  0  0  0  0  0
   16.1346   42.5521  -11.3200 C   0  0  0  0  0  0  0  0  0  0  0  0
   18.1777   44.2733  -12.1931 C   0  0  0  0  0  0  0  0  0  0  0  0
   16.8613   44.7711  -12.0700 C   0  0  0  0  0  0  0  0  0  0  0  0
   15.8374   43.8786  -11.6974 C   0  0  0  0  0  0  0  0  0  0  0  0
   16.5197   46.2110  -12.3619 C   0  0  0  0  0  0  0  0  0  0  0  0
   15.5178   46.4612  -13.0370 O   0  0  0  0  0  0  0  0  0  0  0  0
   17.2987   47.1938  -11.8442 N   0  0  0  0  0  0  0  0  0  0  0  0
   17.0793   48.5878  -12.2363 C   0  0  0  0  0  0  0  0  0  0  0  0
   18.3020   47.0115  -10.7904 C   0  0  0  0  0  0  0  0  0  0  0  0
   16.0600   43.9019   -7.2400 H   0  0  0  0  0  0  0  0  0  0  0  0
   14.7051   42.0357   -7.5547 H   0  0  0  0  0  0  0  0  0  0  0  0
   16.2561   39.2972   -8.8145 H   0  0  0  0  0  0  0  0  0  0  0  0
   13.1313   43.6890   -8.0395 H   0  0  0  0  0  0  0  0  0  0  0  0
   14.3683   44.5730   -9.6879 H   0  0  0  0  0  0  0  0  0  0  0  0
   15.0357   45.7047   -8.5413 H   0  0  0  0  0  0  0  0  0  0  0  0
   17.6634   43.4221   -8.5763 H   0  0  0  0  0  0  0  0  0  0  0  0
   13.8894   41.1353   -9.3014 H   0  0  0  0  0  0  0  0  0  0  0  0
   17.4351   41.3820   -8.6538 H   0  0  0  0  0  0  0  0  0  0  0  0
   16.9872   41.6049   -6.9906 H   0  0  0  0  0  0  0  0  0  0  0  0
   14.9939   39.8649   -6.0846 H   0  0  0  0  0  0  0  0  0  0  0  0
   14.8890   38.3319   -6.9324 H   0  0  0  0  0  0  0  0  0  0  0  0
   14.1446   39.7480   -7.6251 H   0  0  0  0  0  0  0  0  0  0  0  0
   17.5113   39.3407   -6.0403 H   0  0  0  0  0  0  0  0  0  0  0  0
   17.2600   37.9231   -6.9923 H   0  0  0  0  0  0  0  0  0  0  0  0
   19.1556   40.1570   -7.8425 H   0  0  0  0  0  0  0  0  0  0  0  0
   19.6080   38.7820   -6.8918 H   0  0  0  0  0  0  0  0  0  0  0  0
   18.9168   37.2159   -8.6615 H   0  0  0  0  0  0  0  0  0  0  0  0
   18.4066   38.5230   -9.6811 H   0  0  0  0  0  0  0  0  0  0  0  0
   21.2277   38.8419   -8.7327 H   0  0  0  0  0  0  0  0  0  0  0  0
   20.9674   37.3501   -9.5712 H   0  0  0  0  0  0  0  0  0  0  0  0
   21.6599   38.9502  -11.2218 H   0  0  0  0  0  0  0  0  0  0  0  0
   19.9819   38.5760  -11.5123 H   0  0  0  0  0  0  0  0  0  0  0  0
   19.4715   40.7331  -10.1079 H   0  0  0  0  0  0  0  0  0  0  0  0
   21.1658   41.0876  -10.2372 H   0  0  0  0  0  0  0  0  0  0  0  0
   21.0299   41.0769  -12.7100 H   0  0  0  0  0  0  0  0  0  0  0  0
   19.3527   40.6160  -12.6821 H   0  0  0  0  0  0  0  0  0  0  0  0
   17.6351   41.0316  -11.2169 H   0  0  0  0  0  0  0  0  0  0  0  0
   18.9755   44.9250  -12.5167 H   0  0  0  0  0  0  0  0  0  0  0  0
   14.8157   44.2254  -11.6777 H   0  0  0  0  0  0  0  0  0  0  0  0
   16.9408   48.6782  -13.3149 H   0  0  0  0  0  0  0  0  0  0  0  0
   17.9256   49.2229  -11.9722 H   0  0  0  0  0  0  0  0  0  0  0  0
   16.1915   48.9849  -11.7445 H   0  0  0  0  0  0  0  0  0  0  0  0
   18.0649   46.1765  -10.1312 H   0  0  0  0  0  0  0  0  0  0  0  0
   18.3696   47.8926  -10.1510 H   0  0  0  0  0  0  0  0  0  0  0  0
   19.2878   46.8424  -11.2238 H   0  0  0  0  0  0  0  0  0  0  0  0
  1  2  1  0  0  0  0
  1 34  1  0  0  0  0
  2  3  1  0  0  0  0
  2 35  1  0  0  0  0
  2 36  1  0  0  0  0
  3 31  1  1  0  0  0
  3  4  1  0  0  0  0
  3  5  1  0  0  0  0
  4 37  1  0  0  0  0
  5 32  1  1  0  0  0
  5  6  1  0  0  0  0
  5  9  1  0  0  0  0
  6  7  1  0  0  0  0
  6 38  1  0  0  0  0
  7 22  1  0  0  0  0
  7  8  2  0  0  0  0
  9 10  1  0  0  0  0
  9 39  1  0  0  0  0
  9 40  1  0  0  0  0
 10 33  1  6  0  0  0
 10 11  1  0  0  0  0
 10 12  1  0  0  0  0
 11 41  1  0  0  0  0
 11 42  1  0  0  0  0
 11 43  1  0  0  0  0
 12 13  1  0  0  0  0
 12 44  1  0  0  0  0
 12 45  1  0  0  0  0
 13 14  1  0  0  0  0
 13 46  1  0  0  0  0
 13 47  1  0  0  0  0
 14 15  1  0  0  0  0
 14 48  1  0  0  0  0
 14 49  1  0  0  0  0
 15 16  1  0  0  0  0
 15 50  1  0  0  0  0
 15 51  1  0  0  0  0
 16 17  1  0  0  0  0
 16 52  1  0  0  0  0
 16 53  1  0  0  0  0
 17 18  1  0  0  0  0
 17 54  1  0  0  0  0
 17 55  1  0  0  0  0
 18 19  1  0  0  0  0
 18 56  1  0  0  0  0
 18 57  1  0  0  0  0
 19 20  1  0  0  0  0
 20 21  1  0  0  0  0
 20 23  2  0  0  0  0
 21 22  2  0  0  0  0
 21 58  1  0  0  0  0
 22 25  1  0  0  0  0
 23 24  1  0  0  0  0
 23 59  1  0  0  0  0
 24 25  2  0  0  0  0
 24 26  1  0  0  0  0
 25 60  1  0  0  0  0
 26 27  2  0  0  0  0
 26 28  1  0  0  0  0
 28 29  1  0  0  0  0
 28 30  1  0  0  0  0
 29 61  1  0  0  0  0
 29 62  1  0  0  0  0
 29 63  1  0  0  0  0
 30 64  1  0  0  0  0
 30 65  1  0  0  0  0
 30 66  1  0  0  0  0
M  END
