BACE_4.smi:1
 OpenBabel09281823033D
Structure written by MMmdl.
 89 91  0  0  1  0  0  0  0  0999 V2000
   21.2763   44.9573   -5.2384 C   0  0  0  0  0  0  0  0  0  0  0  0
   22.5807   44.3463   -4.7344 C   0  0  2  0  0  0  0  0  0  0  0  0
   23.6938   44.5281   -5.7897 C   0  0  0  0  0  0  0  0  0  0  0  0
   23.5703   45.8369   -6.5930 C   0  0  0  0  0  0  0  0  0  0  0  0
   23.7085   47.1225   -5.7520 C   0  0  0  0  0  0  0  0  0  0  0  0
   23.4915   48.4253   -6.5541 C   0  0  0  0  0  0  0  0  0  0  0  0
   22.1075   48.5733   -7.2273 C   0  0  0  0  0  0  0  0  0  0  0  0
   20.9196   48.5478   -6.2430 C   0  0  0  0  0  0  0  0  0  0  0  0
   19.5354   48.6935   -6.9141 O   0  0  0  0  0  0  0  0  0  0  0  0
   19.0914   47.5037   -7.8101 C   0  0  0  0  0  0  0  0  0  0  0  0
   18.8914   46.1559   -7.1001 C   0  0  0  0  0  0  0  0  0  0  0  0
   18.6796   46.1112   -5.8994 O   0  0  0  0  0  0  0  0  0  0  0  0
   18.9392   45.0688   -7.8850 N   0  0  0  0  0  0  0  0  0  0  0  0
   18.8600   43.6935   -7.3447 C   0  0  2  0  0  0  0  0  0  0  0  0
   20.2701   43.1172   -7.0911 C   0  0  0  0  0  0  0  0  0  0  0  0
   21.1472   43.2032   -7.9348 O   0  0  0  0  0  0  0  0  0  0  0  0
   20.4507   42.5252   -5.8977 N   0  0  0  0  0  0  0  0  0  0  0  0
   21.7136   41.9552   -5.4124 C   0  0  1  0  0  0  0  0  0  0  0  0
   22.3238   42.8792   -4.3171 C   0  0  0  0  0  0  0  0  0  0  0  0
   21.5085   40.4706   -4.9757 C   0  0  1  0  0  0  0  0  0  0  0  0
   20.9750   39.5397   -6.0867 C   0  0  0  0  0  0  0  0  0  0  0  0
   19.5159   39.4166   -6.0417 N   0  0  0  0  0  0  0  0  0  0  0  0
   18.8816   38.9237   -7.2740 C   0  0  0  0  0  0  0  0  0  0  0  0
   17.3728   38.9299   -7.3346 C   0  0  0  0  0  0  0  0  0  0  0  0
   18.1174   37.6237   -7.1954 C   0  0  0  0  0  0  0  0  0  0  0  0
   19.6399   39.2190   -8.5601 C   0  0  0  0  0  0  0  0  0  0  0  0
   20.8326   38.5252   -8.8522 C   0  0  0  0  0  0  0  0  0  0  0  0
   21.5401   38.7958  -10.0359 C   0  0  0  0  0  0  0  0  0  0  0  0
   21.0630   39.7645  -10.9376 C   0  0  0  0  0  0  0  0  0  0  0  0
   19.8713   40.4843  -10.6751 C   0  0  0  0  0  0  0  0  0  0  0  0
   19.1735   40.1938   -9.4726 C   0  0  0  0  0  0  0  0  0  0  0  0
   19.3795   41.5449  -11.6890 C   0  0  0  0  0  0  0  0  0  0  0  0
   19.9687   41.2456  -13.0872 C   0  0  0  0  0  0  0  0  0  0  0  0
   17.8353   41.5161  -11.7693 C   0  0  0  0  0  0  0  0  0  0  0  0
   19.7934   42.9902  -11.3153 C   0  0  0  0  0  0  0  0  0  0  0  0
   22.7336   39.9181   -4.5317 O   0  0  0  0  0  0  0  0  0  0  0  0
   18.1805   42.7989   -8.3774 C   0  0  0  0  0  0  0  0  0  0  0  0
   19.1958   45.2692   -9.2969 C   0  0  0  0  0  0  0  0  0  0  0  0
   22.8396   44.9277   -3.8495 H   0  0  0  0  0  0  0  0  0  0  0  0
   18.2421   43.6331   -6.4488 H   0  0  0  0  0  0  0  0  0  0  0  0
   22.4030   41.9516   -6.2563 H   0  0  0  0  0  0  0  0  0  0  0  0
   20.8145   40.4181   -4.1357 H   0  0  0  0  0  0  0  0  0  0  0  0
   21.4055   46.0016   -5.5221 H   0  0  0  0  0  0  0  0  0  0  0  0
   20.4975   44.9363   -4.4769 H   0  0  0  0  0  0  0  0  0  0  0  0
   20.8964   44.4264   -6.1121 H   0  0  0  0  0  0  0  0  0  0  0  0
   24.6727   44.4617   -5.3149 H   0  0  0  0  0  0  0  0  0  0  0  0
   23.6600   43.7074   -6.5062 H   0  0  0  0  0  0  0  0  0  0  0  0
   22.6072   45.8247   -7.1033 H   0  0  0  0  0  0  0  0  0  0  0  0
   24.3219   45.8444   -7.3824 H   0  0  0  0  0  0  0  0  0  0  0  0
   23.0151   47.0985   -4.9113 H   0  0  0  0  0  0  0  0  0  0  0  0
   24.7015   47.1457   -5.3031 H   0  0  0  0  0  0  0  0  0  0  0  0
   24.2641   48.5022   -7.3191 H   0  0  0  0  0  0  0  0  0  0  0  0
   23.6552   49.2758   -5.8922 H   0  0  0  0  0  0  0  0  0  0  0  0
   22.0886   49.5134   -7.7786 H   0  0  0  0  0  0  0  0  0  0  0  0
   21.9872   47.7975   -7.9834 H   0  0  0  0  0  0  0  0  0  0  0  0
   21.0459   49.3569   -5.5236 H   0  0  0  0  0  0  0  0  0  0  0  0
   20.9366   47.6303   -5.6548 H   0  0  0  0  0  0  0  0  0  0  0  0
   19.7984   47.3810   -8.6305 H   0  0  0  0  0  0  0  0  0  0  0  0
   18.1386   47.7520   -8.2776 H   0  0  0  0  0  0  0  0  0  0  0  0
   19.6566   42.5048   -5.2740 H   0  0  0  0  0  0  0  0  0  0  0  0
   21.6580   42.8744   -3.4542 H   0  0  0  0  0  0  0  0  0  0  0  0
   23.2546   42.4385   -3.9598 H   0  0  0  0  0  0  0  0  0  0  0  0
   21.4198   38.5517   -5.9617 H   0  0  0  0  0  0  0  0  0  0  0  0
   21.2991   39.8937   -7.0649 H   0  0  0  0  0  0  0  0  0  0  0  0
   19.0891   40.2906   -5.7516 H   0  0  0  0  0  0  0  0  0  0  0  0
   16.8340   39.2993   -6.4620 H   0  0  0  0  0  0  0  0  0  0  0  0
   16.9071   39.1456   -8.2963 H   0  0  0  0  0  0  0  0  0  0  0  0
   18.1496   36.9660   -8.0640 H   0  0  0  0  0  0  0  0  0  0  0  0
   18.0766   37.1197   -6.2298 H   0  0  0  0  0  0  0  0  0  0  0  0
   21.2105   37.7798   -8.1674 H   0  0  0  0  0  0  0  0  0  0  0  0
   22.4520   38.2592  -10.2535 H   0  0  0  0  0  0  0  0  0  0  0  0
   21.6321   39.9466  -11.8369 H   0  0  0  0  0  0  0  0  0  0  0  0
   18.2636   40.7131   -9.2169 H   0  0  0  0  0  0  0  0  0  0  0  0
   21.0594   41.2455  -13.0664 H   0  0  0  0  0  0  0  0  0  0  0  0
   19.6599   41.9926  -13.8197 H   0  0  0  0  0  0  0  0  0  0  0  0
   19.6510   40.2780  -13.4760 H   0  0  0  0  0  0  0  0  0  0  0  0
   17.3837   41.7115  -10.7957 H   0  0  0  0  0  0  0  0  0  0  0  0
   17.4529   40.5569  -12.1183 H   0  0  0  0  0  0  0  0  0  0  0  0
   17.4564   42.2721  -12.4584 H   0  0  0  0  0  0  0  0  0  0  0  0
   19.3835   43.2969  -10.3520 H   0  0  0  0  0  0  0  0  0  0  0  0
   19.4300   43.7101  -12.0500 H   0  0  0  0  0  0  0  0  0  0  0  0
   20.8773   43.1082  -11.2764 H   0  0  0  0  0  0  0  0  0  0  0  0
   23.0054   40.3789   -3.7527 H   0  0  0  0  0  0  0  0  0  0  0  0
   18.0733   41.7783   -8.0074 H   0  0  0  0  0  0  0  0  0  0  0  0
   18.7407   42.7521   -9.3118 H   0  0  0  0  0  0  0  0  0  0  0  0
   17.1789   43.1599   -8.6141 H   0  0  0  0  0  0  0  0  0  0  0  0
   19.0574   44.3701   -9.8944 H   0  0  0  0  0  0  0  0  0  0  0  0
   20.2162   45.6152   -9.4663 H   0  0  0  0  0  0  0  0  0  0  0  0
   18.5026   45.9953   -9.7236 H   0  0  0  0  0  0  0  0  0  0  0  0
  1  2  1  0  0  0  0
  1 43  1  0  0  0  0
  1 44  1  0  0  0  0
  1 45  1  0  0  0  0
  2 39  1  1  0  0  0
  2 19  1  0  0  0  0
  2  3  1  0  0  0  0
  3  4  1  0  0  0  0
  3 46  1  0  0  0  0
  3 47  1  0  0  0  0
  4  5  1  0  0  0  0
  4 48  1  0  0  0  0
  4 49  1  0  0  0  0
  5  6  1  0  0  0  0
  5 50  1  0  0  0  0
  5 51  1  0  0  0  0
  6  7  1  0  0  0  0
  6 52  1  0  0  0  0
  6 53  1  0  0  0  0
  7  8  1  0  0  0  0
  7 54  1  0  0  0  0
  7 55  1  0  0  0  0
  8  9  1  0  0  0  0
  8 56  1  0  0  0  0
  8 57  1  0  0  0  0
  9 10  1  0  0  0  0
 10 11  1  0  0  0  0
 10 58  1  0  0  0  0
 10 59  1  0  0  0  0
 11 12  2  0  0  0  0
 11 13  1  0  0  0  0
 13 14  1  0  0  0  0
 13 38  1  0  0  0  0
 14 40  1  1  0  0  0
 14 15  1  0  0  0  0
 14 37  1  0  0  0  0
 15 16  2  0  0  0  0
 15 17  1  0  0  0  0
 17 18  1  0  0  0  0
 17 60  1  0  0  0  0
 18 41  1  6  0  0  0
 18 19  1  0  0  0  0
 18 20  1  0  0  0  0
 19 61  1  0  0  0  0
 19 62  1  0  0  0  0
 20 42  1  1  0  0  0
 20 21  1  0  0  0  0
 20 36  1  0  0  0  0
 21 22  1  0  0  0  0
 21 63  1  0  0  0  0
 21 64  1  0  0  0  0
 22 23  1  0  0  0  0
 22 65  1  0  0  0  0
 23 25  1  0  0  0  0
 23 24  1  0  0  0  0
 23 26  1  0  0  0  0
 24 25  1  0  0  0  0
 24 66  1  0  0  0  0
 24 67  1  0  0  0  0
 25 68  1  0  0  0  0
 25 69  1  0  0  0  0
 26 31  1  0  0  0  0
 26 27  2  0  0  0  0
 27 28  1  0  0  0  0
 27 70  1  0  0  0  0
 28 29  2  0  0  0  0
 28 71  1  0  0  0  0
 29 30  1  0  0  0  0
 29 72  1  0  0  0  0
 30 31  2  0  0  0  0
 30 32  1  0  0  0  0
 31 73  1  0  0  0  0
 32 33  1  0  0  0  0
 32 34  1  0  0  0  0
 32 35  1  0  0  0  0
 33 74  1  0  0  0  0
 33 75  1  0  0  0  0
 33 76  1  0  0  0  0
 34 77  1  0  0  0  0
 34 78  1  0  0  0  0
 34 79  1  0  0  0  0
 35 80  1  0  0  0  0
 35 81  1  0  0  0  0
 35 82  1  0  0  0  0
 36 83  1  0  0  0  0
 37 84  1  0  0  0  0
 37 85  1  0  0  0  0
 37 86  1  0  0  0  0
 38 87  1  0  0  0  0
 38 88  1  0  0  0  0
 38 89  1  0  0  0  0
M  END
