BACE_12.smi:1
 OpenBabel09281823033D
Structure written by MMmdl.
 79 82  0  0  1  0  0  0  0  0999 V2000
   30.5862   41.9536  -11.4181 C   0  0  0  0  0  0  0  0  0  0  0  0
   29.4558   41.6489  -12.4100 C   0  0  0  0  0  0  0  0  0  0  0  0
   29.9474   41.8152  -13.8588 C   0  0  0  0  0  0  0  0  0  0  0  0
   28.2118   42.4681  -12.0721 C   0  0  0  0  0  0  0  0  0  0  0  0
   28.0226   43.7744  -12.5749 C   0  0  0  0  0  0  0  0  0  0  0  0
   26.8942   44.5251  -12.1927 C   0  0  0  0  0  0  0  0  0  0  0  0
   25.9509   43.9829  -11.2996 C   0  0  0  0  0  0  0  0  0  0  0  0
   26.1180   42.6740  -10.7998 C   0  0  0  0  0  0  0  0  0  0  0  0
   27.2507   41.9305  -11.1897 C   0  0  0  0  0  0  0  0  0  0  0  0
   25.1270   42.0820   -9.8063 C   0  0  0  0  0  0  0  0  0  0  0  0
   23.9139   41.5213  -10.4415 N   0  3  0  0  0  0  0  0  0  0  0  0
   23.0266   42.5254  -11.0823 C   0  0  0  0  0  0  0  0  0  0  0  0
   21.6268   41.9881  -11.4616 C   0  0  2  0  0  0  0  0  0  0  0  0
   20.8858   41.2764  -10.2937 C   0  0  2  0  0  0  0  0  0  0  0  0
   20.6143   39.7665  -10.5157 C   0  0  0  0  0  0  0  0  0  0  0  0
   19.7974   39.1502   -9.3983 C   0  0  0  0  0  0  0  0  0  0  0  0
   20.3352   39.0835   -8.0972 C   0  0  0  0  0  0  0  0  0  0  0  0
   19.5538   38.5904   -7.0398 C   0  0  0  0  0  0  0  0  0  0  0  0
   18.2416   38.1497   -7.2826 C   0  0  0  0  0  0  0  0  0  0  0  0
   17.7040   38.1842   -8.5866 C   0  0  0  0  0  0  0  0  0  0  0  0
   18.4877   38.6864   -9.6455 C   0  0  0  0  0  0  0  0  0  0  0  0
   16.2820   37.7056   -8.8376 C   0  0  0  0  0  0  0  0  0  0  0  0
   15.2322   38.6207   -8.1826 C   0  0  0  0  0  0  0  0  0  0  0  0
   15.1169   40.0008   -8.8518 C   0  0  0  0  0  0  0  0  0  0  0  0
   14.9349   41.1235   -7.8205 C   0  0  0  0  0  0  0  0  0  0  0  0
   14.7397   42.4275   -8.4434 N   0  0  0  0  0  0  0  0  0  0  0  0
   15.8230   43.2685   -8.7044 C   0  0  0  0  0  0  0  0  0  0  0  0
   17.1388   42.7806   -8.8283 C   0  0  0  0  0  0  0  0  0  0  0  0
   18.1703   43.6804   -9.1561 C   0  0  0  0  0  0  0  0  0  0  0  0
   17.8527   45.0475   -9.2843 C   0  0  0  0  0  0  0  0  0  0  0  0
   16.5041   45.4483   -9.1267 C   0  0  0  0  0  0  0  0  0  0  0  0
   15.5126   44.5720   -8.8604 N   0  0  0  0  0  0  0  0  0  0  0  0
   16.0602   46.7460   -9.2418 O   0  0  0  0  0  0  0  0  0  0  0  0
   17.0316   47.7616   -9.4339 C   0  0  0  0  0  0  0  0  0  0  0  0
   19.5691   43.1886   -9.3736 C   0  0  0  0  0  0  0  0  0  0  0  0
   20.5493   43.8849   -9.1075 O   0  0  0  0  0  0  0  0  0  0  0  0
   19.6525   41.9793   -9.9504 N   0  0  0  0  0  0  0  0  0  0  0  0
   21.6600   41.2089  -12.6438 O   0  0  0  0  0  0  0  0  0  0  0  0
   21.0505   42.8646  -11.7603 H   0  0  0  0  0  0  0  0  0  0  0  0
   21.4993   41.3514   -9.3951 H   0  0  0  0  0  0  0  0  0  0  0  0
   30.2775   41.7414  -10.3948 H   0  0  0  0  0  0  0  0  0  0  0  0
   30.8842   43.0021  -11.4653 H   0  0  0  0  0  0  0  0  0  0  0  0
   31.4666   41.3504  -11.6396 H   0  0  0  0  0  0  0  0  0  0  0  0
   29.1910   40.5961  -12.2929 H   0  0  0  0  0  0  0  0  0  0  0  0
   29.1739   41.5643  -14.5814 H   0  0  0  0  0  0  0  0  0  0  0  0
   30.7880   41.1490  -14.0552 H   0  0  0  0  0  0  0  0  0  0  0  0
   30.2904   42.8285  -14.0676 H   0  0  0  0  0  0  0  0  0  0  0  0
   28.7473   44.2218  -13.2377 H   0  0  0  0  0  0  0  0  0  0  0  0
   26.7634   45.5284  -12.5693 H   0  0  0  0  0  0  0  0  0  0  0  0
   25.1047   44.5817  -10.9961 H   0  0  0  0  0  0  0  0  0  0  0  0
   27.4066   40.9501  -10.7762 H   0  0  0  0  0  0  0  0  0  0  0  0
   25.6147   41.2700   -9.2658 H   0  0  0  0  0  0  0  0  0  0  0  0
   24.8512   42.8305   -9.0613 H   0  0  0  0  0  0  0  0  0  0  0  0
   24.2011   40.8534  -11.1465 H   0  0  0  0  0  0  0  0  0  0  0  0
   22.8960   43.3550  -10.3858 H   0  0  0  0  0  0  0  0  0  0  0  0
   23.5094   42.9368  -11.9694 H   0  0  0  0  0  0  0  0  0  0  0  0
   20.0788   39.6102  -11.4536 H   0  0  0  0  0  0  0  0  0  0  0  0
   21.5543   39.2203  -10.6051 H   0  0  0  0  0  0  0  0  0  0  0  0
   21.3372   39.4326   -7.8988 H   0  0  0  0  0  0  0  0  0  0  0  0
   19.9572   38.5541   -6.0400 H   0  0  0  0  0  0  0  0  0  0  0  0
   17.6585   37.7664   -6.4585 H   0  0  0  0  0  0  0  0  0  0  0  0
   18.0740   38.7326  -10.6434 H   0  0  0  0  0  0  0  0  0  0  0  0
   16.0939   37.6229   -9.9080 H   0  0  0  0  0  0  0  0  0  0  0  0
   16.1884   36.6953   -8.4403 H   0  0  0  0  0  0  0  0  0  0  0  0
   14.2501   38.1501   -8.2143 H   0  0  0  0  0  0  0  0  0  0  0  0
   15.4634   38.7212   -7.1195 H   0  0  0  0  0  0  0  0  0  0  0  0
   15.9922   40.2001   -9.4672 H   0  0  0  0  0  0  0  0  0  0  0  0
   14.2713   39.9923   -9.5416 H   0  0  0  0  0  0  0  0  0  0  0  0
   14.0627   40.8959   -7.2131 H   0  0  0  0  0  0  0  0  0  0  0  0
   15.7757   41.1577   -7.1256 H   0  0  0  0  0  0  0  0  0  0  0  0
   13.8340   42.8540   -8.3369 H   0  0  0  0  0  0  0  0  0  0  0  0
   17.3587   41.7342   -8.6818 H   0  0  0  0  0  0  0  0  0  0  0  0
   18.6381   45.7509   -9.5165 H   0  0  0  0  0  0  0  0  0  0  0  0
   16.5350   48.7306   -9.4794 H   0  0  0  0  0  0  0  0  0  0  0  0
   17.5763   47.6263  -10.3691 H   0  0  0  0  0  0  0  0  0  0  0  0
   17.7375   47.7928   -8.6031 H   0  0  0  0  0  0  0  0  0  0  0  0
   18.7849   41.4931  -10.1281 H   0  0  0  0  0  0  0  0  0  0  0  0
   22.5607   40.9501  -12.8404 H   0  0  0  0  0  0  0  0  0  0  0  0
   23.3943   41.0294   -9.7291 H   0  0  0  0  0  0  0  0  0  0  0  0
  1  2  1  0  0  0  0
  1 41  1  0  0  0  0
  1 42  1  0  0  0  0
  1 43  1  0  0  0  0
  2  3  1  0  0  0  0
  2  4  1  0  0  0  0
  2 44  1  0  0  0  0
  3 45  1  0  0  0  0
  3 46  1  0  0  0  0
  3 47  1  0  0  0  0
  4  9  1  0  0  0  0
  4  5  2  0  0  0  0
  5  6  1  0  0  0  0
  5 48  1  0  0  0  0
  6  7  2  0  0  0  0
  6 49  1  0  0  0  0
  7  8  1  0  0  0  0
  7 50  1  0  0  0  0
  8  9  2  0  0  0  0
  8 10  1  0  0  0  0
  9 51  1  0  0  0  0
 10 11  1  0  0  0  0
 10 52  1  0  0  0  0
 10 53  1  0  0  0  0
 11 12  1  0  0  0  0
 11 54  1  0  0  0  0
 11 79  1  0  0  0  0
 12 13  1  0  0  0  0
 12 55  1  0  0  0  0
 12 56  1  0  0  0  0
 13 39  1  6  0  0  0
 13 14  1  0  0  0  0
 13 38  1  0  0  0  0
 14 40  1  1  0  0  0
 14 37  1  0  0  0  0
 14 15  1  0  0  0  0
 15 16  1  0  0  0  0
 15 57  1  0  0  0  0
 15 58  1  0  0  0  0
 16 21  1  0  0  0  0
 16 17  2  0  0  0  0
 17 18  1  0  0  0  0
 17 59  1  0  0  0  0
 18 19  2  0  0  0  0
 18 60  1  0  0  0  0
 19 20  1  0  0  0  0
 19 61  1  0  0  0  0
 20 21  2  0  0  0  0
 20 22  1  0  0  0  0
 21 62  1  0  0  0  0
 22 23  1  0  0  0  0
 22 63  1  0  0  0  0
 22 64  1  0  0  0  0
 23 24  1  0  0  0  0
 23 65  1  0  0  0  0
 23 66  1  0  0  0  0
 24 25  1  0  0  0  0
 24 67  1  0  0  0  0
 24 68  1  0  0  0  0
 25 26  1  0  0  0  0
 25 69  1  0  0  0  0
 25 70  1  0  0  0  0
 26 27  1  0  0  0  0
 26 71  1  0  0  0  0
 27 32  1  0  0  0  0
 27 28  2  0  0  0  0
 28 29  1  0  0  0  0
 28 72  1  0  0  0  0
 29 30  2  0  0  0  0
 29 35  1  0  0  0  0
 30 31  1  0  0  0  0
 30 73  1  0  0  0  0
 31 32  2  0  0  0  0
 31 33  1  0  0  0  0
 33 34  1  0  0  0  0
 34 74  1  0  0  0  0
 34 75  1  0  0  0  0
 34 76  1  0  0  0  0
 35 36  2  0  0  0  0
 35 37  1  0  0  0  0
 37 77  1  0  0  0  0
 38 78  1  0  0  0  0
M  CHG  1  11   1
M  END
