BACE_6.smi:1
 OpenBabel09281823033D
Structure written by MMmdl.
 83 85  0  0  1  0  0  0  0  0999 V2000
   16.3766   51.9311   -9.9642 C   0  0  0  0  0  0  0  0  0  0  0  0
   17.7269   51.3030  -10.3361 C   0  0  0  0  0  0  0  0  0  0  0  0
   17.7450   49.8550  -10.0666 N   0  0  0  0  0  0  0  0  0  0  0  0
   16.8023   49.0760  -10.9025 C   0  0  0  0  0  0  0  0  0  0  0  0
   17.4801   48.0663  -11.8599 C   0  0  0  0  0  0  0  0  0  0  0  0
   16.5246   47.4985  -12.9279 C   0  0  0  0  0  0  0  0  0  0  0  0
   15.3392   46.6625  -12.4025 C   0  0  0  0  0  0  0  0  0  0  0  0
   15.7026   45.2290  -11.9566 C   0  0  0  0  0  0  0  0  0  0  0  0
   14.5098   44.4125  -11.3913 C   0  0  2  0  0  0  0  0  0  0  0  0
   14.9297   43.0098  -10.8635 C   0  0  0  0  0  0  0  0  0  0  0  0
   15.2131   42.9323   -9.3377 C   0  0  2  0  0  0  0  0  0  0  0  0
   16.3591   43.7635   -9.0025 N   0  0  0  0  0  0  0  0  0  0  0  0
   16.3490   44.9074   -8.3019 C   0  0  0  0  0  0  0  0  0  0  0  0
   15.3579   45.3475   -7.7216 O   0  0  0  0  0  0  0  0  0  0  0  0
   17.6018   45.7164   -8.4322 C   0  0  0  0  0  0  0  0  0  0  0  0
   18.8646   45.0873   -8.4893 C   0  0  0  0  0  0  0  0  0  0  0  0
   20.0183   45.8486   -8.7459 C   0  0  0  0  0  0  0  0  0  0  0  0
   19.9070   47.2341   -8.9645 C   0  0  0  0  0  0  0  0  0  0  0  0
   18.6581   47.8806   -8.8788 C   0  0  0  0  0  0  0  0  0  0  0  0
   17.5128   47.1204   -8.5533 C   0  0  0  0  0  0  0  0  0  0  0  0
   18.5958   49.3632   -9.1230 C   0  0  0  0  0  0  0  0  0  0  0  0
   19.3955   50.0774   -8.5111 O   0  0  0  0  0  0  0  0  0  0  0  0
   15.4555   41.4976   -8.7825 C   0  0  1  0  0  0  0  0  0  0  0  0
   15.4642   41.3935   -7.2401 C   0  0  0  0  0  0  0  0  0  0  0  0
   15.5893   39.9815   -6.7838 N   0  3  0  0  0  0  0  0  0  0  0  0
   16.0309   38.9798   -7.7861 C   0  0  0  0  0  0  0  0  0  0  0  0
   17.5242   39.0390   -8.0524 C   0  0  0  0  0  0  0  0  0  0  0  0
   18.4299   38.3702   -7.2055 C   0  0  0  0  0  0  0  0  0  0  0  0
   19.7983   38.3311   -7.5269 C   0  0  0  0  0  0  0  0  0  0  0  0
   20.2773   38.9980   -8.6709 C   0  0  0  0  0  0  0  0  0  0  0  0
   19.3860   39.7175   -9.4982 C   0  0  0  0  0  0  0  0  0  0  0  0
   18.0102   39.7301   -9.1767 C   0  0  0  0  0  0  0  0  0  0  0  0
   19.8799   40.4424  -10.7473 C   0  0  0  0  0  0  0  0  0  0  0  0
   20.7283   41.6676  -10.3746 C   0  0  0  0  0  0  0  0  0  0  0  0
   18.7445   40.8246  -11.7151 C   0  0  0  0  0  0  0  0  0  0  0  0
   14.4355   40.6423   -9.2665 O   0  0  0  0  0  0  0  0  0  0  0  0
   13.3855   44.2667  -12.4361 C   0  0  0  0  0  0  0  0  0  0  0  0
   14.0824   44.9716  -10.5588 H   0  0  0  0  0  0  0  0  0  0  0  0
   14.3373   43.3368   -8.8307 H   0  0  0  0  0  0  0  0  0  0  0  0
   16.4104   41.1248   -9.1586 H   0  0  0  0  0  0  0  0  0  0  0  0
   16.3853   53.0032  -10.1554 H   0  0  0  0  0  0  0  0  0  0  0  0
   16.1497   51.7851   -8.9079 H   0  0  0  0  0  0  0  0  0  0  0  0
   15.5615   51.5020  -10.5448 H   0  0  0  0  0  0  0  0  0  0  0  0
   17.9355   51.4917  -11.3886 H   0  0  0  0  0  0  0  0  0  0  0  0
   18.5285   51.8192   -9.8090 H   0  0  0  0  0  0  0  0  0  0  0  0
   16.0607   48.5842  -10.2745 H   0  0  0  0  0  0  0  0  0  0  0  0
   16.2094   49.7472  -11.5243 H   0  0  0  0  0  0  0  0  0  0  0  0
   18.2973   48.5736  -12.3731 H   0  0  0  0  0  0  0  0  0  0  0  0
   17.9333   47.2397  -11.3160 H   0  0  0  0  0  0  0  0  0  0  0  0
   16.1290   48.3337  -13.5079 H   0  0  0  0  0  0  0  0  0  0  0  0
   17.0962   46.9008  -13.6382 H   0  0  0  0  0  0  0  0  0  0  0  0
   14.8231   47.1882  -11.5984 H   0  0  0  0  0  0  0  0  0  0  0  0
   14.6208   46.6021  -13.2174 H   0  0  0  0  0  0  0  0  0  0  0  0
   16.1402   44.6956  -12.8007 H   0  0  0  0  0  0  0  0  0  0  0  0
   16.4914   45.2915  -11.2098 H   0  0  0  0  0  0  0  0  0  0  0  0
   14.1377   42.2978  -11.0912 H   0  0  0  0  0  0  0  0  0  0  0  0
   15.7920   42.6489  -11.4290 H   0  0  0  0  0  0  0  0  0  0  0  0
   17.2275   43.4954   -9.4433 H   0  0  0  0  0  0  0  0  0  0  0  0
   18.9580   44.0191   -8.3570 H   0  0  0  0  0  0  0  0  0  0  0  0
   20.9831   45.3677   -8.7958 H   0  0  0  0  0  0  0  0  0  0  0  0
   20.7830   47.8138   -9.2128 H   0  0  0  0  0  0  0  0  0  0  0  0
   16.5500   47.5995   -8.4514 H   0  0  0  0  0  0  0  0  0  0  0  0
   16.2731   42.0126   -6.8535 H   0  0  0  0  0  0  0  0  0  0  0  0
   14.5454   41.8203   -6.8423 H   0  0  0  0  0  0  0  0  0  0  0  0
   16.2174   39.9493   -5.9927 H   0  0  0  0  0  0  0  0  0  0  0  0
   15.7492   37.9847   -7.4436 H   0  0  0  0  0  0  0  0  0  0  0  0
   15.4924   39.1452   -8.7227 H   0  0  0  0  0  0  0  0  0  0  0  0
   18.0789   37.8592   -6.3215 H   0  0  0  0  0  0  0  0  0  0  0  0
   20.4861   37.7916   -6.8923 H   0  0  0  0  0  0  0  0  0  0  0  0
   21.3294   38.9466   -8.9015 H   0  0  0  0  0  0  0  0  0  0  0  0
   17.3113   40.2663   -9.7997 H   0  0  0  0  0  0  0  0  0  0  0  0
   20.5282   39.7501  -11.2881 H   0  0  0  0  0  0  0  0  0  0  0  0
   21.5889   41.3834   -9.7690 H   0  0  0  0  0  0  0  0  0  0  0  0
   20.1483   42.3939   -9.8034 H   0  0  0  0  0  0  0  0  0  0  0  0
   21.1041   42.1718  -11.2634 H   0  0  0  0  0  0  0  0  0  0  0  0
   18.1936   39.9407  -12.0396 H   0  0  0  0  0  0  0  0  0  0  0  0
   19.1402   41.3056  -12.6082 H   0  0  0  0  0  0  0  0  0  0  0  0
   18.0371   41.5249  -11.2723 H   0  0  0  0  0  0  0  0  0  0  0  0
   13.6201   40.8128   -8.8032 H   0  0  0  0  0  0  0  0  0  0  0  0
   13.7423   43.7684  -13.3374 H   0  0  0  0  0  0  0  0  0  0  0  0
   12.9672   45.2291  -12.7286 H   0  0  0  0  0  0  0  0  0  0  0  0
   12.5559   43.6825  -12.0447 H   0  0  0  0  0  0  0  0  0  0  0  0
   14.6750   39.6929   -6.4728 H   0  0  0  0  0  0  0  0  0  0  0  0
  1  2  1  0  0  0  0
  1 41  1  0  0  0  0
  1 42  1  0  0  0  0
  1 43  1  0  0  0  0
  2  3  1  0  0  0  0
  2 44  1  0  0  0  0
  2 45  1  0  0  0  0
  3 21  1  0  0  0  0
  3  4  1  0  0  0  0
  4  5  1  0  0  0  0
  4 46  1  0  0  0  0
  4 47  1  0  0  0  0
  5  6  1  0  0  0  0
  5 48  1  0  0  0  0
  5 49  1  0  0  0  0
  6  7  1  0  0  0  0
  6 50  1  0  0  0  0
  6 51  1  0  0  0  0
  7  8  1  0  0  0  0
  7 52  1  0  0  0  0
  7 53  1  0  0  0  0
  8  9  1  0  0  0  0
  8 54  1  0  0  0  0
  8 55  1  0  0  0  0
  9 38  1  1  0  0  0
  9 10  1  0  0  0  0
  9 37  1  0  0  0  0
 10 11  1  0  0  0  0
 10 56  1  0  0  0  0
 10 57  1  0  0  0  0
 11 39  1  1  0  0  0
 11 12  1  0  0  0  0
 11 23  1  0  0  0  0
 12 13  1  0  0  0  0
 12 58  1  0  0  0  0
 13 14  2  0  0  0  0
 13 15  1  0  0  0  0
 15 20  1  0  0  0  0
 15 16  2  0  0  0  0
 16 17  1  0  0  0  0
 16 59  1  0  0  0  0
 17 18  2  0  0  0  0
 17 60  1  0  0  0  0
 18 19  1  0  0  0  0
 18 61  1  0  0  0  0
 19 20  2  0  0  0  0
 19 21  1  0  0  0  0
 20 62  1  0  0  0  0
 21 22  2  0  0  0  0
 23 40  1  6  0  0  0
 23 24  1  0  0  0  0
 23 36  1  0  0  0  0
 24 25  1  0  0  0  0
 24 63  1  0  0  0  0
 24 64  1  0  0  0  0
 25 26  1  0  0  0  0
 25 65  1  0  0  0  0
 25 83  1  0  0  0  0
 26 27  1  0  0  0  0
 26 66  1  0  0  0  0
 26 67  1  0  0  0  0
 27 32  1  0  0  0  0
 27 28  2  0  0  0  0
 28 29  1  0  0  0  0
 28 68  1  0  0  0  0
 29 30  2  0  0  0  0
 29 69  1  0  0  0  0
 30 31  1  0  0  0  0
 30 70  1  0  0  0  0
 31 32  2  0  0  0  0
 31 33  1  0  0  0  0
 32 71  1  0  0  0  0
 33 34  1  0  0  0  0
 33 35  1  0  0  0  0
 33 72  1  0  0  0  0
 34 73  1  0  0  0  0
 34 74  1  0  0  0  0
 34 75  1  0  0  0  0
 35 76  1  0  0  0  0
 35 77  1  0  0  0  0
 35 78  1  0  0  0  0
 36 79  1  0  0  0  0
 37 80  1  0  0  0  0
 37 81  1  0  0  0  0
 37 82  1  0  0  0  0
M  CHG  1  25   1
M  END
