BACE_10.smi:1
 OpenBabel09281823033D
Structure written by MMmdl.
 85 87  0  0  1  0  0  0  0  0999 V2000
   20.5622   38.7727   -7.1742 C   0  0  0  0  0  0  0  0  0  0  0  0
   20.2172   39.4651   -8.5081 C   0  0  2  0  0  0  0  0  0  0  0  0
   19.8511   38.4295   -9.5998 C   0  0  0  0  0  0  0  0  0  0  0  0
   18.5984   37.5929   -9.3070 C   0  0  0  0  0  0  0  0  0  0  0  0
   17.4944   38.4443   -9.0660 O   0  0  0  0  0  0  0  0  0  0  0  0
   16.2559   37.7546   -9.0210 C   0  0  0  0  0  0  0  0  0  0  0  0
   15.1783   38.6392   -8.3828 C   0  0  0  0  0  0  0  0  0  0  0  0
   15.0959   40.0498   -8.9901 C   0  0  0  0  0  0  0  0  0  0  0  0
   15.9787   41.0674   -8.2460 C   0  0  0  0  0  0  0  0  0  0  0  0
   15.9267   42.3823   -8.8691 N   0  0  0  0  0  0  0  0  0  0  0  0
   16.7496   42.7519   -9.9408 C   0  0  0  0  0  0  0  0  0  0  0  0
   16.5160   44.0112  -10.5297 C   0  0  0  0  0  0  0  0  0  0  0  0
   17.3032   44.4624  -11.6058 C   0  0  0  0  0  0  0  0  0  0  0  0
   18.3398   43.6432  -12.0910 C   0  0  0  0  0  0  0  0  0  0  0  0
   18.6216   42.4006  -11.4924 C   0  0  0  0  0  0  0  0  0  0  0  0
   17.7949   41.9385  -10.4406 C   0  0  0  0  0  0  0  0  0  0  0  0
   19.7595   41.5779  -12.0311 C   0  0  0  0  0  0  0  0  0  0  0  0
   19.8121   41.3482  -13.2379 O   0  0  0  0  0  0  0  0  0  0  0  0
   20.7298   41.1561  -11.2005 N   0  0  0  0  0  0  0  0  0  0  0  0
   21.0326   41.5966   -9.8323 C   0  0  1  0  0  0  0  0  0  0  0  0
   21.3894   40.3859   -8.9325 C   0  0  0  0  0  0  0  0  0  0  0  0
   22.1645   42.6661   -9.8389 C   0  0  1  0  0  0  0  0  0  0  0  0
   23.4873   42.2619  -10.5293 C   0  0  0  0  0  0  0  0  0  0  0  0
   24.3270   41.4410   -9.6532 N   0  0  0  0  0  0  0  0  0  0  0  0
   25.5734   40.9727  -10.2700 C   0  0  0  0  0  0  0  0  0  0  0  0
   26.6601   42.0216  -10.4478 C   0  0  0  0  0  0  0  0  0  0  0  0
   26.7245   43.1850   -9.6484 C   0  0  0  0  0  0  0  0  0  0  0  0
   27.7759   44.1044   -9.8230 C   0  0  0  0  0  0  0  0  0  0  0  0
   28.7684   43.8660  -10.7915 C   0  0  0  0  0  0  0  0  0  0  0  0
   28.7154   42.7050  -11.5928 C   0  0  0  0  0  0  0  0  0  0  0  0
   27.6593   41.7877  -11.4116 C   0  0  0  0  0  0  0  0  0  0  0  0
   29.7828   42.4275  -12.6434 C   0  0  0  0  0  0  0  0  0  0  0  0
   31.1486   42.1581  -11.9936 C   0  0  0  0  0  0  0  0  0  0  0  0
   29.8515   43.5530  -13.6880 C   0  0  0  0  0  0  0  0  0  0  0  0
   21.6739   43.8332  -10.4735 O   0  0  0  0  0  0  0  0  0  0  0  0
   17.0110   45.8132  -12.2409 C   0  0  0  0  0  0  0  0  0  0  0  0
   18.0565   46.3176  -13.0641 O   0  0  0  0  0  0  0  0  0  0  0  0
   19.1466   46.8623  -12.3334 C   0  0  0  0  0  0  0  0  0  0  0  0
   19.3485   40.0958   -8.3157 H   0  0  0  0  0  0  0  0  0  0  0  0
   20.1663   42.0750   -9.3750 H   0  0  0  0  0  0  0  0  0  0  0  0
   22.3803   42.9612   -8.8110 H   0  0  0  0  0  0  0  0  0  0  0  0
   21.4470   38.1440   -7.2714 H   0  0  0  0  0  0  0  0  0  0  0  0
   19.7444   38.1541   -6.8108 H   0  0  0  0  0  0  0  0  0  0  0  0
   20.7663   39.5048   -6.3932 H   0  0  0  0  0  0  0  0  0  0  0  0
   19.6785   38.9301  -10.5490 H   0  0  0  0  0  0  0  0  0  0  0  0
   20.6959   37.7590   -9.7651 H   0  0  0  0  0  0  0  0  0  0  0  0
   18.3954   36.9465  -10.1618 H   0  0  0  0  0  0  0  0  0  0  0  0
   18.7504   36.9487   -8.4443 H   0  0  0  0  0  0  0  0  0  0  0  0
   15.9694   37.4703  -10.0344 H   0  0  0  0  0  0  0  0  0  0  0  0
   16.3488   36.8332   -8.4402 H   0  0  0  0  0  0  0  0  0  0  0  0
   14.2101   38.1506   -8.5067 H   0  0  0  0  0  0  0  0  0  0  0  0
   15.3347   38.7020   -7.3035 H   0  0  0  0  0  0  0  0  0  0  0  0
   15.3504   40.0131  -10.0476 H   0  0  0  0  0  0  0  0  0  0  0  0
   14.0599   40.3916   -8.9381 H   0  0  0  0  0  0  0  0  0  0  0  0
   15.6148   41.1735   -7.2218 H   0  0  0  0  0  0  0  0  0  0  0  0
   17.0058   40.7188   -8.1538 H   0  0  0  0  0  0  0  0  0  0  0  0
   15.2605   43.0389   -8.4899 H   0  0  0  0  0  0  0  0  0  0  0  0
   15.7182   44.6391  -10.1556 H   0  0  0  0  0  0  0  0  0  0  0  0
   18.9523   43.9865  -12.9116 H   0  0  0  0  0  0  0  0  0  0  0  0
   17.9902   40.9625  -10.0217 H   0  0  0  0  0  0  0  0  0  0  0  0
   21.4469   40.5917  -11.6339 H   0  0  0  0  0  0  0  0  0  0  0  0
   21.8391   40.7897   -8.0249 H   0  0  0  0  0  0  0  0  0  0  0  0
   22.1700   39.7807   -9.3981 H   0  0  0  0  0  0  0  0  0  0  0  0
   23.2775   41.7507  -11.4642 H   0  0  0  0  0  0  0  0  0  0  0  0
   24.0408   43.1599  -10.8022 H   0  0  0  0  0  0  0  0  0  0  0  0
   23.8120   40.6369   -9.3142 H   0  0  0  0  0  0  0  0  0  0  0  0
   26.0084   40.1929   -9.6426 H   0  0  0  0  0  0  0  0  0  0  0  0
   25.3653   40.5151  -11.2368 H   0  0  0  0  0  0  0  0  0  0  0  0
   25.9746   43.3705   -8.8929 H   0  0  0  0  0  0  0  0  0  0  0  0
   27.8211   44.9911   -9.2079 H   0  0  0  0  0  0  0  0  0  0  0  0
   29.5743   44.5745  -10.9106 H   0  0  0  0  0  0  0  0  0  0  0  0
   27.6217   40.8883  -12.0117 H   0  0  0  0  0  0  0  0  0  0  0  0
   29.4961   41.5188  -13.1761 H   0  0  0  0  0  0  0  0  0  0  0  0
   31.0823   41.3279  -11.2915 H   0  0  0  0  0  0  0  0  0  0  0  0
   31.5138   43.0269  -11.4459 H   0  0  0  0  0  0  0  0  0  0  0  0
   31.8952   41.8973  -12.7435 H   0  0  0  0  0  0  0  0  0  0  0  0
   28.8738   43.7197  -14.1416 H   0  0  0  0  0  0  0  0  0  0  0  0
   30.5503   43.3017  -14.4866 H   0  0  0  0  0  0  0  0  0  0  0  0
   30.1791   44.4947  -13.2457 H   0  0  0  0  0  0  0  0  0  0  0  0
   22.3356   44.5017  -10.4064 H   0  0  0  0  0  0  0  0  0  0  0  0
   16.1261   45.6938  -12.8654 H   0  0  0  0  0  0  0  0  0  0  0  0
   16.7462   46.5426  -11.4724 H   0  0  0  0  0  0  0  0  0  0  0  0
   19.9008   47.2274  -13.0288 H   0  0  0  0  0  0  0  0  0  0  0  0
   19.6218   46.1230  -11.6878 H   0  0  0  0  0  0  0  0  0  0  0  0
   18.8245   47.7008  -11.7150 H   0  0  0  0  0  0  0  0  0  0  0  0
  1  2  1  0  0  0  0
  1 42  1  0  0  0  0
  1 43  1  0  0  0  0
  1 44  1  0  0  0  0
  2 39  1  1  0  0  0
  2 21  1  0  0  0  0
  2  3  1  0  0  0  0
  3  4  1  0  0  0  0
  3 45  1  0  0  0  0
  3 46  1  0  0  0  0
  4  5  1  0  0  0  0
  4 47  1  0  0  0  0
  4 48  1  0  0  0  0
  5  6  1  0  0  0  0
  6  7  1  0  0  0  0
  6 49  1  0  0  0  0
  6 50  1  0  0  0  0
  7  8  1  0  0  0  0
  7 51  1  0  0  0  0
  7 52  1  0  0  0  0
  8  9  1  0  0  0  0
  8 53  1  0  0  0  0
  8 54  1  0  0  0  0
  9 10  1  0  0  0  0
  9 55  1  0  0  0  0
  9 56  1  0  0  0  0
 10 11  1  0  0  0  0
 10 57  1  0  0  0  0
 11 16  1  0  0  0  0
 11 12  2  0  0  0  0
 12 13  1  0  0  0  0
 12 58  1  0  0  0  0
 13 14  2  0  0  0  0
 13 36  1  0  0  0  0
 14 15  1  0  0  0  0
 14 59  1  0  0  0  0
 15 16  2  0  0  0  0
 15 17  1  0  0  0  0
 16 60  1  0  0  0  0
 17 18  2  0  0  0  0
 17 19  1  0  0  0  0
 19 20  1  0  0  0  0
 19 61  1  0  0  0  0
 20 40  1  1  0  0  0
 20 21  1  0  0  0  0
 20 22  1  0  0  0  0
 21 62  1  0  0  0  0
 21 63  1  0  0  0  0
 22 41  1  1  0  0  0
 22 23  1  0  0  0  0
 22 35  1  0  0  0  0
 23 24  1  0  0  0  0
 23 64  1  0  0  0  0
 23 65  1  0  0  0  0
 24 25  1  0  0  0  0
 24 66  1  0  0  0  0
 25 26  1  0  0  0  0
 25 67  1  0  0  0  0
 25 68  1  0  0  0  0
 26 31  1  0  0  0  0
 26 27  2  0  0  0  0
 27 28  1  0  0  0  0
 27 69  1  0  0  0  0
 28 29  2  0  0  0  0
 28 70  1  0  0  0  0
 29 30  1  0  0  0  0
 29 71  1  0  0  0  0
 30 31  2  0  0  0  0
 30 32  1  0  0  0  0
 31 72  1  0  0  0  0
 32 33  1  0  0  0  0
 32 34  1  0  0  0  0
 32 73  1  0  0  0  0
 33 74  1  0  0  0  0
 33 75  1  0  0  0  0
 33 76  1  0  0  0  0
 34 77  1  0  0  0  0
 34 78  1  0  0  0  0
 34 79  1  0  0  0  0
 35 80  1  0  0  0  0
 36 37  1  0  0  0  0
 36 81  1  0  0  0  0
 36 82  1  0  0  0  0
 37 38  1  0  0  0  0
 38 83  1  0  0  0  0
 38 84  1  0  0  0  0
 38 85  1  0  0  0  0
M  END
