BACE_16.smi:1
 OpenBabel09281823033D
Structure written by MMmdl.
 85 88  0  0  1  0  0  0  0  0999 V2000
   30.6956   41.6146  -11.2328 C   0  0  0  0  0  0  0  0  0  0  0  0
   29.6300   42.4429  -11.9633 C   0  0  0  0  0  0  0  0  0  0  0  0
   30.2441   43.6771  -12.6412 C   0  0  0  0  0  0  0  0  0  0  0  0
   28.4760   42.8372  -11.0499 C   0  0  0  0  0  0  0  0  0  0  0  0
   28.7114   43.5509   -9.8546 C   0  0  0  0  0  0  0  0  0  0  0  0
   27.6334   43.9584   -9.0462 C   0  0  0  0  0  0  0  0  0  0  0  0
   26.3117   43.6630   -9.4286 C   0  0  0  0  0  0  0  0  0  0  0  0
   26.0672   42.9472  -10.6186 C   0  0  0  0  0  0  0  0  0  0  0  0
   27.1498   42.5292  -11.4204 C   0  0  0  0  0  0  0  0  0  0  0  0
   24.6475   42.6605  -11.0606 C   0  0  0  0  0  0  0  0  0  0  0  0
   24.1193   41.4336  -10.4251 N   0  3  0  0  0  0  0  0  0  0  0  0
   23.1746   41.7057   -9.3163 C   0  0  0  0  0  0  0  0  0  0  0  0
   22.5910   40.4283   -8.6693 C   0  0  2  0  0  0  0  0  0  0  0  0
   21.5034   40.6827   -7.5791 C   0  0  2  0  0  0  0  0  0  0  0  0
   20.8441   39.3705   -7.0684 C   0  0  0  0  0  0  0  0  0  0  0  0
   19.6811   38.8906   -7.9302 C   0  0  0  0  0  0  0  0  0  0  0  0
   19.9292   38.1504   -9.1015 C   0  0  0  0  0  0  0  0  0  0  0  0
   18.8600   37.7543   -9.9231 C   0  0  0  0  0  0  0  0  0  0  0  0
   17.5406   38.1142   -9.5923 C   0  0  0  0  0  0  0  0  0  0  0  0
   17.2718   38.8620   -8.4197 C   0  0  0  0  0  0  0  0  0  0  0  0
   18.3515   39.2206   -7.5883 C   0  0  0  0  0  0  0  0  0  0  0  0
   16.0158   39.2851   -8.0328 O   0  0  0  0  0  0  0  0  0  0  0  0
   14.9245   39.1749   -8.9437 C   0  0  0  0  0  0  0  0  0  0  0  0
   15.0047   40.2516  -10.0447 C   0  0  0  0  0  0  0  0  0  0  0  0
   14.7115   41.6641   -9.5136 C   0  0  0  0  0  0  0  0  0  0  0  0
   14.9844   42.7789  -10.5340 C   0  0  0  0  0  0  0  0  0  0  0  0
   16.3819   42.9046  -10.7771 O   0  0  0  0  0  0  0  0  0  0  0  0
   17.1244   43.5567   -9.8188 C   0  0  0  0  0  0  0  0  0  0  0  0
   18.3138   42.9450   -9.3806 C   0  0  0  0  0  0  0  0  0  0  0  0
   19.1380   43.5690   -8.4132 C   0  0  0  0  0  0  0  0  0  0  0  0
   18.7822   44.8462   -7.9317 C   0  0  0  0  0  0  0  0  0  0  0  0
   17.6119   45.4918   -8.3894 C   0  0  0  0  0  0  0  0  0  0  0  0
   16.7721   44.8285   -9.3074 C   0  0  0  0  0  0  0  0  0  0  0  0
   17.2580   46.7572   -7.9789 O   0  0  0  0  0  0  0  0  0  0  0  0
   18.3050   47.7277   -7.9706 C   0  0  0  0  0  0  0  0  0  0  0  0
   18.8120   48.0125   -6.5531 C   0  0  0  0  0  0  0  0  0  0  0  0
   18.4597   47.3507   -5.5818 O   0  0  0  0  0  0  0  0  0  0  0  0
   19.8021   49.1596   -6.3943 C   0  0  0  0  0  0  0  0  0  0  0  0
   20.4042   42.9189   -7.9325 C   0  0  0  0  0  0  0  0  0  0  0  0
   21.3232   43.5856   -7.4577 O   0  0  0  0  0  0  0  0  0  0  0  0
   20.4462   41.5837   -8.0438 N   0  0  0  0  0  0  0  0  0  0  0  0
   23.6598   39.7501   -8.0401 O   0  0  0  0  0  0  0  0  0  0  0  0
   22.1810   39.7923   -9.4528 H   0  0  0  0  0  0  0  0  0  0  0  0
   22.0028   41.1472   -6.7252 H   0  0  0  0  0  0  0  0  0  0  0  0
   30.2694   40.6902  -10.8409 H   0  0  0  0  0  0  0  0  0  0  0  0
   31.1429   42.1629  -10.4044 H   0  0  0  0  0  0  0  0  0  0  0  0
   31.5019   41.3498  -11.9182 H   0  0  0  0  0  0  0  0  0  0  0  0
   29.2266   41.8100  -12.7548 H   0  0  0  0  0  0  0  0  0  0  0  0
   29.4931   44.2261  -13.2098 H   0  0  0  0  0  0  0  0  0  0  0  0
   31.0352   43.3907  -13.3344 H   0  0  0  0  0  0  0  0  0  0  0  0
   30.6765   44.3603  -11.9104 H   0  0  0  0  0  0  0  0  0  0  0  0
   29.7192   43.8048   -9.5603 H   0  0  0  0  0  0  0  0  0  0  0  0
   27.8228   44.5084   -8.1355 H   0  0  0  0  0  0  0  0  0  0  0  0
   25.4922   43.9950   -8.8087 H   0  0  0  0  0  0  0  0  0  0  0  0
   26.9624   41.9906  -12.3380 H   0  0  0  0  0  0  0  0  0  0  0  0
   24.0147   43.5245  -10.8507 H   0  0  0  0  0  0  0  0  0  0  0  0
   24.6336   42.5501  -12.1447 H   0  0  0  0  0  0  0  0  0  0  0  0
   23.6509   40.9009  -11.1458 H   0  0  0  0  0  0  0  0  0  0  0  0
   23.6602   42.3233   -8.5594 H   0  0  0  0  0  0  0  0  0  0  0  0
   22.3700   42.2997   -9.7472 H   0  0  0  0  0  0  0  0  0  0  0  0
   21.5762   38.5688   -6.9616 H   0  0  0  0  0  0  0  0  0  0  0  0
   20.4588   39.5421   -6.0614 H   0  0  0  0  0  0  0  0  0  0  0  0
   20.9369   37.8716   -9.3704 H   0  0  0  0  0  0  0  0  0  0  0  0
   19.0476   37.1937  -10.8257 H   0  0  0  0  0  0  0  0  0  0  0  0
   16.7538   37.8079  -10.2633 H   0  0  0  0  0  0  0  0  0  0  0  0
   18.1487   39.7828   -6.6881 H   0  0  0  0  0  0  0  0  0  0  0  0
   14.8521   38.1718   -9.3623 H   0  0  0  0  0  0  0  0  0  0  0  0
   14.0036   39.3073   -8.3745 H   0  0  0  0  0  0  0  0  0  0  0  0
   15.9829   40.2295  -10.5242 H   0  0  0  0  0  0  0  0  0  0  0  0
   14.2799   40.0146  -10.8235 H   0  0  0  0  0  0  0  0  0  0  0  0
   13.6604   41.7121   -9.2391 H   0  0  0  0  0  0  0  0  0  0  0  0
   15.2746   41.8508   -8.5983 H   0  0  0  0  0  0  0  0  0  0  0  0
   14.4915   42.5404  -11.4757 H   0  0  0  0  0  0  0  0  0  0  0  0
   14.5361   43.7125  -10.1988 H   0  0  0  0  0  0  0  0  0  0  0  0
   18.5742   41.9814   -9.7940 H   0  0  0  0  0  0  0  0  0  0  0  0
   19.4202   45.3297   -7.2069 H   0  0  0  0  0  0  0  0  0  0  0  0
   15.8855   45.3350   -9.6555 H   0  0  0  0  0  0  0  0  0  0  0  0
   19.1383   47.4246   -8.6055 H   0  0  0  0  0  0  0  0  0  0  0  0
   17.9123   48.6539   -8.3891 H   0  0  0  0  0  0  0  0  0  0  0  0
   19.3635   50.0885   -6.7578 H   0  0  0  0  0  0  0  0  0  0  0  0
   20.7082   48.9564   -6.9634 H   0  0  0  0  0  0  0  0  0  0  0  0
   20.0698   49.2887   -5.3456 H   0  0  0  0  0  0  0  0  0  0  0  0
   19.6107   41.1276   -8.3851 H   0  0  0  0  0  0  0  0  0  0  0  0
   24.0592   39.1453   -8.6595 H   0  0  0  0  0  0  0  0  0  0  0  0
   24.8932   40.8826  -10.0776 H   0  0  0  0  0  0  0  0  0  0  0  0
  1  2  1  0  0  0  0
  1 45  1  0  0  0  0
  1 46  1  0  0  0  0
  1 47  1  0  0  0  0
  2  3  1  0  0  0  0
  2  4  1  0  0  0  0
  2 48  1  0  0  0  0
  3 49  1  0  0  0  0
  3 50  1  0  0  0  0
  3 51  1  0  0  0  0
  4  9  1  0  0  0  0
  4  5  2  0  0  0  0
  5  6  1  0  0  0  0
  5 52  1  0  0  0  0
  6  7  2  0  0  0  0
  6 53  1  0  0  0  0
  7  8  1  0  0  0  0
  7 54  1  0  0  0  0
  8  9  2  0  0  0  0
  8 10  1  0  0  0  0
  9 55  1  0  0  0  0
 10 11  1  0  0  0  0
 10 56  1  0  0  0  0
 10 57  1  0  0  0  0
 11 12  1  0  0  0  0
 11 58  1  0  0  0  0
 11 85  1  0  0  0  0
 12 13  1  0  0  0  0
 12 59  1  0  0  0  0
 12 60  1  0  0  0  0
 13 43  1  6  0  0  0
 13 14  1  0  0  0  0
 13 42  1  0  0  0  0
 14 44  1  1  0  0  0
 14 41  1  0  0  0  0
 14 15  1  0  0  0  0
 15 16  1  0  0  0  0
 15 61  1  0  0  0  0
 15 62  1  0  0  0  0
 16 21  1  0  0  0  0
 16 17  2  0  0  0  0
 17 18  1  0  0  0  0
 17 63  1  0  0  0  0
 18 19  2  0  0  0  0
 18 64  1  0  0  0  0
 19 20  1  0  0  0  0
 19 65  1  0  0  0  0
 20 21  2  0  0  0  0
 20 22  1  0  0  0  0
 21 66  1  0  0  0  0
 22 23  1  0  0  0  0
 23 24  1  0  0  0  0
 23 67  1  0  0  0  0
 23 68  1  0  0  0  0
 24 25  1  0  0  0  0
 24 69  1  0  0  0  0
 24 70  1  0  0  0  0
 25 26  1  0  0  0  0
 25 71  1  0  0  0  0
 25 72  1  0  0  0  0
 26 27  1  0  0  0  0
 26 73  1  0  0  0  0
 26 74  1  0  0  0  0
 27 28  1  0  0  0  0
 28 33  1  0  0  0  0
 28 29  2  0  0  0  0
 29 30  1  0  0  0  0
 29 75  1  0  0  0  0
 30 31  2  0  0  0  0
 30 39  1  0  0  0  0
 31 32  1  0  0  0  0
 31 76  1  0  0  0  0
 32 33  2  0  0  0  0
 32 34  1  0  0  0  0
 33 77  1  0  0  0  0
 34 35  1  0  0  0  0
 35 36  1  0  0  0  0
 35 78  1  0  0  0  0
 35 79  1  0  0  0  0
 36 37  2  0  0  0  0
 36 38  1  0  0  0  0
 38 80  1  0  0  0  0
 38 81  1  0  0  0  0
 38 82  1  0  0  0  0
 39 40  2  0  0  0  0
 39 41  1  0  0  0  0
 41 83  1  0  0  0  0
 42 84  1  0  0  0  0
M  CHG  1  11   1
M  END
