BACE_5.smi:1
 OpenBabel09281823033D
Structure written by MMmdl.
 80 81  0  0  1  0  0  0  0  0999 V2000
   21.4612   42.6826   -2.4253 C   0  0  0  0  0  0  0  0  0  0  0  0
   22.1544   43.3489   -3.6221 C   0  0  0  0  0  0  0  0  0  0  0  0
   22.9191   42.3816   -4.5438 C   0  0  0  0  0  0  0  0  0  0  0  0
   22.0527   41.4113   -5.2853 C   0  0  0  0  0  0  0  0  0  0  0  0
   21.0835   40.5500   -4.8578 C   0  0  0  0  0  0  0  0  0  0  0  0
   20.6125   39.9225   -6.0420 C   0  0  0  0  0  0  0  0  0  0  0  0
   21.2730   40.3143   -7.1234 N   0  0  0  0  0  0  0  0  0  0  0  0
   22.1457   41.2241   -6.6479 N   0  0  0  0  0  0  0  0  0  0  0  0
   19.5111   38.9119   -6.1528 C   0  0  0  0  0  0  0  0  0  0  0  0
   18.7180   39.1119   -7.3698 N   0  3  0  0  0  0  0  0  0  0  0  0
   17.6014   38.1568   -7.5047 C   0  0  0  0  0  0  0  0  0  0  0  0
   17.0228   38.1487   -8.9323 C   0  0  2  0  0  0  0  0  0  0  0  0
   16.4544   39.5350   -9.3705 C   0  0  2  0  0  0  0  0  0  0  0  0
   14.9693   39.5413   -9.7988 C   0  0  0  0  0  0  0  0  0  0  0  0
   14.3338   40.9101  -10.1694 C   0  0  1  0  0  0  0  0  0  0  0  0
   14.5958   42.0193   -9.1308 C   0  0  0  0  0  0  0  0  0  0  0  0
   13.6969   43.2497   -9.3491 C   0  0  0  0  0  0  0  0  0  0  0  0
   13.8227   44.3308   -8.2671 C   0  0  0  0  0  0  0  0  0  0  0  0
   15.2047   45.0109   -8.1744 C   0  0  0  0  0  0  0  0  0  0  0  0
   15.6692   45.7205   -9.4657 C   0  0  0  0  0  0  0  0  0  0  0  0
   16.9001   45.0680  -10.1087 C   0  0  0  0  0  0  0  0  0  0  0  0
   17.1308   45.6490  -11.3889 O   0  0  0  0  0  0  0  0  0  0  0  0
   18.3483   45.2663  -12.0368 C   0  0  0  0  0  0  0  0  0  0  0  0
   18.3692   43.7516  -12.3427 C   0  0  0  0  0  0  0  0  0  0  0  0
   17.6243   43.3500  -13.2398 O   0  0  0  0  0  0  0  0  0  0  0  0
   19.1405   42.9122  -11.6025 N   0  0  0  0  0  0  0  0  0  0  0  0
   18.9123   41.4457  -11.6397 C   0  0  2  0  0  0  0  0  0  0  0  0
   18.2733   40.9469  -10.3299 C   0  0  0  0  0  0  0  0  0  0  0  0
   18.6584   41.3499   -9.2329 O   0  0  0  0  0  0  0  0  0  0  0  0
   17.2772   40.0595  -10.4576 N   0  0  0  0  0  0  0  0  0  0  0  0
   20.2080   40.6705  -11.9562 C   0  0  0  0  0  0  0  0  0  0  0  0
   20.1799   43.4308  -10.6972 C   0  0  0  0  0  0  0  0  0  0  0  0
   14.6623   41.3745  -11.6018 C   0  0  0  0  0  0  0  0  0  0  0  0
   16.0618   37.1116   -8.9727 O   0  0  0  0  0  0  0  0  0  0  0  0
   22.7932   41.7052   -7.2583 H   0  0  0  0  0  0  0  0  0  0  0  0
   17.8100   37.8378   -9.6228 H   0  0  0  0  0  0  0  0  0  0  0  0
   16.5157   40.2091   -8.5142 H   0  0  0  0  0  0  0  0  0  0  0  0
   13.2611   40.7247  -10.1441 H   0  0  0  0  0  0  0  0  0  0  0  0
   18.2184   41.1874  -12.4401 H   0  0  0  0  0  0  0  0  0  0  0  0
   21.2977   43.3971   -1.6195 H   0  0  0  0  0  0  0  0  0  0  0  0
   22.0589   41.8593   -2.0394 H   0  0  0  0  0  0  0  0  0  0  0  0
   20.4808   42.2938   -2.7011 H   0  0  0  0  0  0  0  0  0  0  0  0
   22.8598   44.0792   -3.2306 H   0  0  0  0  0  0  0  0  0  0  0  0
   21.4260   43.9168   -4.2004 H   0  0  0  0  0  0  0  0  0  0  0  0
   23.6545   41.8294   -3.9574 H   0  0  0  0  0  0  0  0  0  0  0  0
   23.4957   42.9665   -5.2599 H   0  0  0  0  0  0  0  0  0  0  0  0
   20.7354   40.3966   -3.8463 H   0  0  0  0  0  0  0  0  0  0  0  0
   18.8561   38.9576   -5.2793 H   0  0  0  0  0  0  0  0  0  0  0  0
   19.9393   37.9132   -6.1947 H   0  0  0  0  0  0  0  0  0  0  0  0
   19.3519   39.0268   -8.1513 H   0  0  0  0  0  0  0  0  0  0  0  0
   16.8322   38.4098   -6.7739 H   0  0  0  0  0  0  0  0  0  0  0  0
   17.9657   37.1565   -7.2593 H   0  0  0  0  0  0  0  0  0  0  0  0
   14.8597   38.8543  -10.6340 H   0  0  0  0  0  0  0  0  0  0  0  0
   14.3787   39.1191   -8.9842 H   0  0  0  0  0  0  0  0  0  0  0  0
   14.4394   41.6245   -8.1257 H   0  0  0  0  0  0  0  0  0  0  0  0
   15.6434   42.3125   -9.1642 H   0  0  0  0  0  0  0  0  0  0  0  0
   12.6577   42.9252   -9.3808 H   0  0  0  0  0  0  0  0  0  0  0  0
   13.8954   43.6851  -10.3259 H   0  0  0  0  0  0  0  0  0  0  0  0
   13.0561   45.0823   -8.4402 H   0  0  0  0  0  0  0  0  0  0  0  0
   13.5647   43.8859   -7.3076 H   0  0  0  0  0  0  0  0  0  0  0  0
   15.9511   44.2859   -7.8498 H   0  0  0  0  0  0  0  0  0  0  0  0
   15.1627   45.7440   -7.3709 H   0  0  0  0  0  0  0  0  0  0  0  0
   14.8610   45.7499  -10.1959 H   0  0  0  0  0  0  0  0  0  0  0  0
   15.8992   46.7624   -9.2440 H   0  0  0  0  0  0  0  0  0  0  0  0
   16.7326   43.9964  -10.2093 H   0  0  0  0  0  0  0  0  0  0  0  0
   17.7675   45.2109   -9.4622 H   0  0  0  0  0  0  0  0  0  0  0  0
   19.2003   45.6233  -11.4591 H   0  0  0  0  0  0  0  0  0  0  0  0
   18.3971   45.8008  -12.9876 H   0  0  0  0  0  0  0  0  0  0  0  0
   17.0401   39.7515  -11.3889 H   0  0  0  0  0  0  0  0  0  0  0  0
   19.9846   39.6225  -12.1638 H   0  0  0  0  0  0  0  0  0  0  0  0
   20.9230   40.6763  -11.1329 H   0  0  0  0  0  0  0  0  0  0  0  0
   20.7054   41.0727  -12.8387 H   0  0  0  0  0  0  0  0  0  0  0  0
   20.7588   42.6480  -10.2097 H   0  0  0  0  0  0  0  0  0  0  0  0
   19.7436   44.0259   -9.8952 H   0  0  0  0  0  0  0  0  0  0  0  0
   20.8970   44.0471  -11.2423 H   0  0  0  0  0  0  0  0  0  0  0  0
   13.9230   42.0693  -12.0065 H   0  0  0  0  0  0  0  0  0  0  0  0
   14.6913   40.5377  -12.2899 H   0  0  0  0  0  0  0  0  0  0  0  0
   15.6320   41.8676  -11.6400 H   0  0  0  0  0  0  0  0  0  0  0  0
   15.6725   37.0219   -8.1104 H   0  0  0  0  0  0  0  0  0  0  0  0
   18.3657   40.0605   -7.3722 H   0  0  0  0  0  0  0  0  0  0  0  0
  1  2  1  0  0  0  0
  1 40  1  0  0  0  0
  1 41  1  0  0  0  0
  1 42  1  0  0  0  0
  2  3  1  0  0  0  0
  2 43  1  0  0  0  0
  2 44  1  0  0  0  0
  3  4  1  0  0  0  0
  3 45  1  0  0  0  0
  3 46  1  0  0  0  0
  4  8  1  0  0  0  0
  4  5  2  0  0  0  0
  5  6  1  0  0  0  0
  5 47  1  0  0  0  0
  6  7  2  0  0  0  0
  6  9  1  0  0  0  0
  7  8  1  0  0  0  0
  8 35  1  0  0  0  0
  9 10  1  0  0  0  0
  9 48  1  0  0  0  0
  9 49  1  0  0  0  0
 10 11  1  0  0  0  0
 10 50  1  0  0  0  0
 10 80  1  0  0  0  0
 11 12  1  0  0  0  0
 11 51  1  0  0  0  0
 11 52  1  0  0  0  0
 12 36  1  6  0  0  0
 12 13  1  0  0  0  0
 12 34  1  0  0  0  0
 13 37  1  1  0  0  0
 13 30  1  0  0  0  0
 13 14  1  0  0  0  0
 14 15  1  0  0  0  0
 14 53  1  0  0  0  0
 14 54  1  0  0  0  0
 15 38  1  1  0  0  0
 15 16  1  0  0  0  0
 15 33  1  0  0  0  0
 16 17  1  0  0  0  0
 16 55  1  0  0  0  0
 16 56  1  0  0  0  0
 17 18  1  0  0  0  0
 17 57  1  0  0  0  0
 17 58  1  0  0  0  0
 18 19  1  0  0  0  0
 18 59  1  0  0  0  0
 18 60  1  0  0  0  0
 19 20  1  0  0  0  0
 19 61  1  0  0  0  0
 19 62  1  0  0  0  0
 20 21  1  0  0  0  0
 20 63  1  0  0  0  0
 20 64  1  0  0  0  0
 21 22  1  0  0  0  0
 21 65  1  0  0  0  0
 21 66  1  0  0  0  0
 22 23  1  0  0  0  0
 23 24  1  0  0  0  0
 23 67  1  0  0  0  0
 23 68  1  0  0  0  0
 24 25  2  0  0  0  0
 24 26  1  0  0  0  0
 26 27  1  0  0  0  0
 26 32  1  0  0  0  0
 27 39  1  6  0  0  0
 27 28  1  0  0  0  0
 27 31  1  0  0  0  0
 28 29  2  0  0  0  0
 28 30  1  0  0  0  0
 30 69  1  0  0  0  0
 31 70  1  0  0  0  0
 31 71  1  0  0  0  0
 31 72  1  0  0  0  0
 32 73  1  0  0  0  0
 32 74  1  0  0  0  0
 32 75  1  0  0  0  0
 33 76  1  0  0  0  0
 33 77  1  0  0  0  0
 33 78  1  0  0  0  0
 34 79  1  0  0  0  0
M  CHG  1  10   1
M  END
