BACE_5.smi:1
 OpenBabel09281823033D
Structure written by MMmdl.
 79 80  0  0  1  0  0  0  0  0999 V2000
   31.2502   44.1231   -9.2740 C   0  0  0  0  0  0  0  0  0  0  0  0
   29.8720   43.4532   -9.3149 C   0  0  0  0  0  0  0  0  0  0  0  0
   29.0813   43.7853  -10.5894 C   0  0  0  0  0  0  0  0  0  0  0  0
   27.7663   43.0590  -10.6508 C   0  0  0  0  0  0  0  0  0  0  0  0
   26.4466   43.5944  -10.5842 C   0  0  0  0  0  0  0  0  0  0  0  0
   25.6305   42.5105  -10.7467 C   0  0  0  0  0  0  0  0  0  0  0  0
   26.4606   41.4192  -10.8452 N   0  0  0  0  0  0  0  0  0  0  0  0
   27.7638   41.7512  -10.8311 N   0  0  0  0  0  0  0  0  0  0  0  0
   24.1437   42.3996  -10.8376 C   0  0  0  0  0  0  0  0  0  0  0  0
   23.4671   42.6840   -9.5722 N   0  0  0  0  0  0  0  0  0  0  0  0
   23.5220   41.6142   -8.5738 C   0  0  0  0  0  0  0  0  0  0  0  0
   22.6541   40.3741   -8.9119 C   0  0  2  0  0  0  0  0  0  0  0  0
   21.1191   40.5742   -8.7339 C   0  0  2  0  0  0  0  0  0  0  0  0
   20.3146   39.2427   -8.7832 C   0  0  0  0  0  0  0  0  0  0  0  0
   18.8116   39.3581   -8.4121 C   0  0  1  0  0  0  0  0  0  0  0  0
   17.9075   39.5317   -9.6542 C   0  0  0  0  0  0  0  0  0  0  0  0
   16.4867   40.0194   -9.3178 C   0  0  0  0  0  0  0  0  0  0  0  0
   15.7095   40.4575  -10.5696 C   0  0  0  0  0  0  0  0  0  0  0  0
   14.2971   41.0094  -10.2910 C   0  0  0  0  0  0  0  0  0  0  0  0
   14.2276   42.2231   -9.3429 C   0  0  0  0  0  0  0  0  0  0  0  0
   15.1903   43.3658   -9.6833 C   0  0  0  0  0  0  0  0  0  0  0  0
   15.0006   43.7982  -11.0280 O   0  0  0  0  0  0  0  0  0  0  0  0
   15.9564   44.7513  -11.4877 C   0  0  0  0  0  0  0  0  0  0  0  0
   17.3272   44.0779  -11.7110 C   0  0  0  0  0  0  0  0  0  0  0  0
   17.4462   43.3831  -12.7232 O   0  0  0  0  0  0  0  0  0  0  0  0
   18.3127   44.2153  -10.7820 N   0  0  0  0  0  0  0  0  0  0  0  0
   19.5583   43.4111  -10.8481 C   0  0  2  0  0  0  0  0  0  0  0  0
   19.8690   42.5760   -9.5853 C   0  0  0  0  0  0  0  0  0  0  0  0
   19.4570   42.9112   -8.4769 O   0  0  0  0  0  0  0  0  0  0  0  0
   20.6338   41.4880   -9.7736 N   0  0  0  0  0  0  0  0  0  0  0  0
   20.7413   44.3089  -11.2523 C   0  0  0  0  0  0  0  0  0  0  0  0
   18.2339   45.2487   -9.7358 C   0  0  0  0  0  0  0  0  0  0  0  0
   18.3578   38.1502   -7.5695 C   0  0  0  0  0  0  0  0  0  0  0  0
   23.1227   39.3683   -8.0401 O   0  0  0  0  0  0  0  0  0  0  0  0
   26.1634   40.4594  -10.9639 H   0  0  0  0  0  0  0  0  0  0  0  0
   22.8582   40.0128   -9.9197 H   0  0  0  0  0  0  0  0  0  0  0  0
   20.9649   41.0146   -7.7466 H   0  0  0  0  0  0  0  0  0  0  0  0
   18.6975   40.2382   -7.7764 H   0  0  0  0  0  0  0  0  0  0  0  0
   19.4623   42.6702  -11.6434 H   0  0  0  0  0  0  0  0  0  0  0  0
   31.8090   43.8120   -8.3891 H   0  0  0  0  0  0  0  0  0  0  0  0
   31.1593   45.2101   -9.2459 H   0  0  0  0  0  0  0  0  0  0  0  0
   31.8428   43.8552  -10.1505 H   0  0  0  0  0  0  0  0  0  0  0  0
   29.2956   43.7551   -8.4406 H   0  0  0  0  0  0  0  0  0  0  0  0
   30.0080   42.3733   -9.2420 H   0  0  0  0  0  0  0  0  0  0  0  0
   29.6798   43.5307  -11.4657 H   0  0  0  0  0  0  0  0  0  0  0  0
   28.9138   44.8621  -10.6434 H   0  0  0  0  0  0  0  0  0  0  0  0
   26.1437   44.6234  -10.4640 H   0  0  0  0  0  0  0  0  0  0  0  0
   23.8539   41.4251  -11.2270 H   0  0  0  0  0  0  0  0  0  0  0  0
   23.8098   43.1186  -11.5850 H   0  0  0  0  0  0  0  0  0  0  0  0
   22.4998   42.9375   -9.7429 H   0  0  0  0  0  0  0  0  0  0  0  0
   23.2096   42.0078   -7.6060 H   0  0  0  0  0  0  0  0  0  0  0  0
   24.5604   41.3089   -8.4411 H   0  0  0  0  0  0  0  0  0  0  0  0
   20.4295   38.7634   -9.7564 H   0  0  0  0  0  0  0  0  0  0  0  0
   20.7713   38.5518   -8.0748 H   0  0  0  0  0  0  0  0  0  0  0  0
   18.3599   40.2495  -10.3353 H   0  0  0  0  0  0  0  0  0  0  0  0
   17.8541   38.5965  -10.2129 H   0  0  0  0  0  0  0  0  0  0  0  0
   16.5624   40.8545   -8.6212 H   0  0  0  0  0  0  0  0  0  0  0  0
   15.9292   39.2389   -8.7981 H   0  0  0  0  0  0  0  0  0  0  0  0
   16.2883   41.2022  -11.1161 H   0  0  0  0  0  0  0  0  0  0  0  0
   15.6187   39.6040  -11.2399 H   0  0  0  0  0  0  0  0  0  0  0  0
   13.6638   40.2161   -9.8883 H   0  0  0  0  0  0  0  0  0  0  0  0
   13.8425   41.2870  -11.2405 H   0  0  0  0  0  0  0  0  0  0  0  0
   13.2049   42.6021   -9.3326 H   0  0  0  0  0  0  0  0  0  0  0  0
   14.4344   41.8921   -8.3239 H   0  0  0  0  0  0  0  0  0  0  0  0
   16.2085   43.0230   -9.5063 H   0  0  0  0  0  0  0  0  0  0  0  0
   15.0236   44.2034   -9.0049 H   0  0  0  0  0  0  0  0  0  0  0  0
   15.9751   45.6167  -10.8275 H   0  0  0  0  0  0  0  0  0  0  0  0
   15.6093   45.1244  -12.4509 H   0  0  0  0  0  0  0  0  0  0  0  0
   20.9082   41.2685  -10.7197 H   0  0  0  0  0  0  0  0  0  0  0  0
   21.5738   43.7137  -11.6264 H   0  0  0  0  0  0  0  0  0  0  0  0
   21.1069   44.9028  -10.4142 H   0  0  0  0  0  0  0  0  0  0  0  0
   20.4578   45.0038  -12.0399 H   0  0  0  0  0  0  0  0  0  0  0  0
   19.1708   45.3634   -9.1908 H   0  0  0  0  0  0  0  0  0  0  0  0
   17.4649   45.0107   -9.0006 H   0  0  0  0  0  0  0  0  0  0  0  0
   18.0179   46.2264  -10.1666 H   0  0  0  0  0  0  0  0  0  0  0  0
   17.3252   38.2517   -7.2337 H   0  0  0  0  0  0  0  0  0  0  0  0
   18.9656   38.0449   -6.6701 H   0  0  0  0  0  0  0  0  0  0  0  0
   18.4307   37.2197   -8.1332 H   0  0  0  0  0  0  0  0  0  0  0  0
   23.8582   38.9479   -8.4741 H   0  0  0  0  0  0  0  0  0  0  0  0
  1  2  1  0  0  0  0
  1 40  1  0  0  0  0
  1 41  1  0  0  0  0
  1 42  1  0  0  0  0
  2  3  1  0  0  0  0
  2 43  1  0  0  0  0
  2 44  1  0  0  0  0
  3 45  1  0  0  0  0
  3 46  1  0  0  0  0
  3  4  1  0  0  0  0
  4  8  2  0  0  0  0
  4  5  1  0  0  0  0
  5  6  2  0  0  0  0
  5 47  1  0  0  0  0
  6  7  1  0  0  0  0
  6  9  1  0  0  0  0
  7  8  1  0  0  0  0
  7 35  1  0  0  0  0
  9 10  1  0  0  0  0
  9 48  1  0  0  0  0
  9 49  1  0  0  0  0
 10 11  1  0  0  0  0
 10 50  1  0  0  0  0
 11 12  1  0  0  0  0
 11 51  1  0  0  0  0
 11 52  1  0  0  0  0
 12 36  1  6  0  0  0
 12 13  1  0  0  0  0
 12 34  1  0  0  0  0
 13 37  1  1  0  0  0
 13 30  1  0  0  0  0
 13 14  1  0  0  0  0
 14 15  1  0  0  0  0
 14 53  1  0  0  0  0
 14 54  1  0  0  0  0
 15 38  1  1  0  0  0
 15 16  1  0  0  0  0
 15 33  1  0  0  0  0
 16 17  1  0  0  0  0
 16 55  1  0  0  0  0
 16 56  1  0  0  0  0
 17 18  1  0  0  0  0
 17 57  1  0  0  0  0
 17 58  1  0  0  0  0
 18 19  1  0  0  0  0
 18 59  1  0  0  0  0
 18 60  1  0  0  0  0
 19 20  1  0  0  0  0
 19 61  1  0  0  0  0
 19 62  1  0  0  0  0
 20 21  1  0  0  0  0
 20 63  1  0  0  0  0
 20 64  1  0  0  0  0
 21 22  1  0  0  0  0
 21 65  1  0  0  0  0
 21 66  1  0  0  0  0
 22 23  1  0  0  0  0
 23 24  1  0  0  0  0
 23 67  1  0  0  0  0
 23 68  1  0  0  0  0
 24 25  2  0  0  0  0
 24 26  1  0  0  0  0
 26 27  1  0  0  0  0
 26 32  1  0  0  0  0
 27 39  1  6  0  0  0
 27 28  1  0  0  0  0
 27 31  1  0  0  0  0
 28 29  2  0  0  0  0
 28 30  1  0  0  0  0
 30 69  1  0  0  0  0
 31 70  1  0  0  0  0
 31 71  1  0  0  0  0
 31 72  1  0  0  0  0
 32 73  1  0  0  0  0
 32 74  1  0  0  0  0
 32 75  1  0  0  0  0
 33 76  1  0  0  0  0
 33 77  1  0  0  0  0
 33 78  1  0  0  0  0
 34 79  1  0  0  0  0
M  END
