BACE_7.smi:1
 OpenBabel09281823033D
Structure written by MMmdl.
 98102  0  0  1  0  0  0  0  0999 V2000
   25.8992   43.2297  -12.1011 C   0  0  0  0  0  0  0  0  0  0  0  0
   26.3621   42.6476  -10.7589 C   0  0  2  0  0  0  0  0  0  0  0  0
   27.7878   42.0588  -10.8620 C   0  0  0  0  0  0  0  0  0  0  0  0
   28.9006   43.1277  -10.8040 C   0  0  0  0  0  0  0  0  0  0  0  0
   29.1581   43.6584   -9.3804 C   0  0  0  0  0  0  0  0  0  0  0  0
   29.7848   45.0626   -9.3447 C   0  0  0  0  0  0  0  0  0  0  0  0
   29.9346   45.6388   -7.9208 C   0  0  0  0  0  0  0  0  0  0  0  0
   28.6316   45.7705   -7.2271 N   0  0  0  0  0  0  0  0  0  0  0  0
   27.8438   46.8398   -7.5273 C   0  0  0  0  0  0  0  0  0  0  0  0
   28.2622   47.8546   -8.0857 O   0  0  0  0  0  0  0  0  0  0  0  0
   26.3672   46.7134   -7.3130 C   0  0  0  0  0  0  0  0  0  0  0  0
   25.6645   47.6139   -6.4928 C   0  0  0  0  0  0  0  0  0  0  0  0
   24.2675   47.4844   -6.3170 C   0  0  0  0  0  0  0  0  0  0  0  0
   23.5766   46.4391   -6.9841 C   0  0  0  0  0  0  0  0  0  0  0  0
   24.2753   45.5358   -7.8202 C   0  0  0  0  0  0  0  0  0  0  0  0
   25.6593   45.7133   -8.0066 C   0  0  0  0  0  0  0  0  0  0  0  0
   23.5668   44.4382   -8.5658 C   0  0  0  0  0  0  0  0  0  0  0  0
   22.4358   44.6050   -9.0183 O   0  0  0  0  0  0  0  0  0  0  0  0
   24.2741   43.3047   -8.7073 N   0  0  0  0  0  0  0  0  0  0  0  0
   24.0188   42.2399   -9.6813 C   0  0  1  0  0  0  0  0  0  0  0  0
   25.3497   41.6245  -10.1823 C   0  0  0  0  0  0  0  0  0  0  0  0
   22.9850   41.2173   -9.1411 C   0  0  1  0  0  0  0  0  0  0  0  0
   22.1545   40.5921  -10.2746 C   0  0  0  0  0  0  0  0  0  0  0  0
   20.8838   40.1127   -9.7503 N   0  0  0  0  0  0  0  0  0  0  0  0
   19.9907   39.5443  -10.7477 C   0  0  0  0  0  0  0  0  0  0  0  0
   18.7611   38.9650  -10.0855 C   0  0  0  0  0  0  0  0  0  0  0  0
   18.8652   37.7482   -9.3855 C   0  0  0  0  0  0  0  0  0  0  0  0
   17.7350   37.1976   -8.7640 C   0  0  0  0  0  0  0  0  0  0  0  0
   16.5001   37.8636   -8.8302 C   0  0  0  0  0  0  0  0  0  0  0  0
   16.3760   39.0923   -9.5198 C   0  0  0  0  0  0  0  0  0  0  0  0
   17.5260   39.6393  -10.1367 C   0  0  0  0  0  0  0  0  0  0  0  0
   15.0426   39.8418   -9.5982 C   0  0  0  0  0  0  0  0  0  0  0  0
   13.8616   39.0603   -8.9931 C   0  0  0  0  0  0  0  0  0  0  0  0
   14.6924   40.2448  -11.0365 C   0  0  0  0  0  0  0  0  0  0  0  0
   23.6109   40.1531   -8.4395 O   0  0  0  0  0  0  0  0  0  0  0  0
   23.5611   48.4304   -5.4539 C   0  0  0  0  0  0  0  0  0  0  0  0
   24.0704   49.4458   -4.7489 N   0  0  0  0  0  0  0  0  0  0  0  0
   22.9936   50.0159   -4.0884 C   0  0  0  0  0  0  0  0  0  0  0  0
   21.8645   49.3329   -4.4581 C   0  0  0  0  0  0  0  0  0  0  0  0
   22.2081   48.3219   -5.3163 O   0  0  0  0  0  0  0  0  0  0  0  0
   28.4771   44.9096   -6.0217 C   0  0  2  0  0  0  0  0  0  0  0  0
   27.1957   44.0510   -5.9221 C   0  0  0  0  0  0  0  0  0  0  0  0
   28.7866   45.6742   -4.7435 C   0  0  0  0  0  0  0  0  0  0  0  0
   27.7778   46.3225   -3.9977 C   0  0  0  0  0  0  0  0  0  0  0  0
   28.1081   47.0557   -2.8435 C   0  0  0  0  0  0  0  0  0  0  0  0
   29.4486   47.1386   -2.4244 C   0  0  0  0  0  0  0  0  0  0  0  0
   30.4586   46.4848   -3.1576 C   0  0  0  0  0  0  0  0  0  0  0  0
   30.1290   45.7640   -4.3175 C   0  0  0  0  0  0  0  0  0  0  0  0
   26.4222   43.4770  -10.0649 H   0  0  0  0  0  0  0  0  0  0  0  0
   23.5556   42.7334  -10.5373 H   0  0  0  0  0  0  0  0  0  0  0  0
   22.3094   41.7311   -8.4545 H   0  0  0  0  0  0  0  0  0  0  0  0
   29.2521   44.1488   -6.0775 H   0  0  0  0  0  0  0  0  0  0  0  0
   25.7987   42.4414  -12.8393 H   0  0  0  0  0  0  0  0  0  0  0  0
   26.6055   43.9571  -12.4945 H   0  0  0  0  0  0  0  0  0  0  0  0
   24.9385   43.7307  -12.0164 H   0  0  0  0  0  0  0  0  0  0  0  0
   27.9500   41.3522  -10.0480 H   0  0  0  0  0  0  0  0  0  0  0  0
   27.8774   41.4760  -11.7793 H   0  0  0  0  0  0  0  0  0  0  0  0
   29.8297   42.7059  -11.1902 H   0  0  0  0  0  0  0  0  0  0  0  0
   28.6491   43.9490  -11.4727 H   0  0  0  0  0  0  0  0  0  0  0  0
   28.2218   43.6775   -8.8251 H   0  0  0  0  0  0  0  0  0  0  0  0
   29.8057   42.9624   -8.8467 H   0  0  0  0  0  0  0  0  0  0  0  0
   30.7646   45.0281   -9.8222 H   0  0  0  0  0  0  0  0  0  0  0  0
   29.1854   45.7451   -9.9477 H   0  0  0  0  0  0  0  0  0  0  0  0
   30.6365   45.0175   -7.3652 H   0  0  0  0  0  0  0  0  0  0  0  0
   30.4299   46.6098   -7.9740 H   0  0  0  0  0  0  0  0  0  0  0  0
   26.2058   48.3998   -5.9829 H   0  0  0  0  0  0  0  0  0  0  0  0
   22.5102   46.3253   -6.8526 H   0  0  0  0  0  0  0  0  0  0  0  0
   26.2121   45.0665   -8.6680 H   0  0  0  0  0  0  0  0  0  0  0  0
   25.1545   43.2483   -8.2200 H   0  0  0  0  0  0  0  0  0  0  0  0
   25.1462   40.8526  -10.9256 H   0  0  0  0  0  0  0  0  0  0  0  0
   25.8147   41.1011   -9.3498 H   0  0  0  0  0  0  0  0  0  0  0  0
   21.9511   41.3381  -11.0448 H   0  0  0  0  0  0  0  0  0  0  0  0
   22.7061   39.7899  -10.7648 H   0  0  0  0  0  0  0  0  0  0  0  0
   21.0468   39.4520   -8.9962 H   0  0  0  0  0  0  0  0  0  0  0  0
   19.6985   40.3019  -11.4747 H   0  0  0  0  0  0  0  0  0  0  0  0
   20.4902   38.7485  -11.2988 H   0  0  0  0  0  0  0  0  0  0  0  0
   19.8182   37.2456   -9.3154 H   0  0  0  0  0  0  0  0  0  0  0  0
   17.8104   36.2698   -8.2146 H   0  0  0  0  0  0  0  0  0  0  0  0
   15.6682   37.4086   -8.3111 H   0  0  0  0  0  0  0  0  0  0  0  0
   17.4710   40.5898  -10.6456 H   0  0  0  0  0  0  0  0  0  0  0  0
   15.1600   40.7570   -9.0177 H   0  0  0  0  0  0  0  0  0  0  0  0
   13.9390   38.9890   -7.9056 H   0  0  0  0  0  0  0  0  0  0  0  0
   13.8074   38.0511   -9.3916 H   0  0  0  0  0  0  0  0  0  0  0  0
   12.9065   39.5261   -9.2400 H   0  0  0  0  0  0  0  0  0  0  0  0
   15.4612   40.8655  -11.4957 H   0  0  0  0  0  0  0  0  0  0  0  0
   13.7605   40.8101  -11.0670 H   0  0  0  0  0  0  0  0  0  0  0  0
   14.5631   39.3504  -11.6410 H   0  0  0  0  0  0  0  0  0  0  0  0
   24.0616   39.5867   -9.0584 H   0  0  0  0  0  0  0  0  0  0  0  0
   23.1101   50.8540   -3.4143 H   0  0  0  0  0  0  0  0  0  0  0  0
   20.8201   49.4248   -4.2017 H   0  0  0  0  0  0  0  0  0  0  0  0
   27.2707   43.3552   -5.0861 H   0  0  0  0  0  0  0  0  0  0  0  0
   27.0416   43.4487   -6.8164 H   0  0  0  0  0  0  0  0  0  0  0  0
   26.2914   44.6283   -5.7322 H   0  0  0  0  0  0  0  0  0  0  0  0
   26.7419   46.2673   -4.2981 H   0  0  0  0  0  0  0  0  0  0  0  0
   27.3382   47.5600   -2.2794 H   0  0  0  0  0  0  0  0  0  0  0  0
   29.7063   47.7059   -1.5422 H   0  0  0  0  0  0  0  0  0  0  0  0
   31.4901   46.5501   -2.8415 H   0  0  0  0  0  0  0  0  0  0  0  0
   30.9196   45.2969   -4.8819 H   0  0  0  0  0  0  0  0  0  0  0  0
  1  2  1  0  0  0  0
  1 53  1  0  0  0  0
  1 54  1  0  0  0  0
  1 55  1  0  0  0  0
  2 49  1  1  0  0  0
  2 21  1  0  0  0  0
  2  3  1  0  0  0  0
  3  4  1  0  0  0  0
  3 56  1  0  0  0  0
  3 57  1  0  0  0  0
  4  5  1  0  0  0  0
  4 58  1  0  0  0  0
  4 59  1  0  0  0  0
  5  6  1  0  0  0  0
  5 60  1  0  0  0  0
  5 61  1  0  0  0  0
  6  7  1  0  0  0  0
  6 62  1  0  0  0  0
  6 63  1  0  0  0  0
  7  8  1  0  0  0  0
  7 64  1  0  0  0  0
  7 65  1  0  0  0  0
  8  9  1  0  0  0  0
  8 41  1  0  0  0  0
  9 10  2  0  0  0  0
  9 11  1  0  0  0  0
 11 16  1  0  0  0  0
 11 12  2  0  0  0  0
 12 13  1  0  0  0  0
 12 66  1  0  0  0  0
 13 14  2  0  0  0  0
 13 36  1  0  0  0  0
 14 15  1  0  0  0  0
 14 67  1  0  0  0  0
 15 16  2  0  0  0  0
 15 17  1  0  0  0  0
 16 68  1  0  0  0  0
 17 18  2  0  0  0  0
 17 19  1  0  0  0  0
 19 20  1  0  0  0  0
 19 69  1  0  0  0  0
 20 50  1  6  0  0  0
 20 21  1  0  0  0  0
 20 22  1  0  0  0  0
 21 70  1  0  0  0  0
 21 71  1  0  0  0  0
 22 51  1  1  0  0  0
 22 23  1  0  0  0  0
 22 35  1  0  0  0  0
 23 24  1  0  0  0  0
 23 72  1  0  0  0  0
 23 73  1  0  0  0  0
 24 25  1  0  0  0  0
 24 74  1  0  0  0  0
 25 26  1  0  0  0  0
 25 75  1  0  0  0  0
 25 76  1  0  0  0  0
 26 31  1  0  0  0  0
 26 27  2  0  0  0  0
 27 28  1  0  0  0  0
 27 77  1  0  0  0  0
 28 29  2  0  0  0  0
 28 78  1  0  0  0  0
 29 30  1  0  0  0  0
 29 79  1  0  0  0  0
 30 31  2  0  0  0  0
 30 32  1  0  0  0  0
 31 80  1  0  0  0  0
 32 33  1  0  0  0  0
 32 34  1  0  0  0  0
 32 81  1  0  0  0  0
 33 82  1  0  0  0  0
 33 83  1  0  0  0  0
 33 84  1  0  0  0  0
 34 85  1  0  0  0  0
 34 86  1  0  0  0  0
 34 87  1  0  0  0  0
 35 88  1  0  0  0  0
 36 40  1  0  0  0  0
 36 37  2  0  0  0  0
 37 38  1  0  0  0  0
 38 39  2  0  0  0  0
 38 89  1  0  0  0  0
 39 40  1  0  0  0  0
 39 90  1  0  0  0  0
 41 52  1  6  0  0  0
 41 42  1  0  0  0  0
 41 43  1  0  0  0  0
 42 91  1  0  0  0  0
 42 92  1  0  0  0  0
 42 93  1  0  0  0  0
 43 48  1  0  0  0  0
 43 44  2  0  0  0  0
 44 45  1  0  0  0  0
 44 94  1  0  0  0  0
 45 46  2  0  0  0  0
 45 95  1  0  0  0  0
 46 47  1  0  0  0  0
 46 96  1  0  0  0  0
 47 48  2  0  0  0  0
 47 97  1  0  0  0  0
 48 98  1  0  0  0  0
M  END
