BACE_11.smi:1
 OpenBabel09281823033D
Structure written by MMmdl.
 81 83  0  0  1  0  0  0  0  0999 V2000
   15.2645   46.9149  -12.6873 C   0  0  0  0  0  0  0  0  0  0  0  0
   16.2176   46.3082  -11.6382 C   0  0  1  0  0  0  0  0  0  0  0  0
   15.6828   45.0446  -10.9275 C   0  0  0  0  0  0  0  0  0  0  0  0
   14.4718   44.8842  -10.7790 O   0  0  0  0  0  0  0  0  0  0  0  0
   16.5903   44.1704  -10.4569 N   0  0  0  0  0  0  0  0  0  0  0  0
   16.3976   43.0950   -9.4777 C   0  0  1  0  0  0  0  0  0  0  0  0
   16.4076   43.6906   -8.0444 C   0  0  0  0  0  0  0  0  0  0  0  0
   17.7507   44.3093   -7.6924 C   0  0  0  0  0  0  0  0  0  0  0  0
   18.7280   43.5693   -6.9917 C   0  0  0  0  0  0  0  0  0  0  0  0
   19.9919   44.1375   -6.7354 C   0  0  0  0  0  0  0  0  0  0  0  0
   20.2917   45.4383   -7.1861 C   0  0  0  0  0  0  0  0  0  0  0  0
   19.3143   46.1856   -7.8833 C   0  0  0  0  0  0  0  0  0  0  0  0
   18.0451   45.6223   -8.1045 C   0  0  0  0  0  0  0  0  0  0  0  0
   19.5006   47.4449   -8.3958 O   0  0  0  0  0  0  0  0  0  0  0  0
   20.7630   48.0695   -8.2907 C   0  0  0  0  0  0  0  0  0  0  0  0
   20.6571   49.4319   -8.9959 C   0  0  0  0  0  0  0  0  0  0  0  0
   20.6049   49.3586  -10.5360 C   0  0  0  0  0  0  0  0  0  0  0  0
   19.2305   49.6584  -11.1835 C   0  0  0  0  0  0  0  0  0  0  0  0
   18.1674   48.5304  -11.1740 C   0  0  0  0  0  0  0  0  0  0  0  0
   18.5006   47.2987  -12.0475 C   0  0  0  0  0  0  0  0  0  0  0  0
   19.5864   47.2669  -12.6308 O   0  0  0  0  0  0  0  0  0  0  0  0
   17.6079   46.2722  -12.1613 N   0  0  0  0  0  0  0  0  0  0  0  0
   17.9958   45.0974  -12.9582 C   0  0  0  0  0  0  0  0  0  0  0  0
   15.1968   42.1460   -9.7450 C   0  0  1  0  0  0  0  0  0  0  0  0
   15.4462   40.6484   -9.4333 C   0  0  0  0  0  0  0  0  0  0  0  0
   15.2565   40.3181   -7.9981 N   0  3  0  0  0  0  0  0  0  0  0  0
   16.3040   39.4770   -7.3671 C   0  0  0  0  0  0  0  0  0  0  0  0
   17.5819   39.4011   -8.1844 C   0  0  0  0  0  0  0  0  0  0  0  0
   18.4209   38.2683   -8.1035 C   0  0  0  0  0  0  0  0  0  0  0  0
   19.6050   38.2098   -8.8677 C   0  0  0  0  0  0  0  0  0  0  0  0
   19.9593   39.2830   -9.7072 C   0  0  0  0  0  0  0  0  0  0  0  0
   19.1249   40.4191   -9.8000 C   0  0  0  0  0  0  0  0  0  0  0  0
   17.9314   40.4562   -9.0523 C   0  0  0  0  0  0  0  0  0  0  0  0
   19.5128   41.6111  -10.6670 C   0  0  0  0  0  0  0  0  0  0  0  0
   19.6325   42.9001   -9.8451 C   0  0  0  0  0  0  0  0  0  0  0  0
   18.5584   41.7859  -11.8599 C   0  0  0  0  0  0  0  0  0  0  0  0
   14.1559   42.5813   -8.9028 O   0  0  0  0  0  0  0  0  0  0  0  0
   16.1877   47.0090  -10.8041 H   0  0  0  0  0  0  0  0  0  0  0  0
   17.2943   42.4798   -9.5737 H   0  0  0  0  0  0  0  0  0  0  0  0
   14.8661   42.2494  -10.7766 H   0  0  0  0  0  0  0  0  0  0  0  0
   14.2844   47.1310  -12.2602 H   0  0  0  0  0  0  0  0  0  0  0  0
   15.1154   46.2365  -13.5278 H   0  0  0  0  0  0  0  0  0  0  0  0
   15.6575   47.8541  -13.0833 H   0  0  0  0  0  0  0  0  0  0  0  0
   17.5539   44.3862  -10.6667 H   0  0  0  0  0  0  0  0  0  0  0  0
   15.6218   44.4395   -7.9437 H   0  0  0  0  0  0  0  0  0  0  0  0
   16.1831   42.9273   -7.2987 H   0  0  0  0  0  0  0  0  0  0  0  0
   18.5198   42.5630   -6.6647 H   0  0  0  0  0  0  0  0  0  0  0  0
   20.7414   43.5647   -6.2085 H   0  0  0  0  0  0  0  0  0  0  0  0
   21.2781   45.8376   -6.9959 H   0  0  0  0  0  0  0  0  0  0  0  0
   17.3020   46.2006   -8.6324 H   0  0  0  0  0  0  0  0  0  0  0  0
   21.0128   48.2154   -7.2386 H   0  0  0  0  0  0  0  0  0  0  0  0
   21.5463   47.4595   -8.7428 H   0  0  0  0  0  0  0  0  0  0  0  0
   19.8064   49.9903   -8.6057 H   0  0  0  0  0  0  0  0  0  0  0  0
   21.5361   50.0128   -8.7159 H   0  0  0  0  0  0  0  0  0  0  0  0
   21.2908   50.1156  -10.9115 H   0  0  0  0  0  0  0  0  0  0  0  0
   21.0209   48.4161  -10.8896 H   0  0  0  0  0  0  0  0  0  0  0  0
   18.8073   50.5470  -10.7141 H   0  0  0  0  0  0  0  0  0  0  0  0
   19.3982   49.9491  -12.2223 H   0  0  0  0  0  0  0  0  0  0  0  0
   17.9736   48.2194  -10.1484 H   0  0  0  0  0  0  0  0  0  0  0  0
   17.2356   48.9611  -11.5460 H   0  0  0  0  0  0  0  0  0  0  0  0
   18.6899   44.4747  -12.3982 H   0  0  0  0  0  0  0  0  0  0  0  0
   18.4836   45.3760  -13.8939 H   0  0  0  0  0  0  0  0  0  0  0  0
   17.1366   44.4882  -13.2348 H   0  0  0  0  0  0  0  0  0  0  0  0
   14.7236   40.0450   -9.9844 H   0  0  0  0  0  0  0  0  0  0  0  0
   16.4323   40.3260   -9.7768 H   0  0  0  0  0  0  0  0  0  0  0  0
   15.1454   41.1698   -7.4624 H   0  0  0  0  0  0  0  0  0  0  0  0
   16.5589   39.9067   -6.4042 H   0  0  0  0  0  0  0  0  0  0  0  0
   15.9340   38.4772   -7.1459 H   0  0  0  0  0  0  0  0  0  0  0  0
   18.1698   37.4427   -7.4515 H   0  0  0  0  0  0  0  0  0  0  0  0
   20.2569   37.3491   -8.8047 H   0  0  0  0  0  0  0  0  0  0  0  0
   20.8776   39.2330  -10.2737 H   0  0  0  0  0  0  0  0  0  0  0  0
   17.2853   41.3171   -9.1356 H   0  0  0  0  0  0  0  0  0  0  0  0
   20.5020   41.4098  -11.0813 H   0  0  0  0  0  0  0  0  0  0  0  0
   20.3412   42.7879   -9.0252 H   0  0  0  0  0  0  0  0  0  0  0  0
   18.6676   43.1755   -9.4251 H   0  0  0  0  0  0  0  0  0  0  0  0
   19.9710   43.7333  -10.4610 H   0  0  0  0  0  0  0  0  0  0  0  0
   18.5071   40.8724  -12.4530 H   0  0  0  0  0  0  0  0  0  0  0  0
   18.8962   42.5862  -12.5188 H   0  0  0  0  0  0  0  0  0  0  0  0
   17.5451   42.0312  -11.5442 H   0  0  0  0  0  0  0  0  0  0  0  0
   13.7803   41.8295   -8.4618 H   0  0  0  0  0  0  0  0  0  0  0  0
   14.3977   39.7943   -7.9061 H   0  0  0  0  0  0  0  0  0  0  0  0
  1  2  1  0  0  0  0
  1 41  1  0  0  0  0
  1 42  1  0  0  0  0
  1 43  1  0  0  0  0
  2 38  1  1  0  0  0
  2 22  1  0  0  0  0
  2  3  1  0  0  0  0
  3  4  2  0  0  0  0
  3  5  1  0  0  0  0
  5  6  1  0  0  0  0
  5 44  1  0  0  0  0
  6 39  1  6  0  0  0
  6  7  1  0  0  0  0
  6 24  1  0  0  0  0
  7  8  1  0  0  0  0
  7 45  1  0  0  0  0
  7 46  1  0  0  0  0
  8 13  1  0  0  0  0
  8  9  2  0  0  0  0
  9 10  1  0  0  0  0
  9 47  1  0  0  0  0
 10 11  2  0  0  0  0
 10 48  1  0  0  0  0
 11 12  1  0  0  0  0
 11 49  1  0  0  0  0
 12 13  2  0  0  0  0
 12 14  1  0  0  0  0
 13 50  1  0  0  0  0
 14 15  1  0  0  0  0
 15 16  1  0  0  0  0
 15 51  1  0  0  0  0
 15 52  1  0  0  0  0
 16 17  1  0  0  0  0
 16 53  1  0  0  0  0
 16 54  1  0  0  0  0
 17 18  1  0  0  0  0
 17 55  1  0  0  0  0
 17 56  1  0  0  0  0
 18 19  1  0  0  0  0
 18 57  1  0  0  0  0
 18 58  1  0  0  0  0
 19 20  1  0  0  0  0
 19 59  1  0  0  0  0
 19 60  1  0  0  0  0
 20 21  2  0  0  0  0
 20 22  1  0  0  0  0
 22 23  1  0  0  0  0
 23 61  1  0  0  0  0
 23 62  1  0  0  0  0
 23 63  1  0  0  0  0
 24 40  1  6  0  0  0
 24 25  1  0  0  0  0
 24 37  1  0  0  0  0
 25 26  1  0  0  0  0
 25 64  1  0  0  0  0
 25 65  1  0  0  0  0
 26 27  1  0  0  0  0
 26 66  1  0  0  0  0
 26 81  1  0  0  0  0
 27 28  1  0  0  0  0
 27 67  1  0  0  0  0
 27 68  1  0  0  0  0
 28 33  1  0  0  0  0
 28 29  2  0  0  0  0
 29 30  1  0  0  0  0
 29 69  1  0  0  0  0
 30 31  2  0  0  0  0
 30 70  1  0  0  0  0
 31 32  1  0  0  0  0
 31 71  1  0  0  0  0
 32 33  2  0  0  0  0
 32 34  1  0  0  0  0
 33 72  1  0  0  0  0
 34 35  1  0  0  0  0
 34 36  1  0  0  0  0
 34 73  1  0  0  0  0
 35 74  1  0  0  0  0
 35 75  1  0  0  0  0
 35 76  1  0  0  0  0
 36 77  1  0  0  0  0
 36 78  1  0  0  0  0
 36 79  1  0  0  0  0
 37 80  1  0  0  0  0
M  CHG  1  26   1
M  END
