BACE_14.smi:1
 OpenBabel09281823033D
Structure written by MMmdl.
 85 89  0  0  1  0  0  0  0  0999 V2000
   28.2166   46.0888   -8.7025 C   0  0  0  0  0  0  0  0  0  0  0  0
   28.1804   44.6378   -8.1908 C   0  0  0  0  0  0  0  0  0  0  0  0
   27.3698   44.5094   -6.8889 C   0  0  0  0  0  0  0  0  0  0  0  0
   27.7001   43.6627   -9.2642 C   0  0  0  0  0  0  0  0  0  0  0  0
   28.6054   42.7952   -9.9157 C   0  0  0  0  0  0  0  0  0  0  0  0
   28.1466   41.9011  -10.9010 C   0  0  0  0  0  0  0  0  0  0  0  0
   26.7819   41.8675  -11.2444 C   0  0  0  0  0  0  0  0  0  0  0  0
   25.8603   42.7287  -10.6087 C   0  0  0  0  0  0  0  0  0  0  0  0
   26.3321   43.6195   -9.6177 C   0  0  0  0  0  0  0  0  0  0  0  0
   24.3822   42.6963  -10.9699 C   0  0  0  0  0  0  0  0  0  0  0  0
   23.6874   44.0185  -11.1921 C   0  0  0  0  0  0  0  0  0  0  0  0
   23.9941   43.1201  -12.3664 C   0  0  0  0  0  0  0  0  0  0  0  0
   23.6049   41.6148  -10.3454 N   0  0  0  0  0  0  0  0  0  0  0  0
   23.4372   41.7136   -8.8935 C   0  0  0  0  0  0  0  0  0  0  0  0
   22.7360   40.4595   -8.3222 C   0  0  2  0  0  0  0  0  0  0  0  0
   21.8858   40.6885   -7.0394 C   0  0  2  0  0  0  0  0  0  0  0  0
   21.2065   39.3747   -6.5632 C   0  0  0  0  0  0  0  0  0  0  0  0
   20.0678   38.9012   -7.4566 C   0  0  0  0  0  0  0  0  0  0  0  0
   20.3499   38.1569   -8.6198 C   0  0  0  0  0  0  0  0  0  0  0  0
   19.3003   37.7202   -9.4484 C   0  0  0  0  0  0  0  0  0  0  0  0
   17.9660   38.0310   -9.1242 C   0  0  0  0  0  0  0  0  0  0  0  0
   17.6686   38.7847   -7.9624 C   0  0  0  0  0  0  0  0  0  0  0  0
   18.7275   39.1984   -7.1285 C   0  0  0  0  0  0  0  0  0  0  0  0
   16.3941   39.1481   -7.5838 O   0  0  0  0  0  0  0  0  0  0  0  0
   15.3791   39.2519   -8.5836 C   0  0  0  0  0  0  0  0  0  0  0  0
   15.6710   40.4042   -9.5644 C   0  0  0  0  0  0  0  0  0  0  0  0
   15.7663   41.7718   -8.8699 C   0  0  0  0  0  0  0  0  0  0  0  0
   16.4227   42.8328   -9.7682 C   0  0  0  0  0  0  0  0  0  0  0  0
   16.5815   44.1134   -9.0899 N   0  0  0  0  0  0  0  0  0  0  0  0
   17.5907   44.3478   -8.1431 C   0  0  0  0  0  0  0  0  0  0  0  0
   18.5317   43.3631   -7.7561 C   0  0  0  0  0  0  0  0  0  0  0  0
   19.5116   43.6463   -6.7759 C   0  0  0  0  0  0  0  0  0  0  0  0
   19.5444   44.9265   -6.1814 C   0  0  0  0  0  0  0  0  0  0  0  0
   18.6229   45.9149   -6.5733 C   0  0  0  0  0  0  0  0  0  0  0  0
   17.6517   45.6248   -7.5493 C   0  0  0  0  0  0  0  0  0  0  0  0
   18.6660   47.2418   -5.9585 C   0  0  0  0  0  0  0  0  0  0  0  0
   17.7205   47.7383   -5.3462 O   0  0  0  0  0  0  0  0  0  0  0  0
   19.9529   48.0576   -6.0880 C   0  0  0  0  0  0  0  0  0  0  0  0
   20.4753   42.5896   -6.3189 C   0  0  0  0  0  0  0  0  0  0  0  0
   20.8466   42.5468   -5.1576 O   0  0  0  0  0  0  0  0  0  0  0  0
   20.8721   41.7310   -7.2488 N   0  0  0  0  0  0  0  0  0  0  0  0
   23.7080   39.4712   -8.0377 O   0  0  0  0  0  0  0  0  0  0  0  0
   22.0878   40.0298   -9.0875 H   0  0  0  0  0  0  0  0  0  0  0  0
   22.5700   40.9816   -6.2408 H   0  0  0  0  0  0  0  0  0  0  0  0
   28.6267   46.7601   -7.9473 H   0  0  0  0  0  0  0  0  0  0  0  0
   27.2234   46.4568   -8.9613 H   0  0  0  0  0  0  0  0  0  0  0  0
   28.8453   46.1764   -9.5893 H   0  0  0  0  0  0  0  0  0  0  0  0
   29.2087   44.3719   -7.9422 H   0  0  0  0  0  0  0  0  0  0  0  0
   27.7700   45.1623   -6.1125 H   0  0  0  0  0  0  0  0  0  0  0  0
   27.4047   43.4896   -6.5041 H   0  0  0  0  0  0  0  0  0  0  0  0
   26.3220   44.7757   -7.0308 H   0  0  0  0  0  0  0  0  0  0  0  0
   29.6560   42.8067   -9.6653 H   0  0  0  0  0  0  0  0  0  0  0  0
   28.8429   41.2386  -11.3939 H   0  0  0  0  0  0  0  0  0  0  0  0
   26.4460   41.1722  -11.9997 H   0  0  0  0  0  0  0  0  0  0  0  0
   25.6301   44.2772   -9.1254 H   0  0  0  0  0  0  0  0  0  0  0  0
   22.6470   44.1011  -10.8778 H   0  0  0  0  0  0  0  0  0  0  0  0
   24.2816   44.9257  -11.0819 H   0  0  0  0  0  0  0  0  0  0  0  0
   24.7932   43.4266  -13.0413 H   0  0  0  0  0  0  0  0  0  0  0  0
   23.1586   42.6020  -12.8372 H   0  0  0  0  0  0  0  0  0  0  0  0
   23.9891   40.7114  -10.6033 H   0  0  0  0  0  0  0  0  0  0  0  0
   22.8370   42.5959   -8.6717 H   0  0  0  0  0  0  0  0  0  0  0  0
   24.3992   41.8635   -8.4017 H   0  0  0  0  0  0  0  0  0  0  0  0
   21.9537   38.5845   -6.4894 H   0  0  0  0  0  0  0  0  0  0  0  0
   20.8261   39.5115   -5.5509 H   0  0  0  0  0  0  0  0  0  0  0  0
   21.3711   37.9214   -8.8810 H   0  0  0  0  0  0  0  0  0  0  0  0
   19.5188   37.1482  -10.3381 H   0  0  0  0  0  0  0  0  0  0  0  0
   17.1881   37.6792   -9.7857 H   0  0  0  0  0  0  0  0  0  0  0  0
   18.5059   39.7702   -6.2395 H   0  0  0  0  0  0  0  0  0  0  0  0
   15.2339   38.3069   -9.1072 H   0  0  0  0  0  0  0  0  0  0  0  0
   14.4355   39.4478   -8.0744 H   0  0  0  0  0  0  0  0  0  0  0  0
   16.5968   40.2019  -10.1030 H   0  0  0  0  0  0  0  0  0  0  0  0
   14.8911   40.4399  -10.3250 H   0  0  0  0  0  0  0  0  0  0  0  0
   14.7709   42.0952   -8.5653 H   0  0  0  0  0  0  0  0  0  0  0  0
   16.3393   41.6649   -7.9489 H   0  0  0  0  0  0  0  0  0  0  0  0
   17.3893   42.4861  -10.1337 H   0  0  0  0  0  0  0  0  0  0  0  0
   15.8073   42.9878  -10.6544 H   0  0  0  0  0  0  0  0  0  0  0  0
   15.9681   44.8707   -9.3552 H   0  0  0  0  0  0  0  0  0  0  0  0
   18.5001   42.3735   -8.1876 H   0  0  0  0  0  0  0  0  0  0  0  0
   20.2785   45.1534   -5.4225 H   0  0  0  0  0  0  0  0  0  0  0  0
   16.9474   46.3943   -7.8289 H   0  0  0  0  0  0  0  0  0  0  0  0
   20.2045   48.2187   -7.1365 H   0  0  0  0  0  0  0  0  0  0  0  0
   20.7833   47.5484   -5.5983 H   0  0  0  0  0  0  0  0  0  0  0  0
   19.8325   49.0339   -5.6174 H   0  0  0  0  0  0  0  0  0  0  0  0
   20.5039   41.8389   -8.1831 H   0  0  0  0  0  0  0  0  0  0  0  0
   24.0779   39.1709   -8.8538 H   0  0  0  0  0  0  0  0  0  0  0  0
  1  2  1  0  0  0  0
  1 45  1  0  0  0  0
  1 46  1  0  0  0  0
  1 47  1  0  0  0  0
  2  3  1  0  0  0  0
  2  4  1  0  0  0  0
  2 48  1  0  0  0  0
  3 49  1  0  0  0  0
  3 50  1  0  0  0  0
  3 51  1  0  0  0  0
  4  9  1  0  0  0  0
  4  5  2  0  0  0  0
  5  6  1  0  0  0  0
  5 52  1  0  0  0  0
  6  7  2  0  0  0  0
  6 53  1  0  0  0  0
  7  8  1  0  0  0  0
  7 54  1  0  0  0  0
  8  9  2  0  0  0  0
  8 10  1  0  0  0  0
  9 55  1  0  0  0  0
 10 12  1  0  0  0  0
 10 11  1  0  0  0  0
 10 13  1  0  0  0  0
 11 12  1  0  0  0  0
 11 56  1  0  0  0  0
 11 57  1  0  0  0  0
 12 58  1  0  0  0  0
 12 59  1  0  0  0  0
 13 14  1  0  0  0  0
 13 60  1  0  0  0  0
 14 15  1  0  0  0  0
 14 61  1  0  0  0  0
 14 62  1  0  0  0  0
 15 43  1  6  0  0  0
 15 16  1  0  0  0  0
 15 42  1  0  0  0  0
 16 44  1  1  0  0  0
 16 41  1  0  0  0  0
 16 17  1  0  0  0  0
 17 18  1  0  0  0  0
 17 63  1  0  0  0  0
 17 64  1  0  0  0  0
 18 23  1  0  0  0  0
 18 19  2  0  0  0  0
 19 20  1  0  0  0  0
 19 65  1  0  0  0  0
 20 21  2  0  0  0  0
 20 66  1  0  0  0  0
 21 22  1  0  0  0  0
 21 67  1  0  0  0  0
 22 23  2  0  0  0  0
 22 24  1  0  0  0  0
 23 68  1  0  0  0  0
 24 25  1  0  0  0  0
 25 26  1  0  0  0  0
 25 69  1  0  0  0  0
 25 70  1  0  0  0  0
 26 27  1  0  0  0  0
 26 71  1  0  0  0  0
 26 72  1  0  0  0  0
 27 28  1  0  0  0  0
 27 73  1  0  0  0  0
 27 74  1  0  0  0  0
 28 29  1  0  0  0  0
 28 75  1  0  0  0  0
 28 76  1  0  0  0  0
 29 30  1  0  0  0  0
 29 77  1  0  0  0  0
 30 35  1  0  0  0  0
 30 31  2  0  0  0  0
 31 32  1  0  0  0  0
 31 78  1  0  0  0  0
 32 33  2  0  0  0  0
 32 39  1  0  0  0  0
 33 34  1  0  0  0  0
 33 79  1  0  0  0  0
 34 35  2  0  0  0  0
 34 36  1  0  0  0  0
 35 80  1  0  0  0  0
 36 37  2  0  0  0  0
 36 38  1  0  0  0  0
 38 81  1  0  0  0  0
 38 82  1  0  0  0  0
 38 83  1  0  0  0  0
 39 40  2  0  0  0  0
 39 41  1  0  0  0  0
 41 84  1  0  0  0  0
 42 85  1  0  0  0  0
M  END
