BACE_15.smi:1
 OpenBabel09281823033D
Structure written by MMmdl.
 83 86  0  0  1  0  0  0  0  0999 V2000
   20.2362   38.4653   -7.3875 C   0  0  0  0  0  0  0  0  0  0  0  0
   19.5999   38.0333   -8.7173 C   0  0  0  0  0  0  0  0  0  0  0  0
   20.1828   38.7922   -9.9151 C   0  0  0  0  0  0  0  0  0  0  0  0
   18.0825   38.1417   -8.6890 C   0  0  0  0  0  0  0  0  0  0  0  0
   17.3214   37.4304   -9.6369 C   0  0  0  0  0  0  0  0  0  0  0  0
   15.9181   37.5055   -9.6267 C   0  0  0  0  0  0  0  0  0  0  0  0
   15.2607   38.3082   -8.6761 C   0  0  0  0  0  0  0  0  0  0  0  0
   16.0112   39.0413   -7.7336 C   0  0  0  0  0  0  0  0  0  0  0  0
   17.4198   38.9521   -7.7396 C   0  0  0  0  0  0  0  0  0  0  0  0
   15.3143   39.9535   -6.7462 C   0  0  0  0  0  0  0  0  0  0  0  0
   15.2616   41.3535   -7.2246 N   0  3  0  0  0  0  0  0  0  0  0  0
   16.5637   41.8839   -7.6976 C   0  0  0  0  0  0  0  0  0  0  0  0
   16.4320   43.2476   -8.4349 C   0  0  2  0  0  0  0  0  0  0  0  0
   17.1970   44.4337   -7.7823 C   0  0  2  0  0  0  0  0  0  0  0  0
   17.3150   45.6679   -8.7225 C   0  0  0  0  0  0  0  0  0  0  0  0
   18.2854   46.7371   -8.2331 C   0  0  0  0  0  0  0  0  0  0  0  0
   17.9912   47.4647   -7.0623 C   0  0  0  0  0  0  0  0  0  0  0  0
   18.8979   48.4231   -6.5765 C   0  0  0  0  0  0  0  0  0  0  0  0
   20.1073   48.6488   -7.2565 C   0  0  0  0  0  0  0  0  0  0  0  0
   20.4305   47.9189   -8.4179 C   0  0  0  0  0  0  0  0  0  0  0  0
   19.4992   46.9741   -8.9169 C   0  0  0  0  0  0  0  0  0  0  0  0
   21.6555   48.1872   -8.9858 O   0  0  0  0  0  0  0  0  0  0  0  0
   22.2145   47.2772   -9.9294 C   0  0  0  0  0  0  0  0  0  0  0  0
   23.7397   47.3334   -9.7544 C   0  0  0  0  0  0  0  0  0  0  0  0
   24.2055   46.6290   -8.4676 C   0  0  0  0  0  0  0  0  0  0  0  0
   24.5312   45.1384   -8.6773 C   0  0  0  0  0  0  0  0  0  0  0  0
   24.4853   44.4182   -7.4490 O   0  0  0  0  0  0  0  0  0  0  0  0
   23.2654   44.0119   -6.9443 C   0  0  0  0  0  0  0  0  0  0  0  0
   23.2495   43.5404   -5.6163 C   0  0  0  0  0  0  0  0  0  0  0  0
   22.0513   43.1099   -5.0108 C   0  0  0  0  0  0  0  0  0  0  0  0
   20.8513   43.1241   -5.7482 C   0  0  0  0  0  0  0  0  0  0  0  0
   20.8428   43.5939   -7.0779 C   0  0  0  0  0  0  0  0  0  0  0  0
   22.0483   44.0274   -7.6683 C   0  0  0  0  0  0  0  0  0  0  0  0
   19.5770   43.6205   -7.8785 C   0  0  0  0  0  0  0  0  0  0  0  0
   19.5778   43.3450   -9.0775 O   0  0  0  0  0  0  0  0  0  0  0  0
   18.4979   44.0593   -7.2111 N   0  0  0  0  0  0  0  0  0  0  0  0
   22.0639   42.5994   -3.5825 C   0  0  0  0  0  0  0  0  0  0  0  0
   22.2387   41.1905   -3.5174 O   0  0  0  0  0  0  0  0  0  0  0  0
   21.1376   40.4846   -4.0593 C   0  0  0  0  0  0  0  0  0  0  0  0
   15.0580   43.6020   -8.4585 O   0  0  0  0  0  0  0  0  0  0  0  0
   16.7696   43.1512   -9.4677 H   0  0  0  0  0  0  0  0  0  0  0  0
   16.6210   44.7537   -6.9128 H   0  0  0  0  0  0  0  0  0  0  0  0
   19.8159   37.8977   -6.5555 H   0  0  0  0  0  0  0  0  0  0  0  0
   20.0769   39.5248   -7.1852 H   0  0  0  0  0  0  0  0  0  0  0  0
   21.3128   38.2906   -7.3975 H   0  0  0  0  0  0  0  0  0  0  0  0
   19.8490   36.9795   -8.8553 H   0  0  0  0  0  0  0  0  0  0  0  0
   19.7577   38.4178  -10.8472 H   0  0  0  0  0  0  0  0  0  0  0  0
   21.2636   38.6670   -9.9734 H   0  0  0  0  0  0  0  0  0  0  0  0
   19.9717   39.8603   -9.8588 H   0  0  0  0  0  0  0  0  0  0  0  0
   17.8157   36.8202  -10.3753 H   0  0  0  0  0  0  0  0  0  0  0  0
   15.3504   36.9520  -10.3577 H   0  0  0  0  0  0  0  0  0  0  0  0
   14.1812   38.3678   -8.6856 H   0  0  0  0  0  0  0  0  0  0  0  0
   17.9983   39.5194   -7.0247 H   0  0  0  0  0  0  0  0  0  0  0  0
   14.3061   39.5746   -6.5775 H   0  0  0  0  0  0  0  0  0  0  0  0
   15.8369   39.9016   -5.7928 H   0  0  0  0  0  0  0  0  0  0  0  0
   14.5730   41.4304   -7.9587 H   0  0  0  0  0  0  0  0  0  0  0  0
   17.2325   41.9754   -6.8400 H   0  0  0  0  0  0  0  0  0  0  0  0
   17.0233   41.1220   -8.3269 H   0  0  0  0  0  0  0  0  0  0  0  0
   17.6324   45.3390   -9.7141 H   0  0  0  0  0  0  0  0  0  0  0  0
   16.3356   46.1242   -8.8648 H   0  0  0  0  0  0  0  0  0  0  0  0
   17.0750   47.2774   -6.5258 H   0  0  0  0  0  0  0  0  0  0  0  0
   18.6774   48.9764   -5.6755 H   0  0  0  0  0  0  0  0  0  0  0  0
   20.8081   49.3745   -6.8731 H   0  0  0  0  0  0  0  0  0  0  0  0
   19.7093   46.4084   -9.8106 H   0  0  0  0  0  0  0  0  0  0  0  0
   21.8785   46.2530   -9.7875 H   0  0  0  0  0  0  0  0  0  0  0  0
   21.9323   47.5671  -10.9406 H   0  0  0  0  0  0  0  0  0  0  0  0
   24.2338   46.8884  -10.6190 H   0  0  0  0  0  0  0  0  0  0  0  0
   24.0499   48.3791   -9.7343 H   0  0  0  0  0  0  0  0  0  0  0  0
   25.0964   47.1209   -8.0773 H   0  0  0  0  0  0  0  0  0  0  0  0
   23.4473   46.7454   -7.6918 H   0  0  0  0  0  0  0  0  0  0  0  0
   23.9043   44.6916   -9.4450 H   0  0  0  0  0  0  0  0  0  0  0  0
   25.5431   45.0535   -9.0711 H   0  0  0  0  0  0  0  0  0  0  0  0
   24.1721   43.5204   -5.0545 H   0  0  0  0  0  0  0  0  0  0  0  0
   19.9398   42.7705   -5.2875 H   0  0  0  0  0  0  0  0  0  0  0  0
   22.0077   44.3596   -8.6908 H   0  0  0  0  0  0  0  0  0  0  0  0
   18.6424   44.2914   -6.2390 H   0  0  0  0  0  0  0  0  0  0  0  0
   22.8735   43.1020   -3.0485 H   0  0  0  0  0  0  0  0  0  0  0  0
   21.1286   42.8765   -3.0934 H   0  0  0  0  0  0  0  0  0  0  0  0
   21.3236   39.4137   -3.9952 H   0  0  0  0  0  0  0  0  0  0  0  0
   20.9831   40.7385   -5.1093 H   0  0  0  0  0  0  0  0  0  0  0  0
   20.2206   40.7009   -3.5082 H   0  0  0  0  0  0  0  0  0  0  0  0
   14.6644   43.4282   -7.6047 H   0  0  0  0  0  0  0  0  0  0  0  0
   14.9547   41.9252   -6.4490 H   0  0  0  0  0  0  0  0  0  0  0  0
  1  2  1  0  0  0  0
  1 43  1  0  0  0  0
  1 44  1  0  0  0  0
  1 45  1  0  0  0  0
  2  3  1  0  0  0  0
  2  4  1  0  0  0  0
  2 46  1  0  0  0  0
  3 47  1  0  0  0  0
  3 48  1  0  0  0  0
  3 49  1  0  0  0  0
  4  9  1  0  0  0  0
  4  5  2  0  0  0  0
  5  6  1  0  0  0  0
  5 50  1  0  0  0  0
  6  7  2  0  0  0  0
  6 51  1  0  0  0  0
  7  8  1  0  0  0  0
  7 52  1  0  0  0  0
  8  9  2  0  0  0  0
  8 10  1  0  0  0  0
  9 53  1  0  0  0  0
 10 11  1  0  0  0  0
 10 54  1  0  0  0  0
 10 55  1  0  0  0  0
 11 12  1  0  0  0  0
 11 56  1  0  0  0  0
 11 83  1  0  0  0  0
 12 13  1  0  0  0  0
 12 57  1  0  0  0  0
 12 58  1  0  0  0  0
 13 41  1  6  0  0  0
 13 14  1  0  0  0  0
 13 40  1  0  0  0  0
 14 42  1  1  0  0  0
 14 36  1  0  0  0  0
 14 15  1  0  0  0  0
 15 16  1  0  0  0  0
 15 59  1  0  0  0  0
 15 60  1  0  0  0  0
 16 21  1  0  0  0  0
 16 17  2  0  0  0  0
 17 18  1  0  0  0  0
 17 61  1  0  0  0  0
 18 19  2  0  0  0  0
 18 62  1  0  0  0  0
 19 20  1  0  0  0  0
 19 63  1  0  0  0  0
 20 21  2  0  0  0  0
 20 22  1  0  0  0  0
 21 64  1  0  0  0  0
 22 23  1  0  0  0  0
 23 24  1  0  0  0  0
 23 65  1  0  0  0  0
 23 66  1  0  0  0  0
 24 25  1  0  0  0  0
 24 67  1  0  0  0  0
 24 68  1  0  0  0  0
 25 26  1  0  0  0  0
 25 69  1  0  0  0  0
 25 70  1  0  0  0  0
 26 27  1  0  0  0  0
 26 71  1  0  0  0  0
 26 72  1  0  0  0  0
 27 28  1  0  0  0  0
 28 33  1  0  0  0  0
 28 29  2  0  0  0  0
 29 30  1  0  0  0  0
 29 73  1  0  0  0  0
 30 31  2  0  0  0  0
 30 37  1  0  0  0  0
 31 32  1  0  0  0  0
 31 74  1  0  0  0  0
 32 33  2  0  0  0  0
 32 34  1  0  0  0  0
 33 75  1  0  0  0  0
 34 35  2  0  0  0  0
 34 36  1  0  0  0  0
 36 76  1  0  0  0  0
 37 38  1  0  0  0  0
 37 77  1  0  0  0  0
 37 78  1  0  0  0  0
 38 39  1  0  0  0  0
 39 79  1  0  0  0  0
 39 80  1  0  0  0  0
 39 81  1  0  0  0  0
 40 82  1  0  0  0  0
M  CHG  1  11   1
M  END
