BACE_20.smi:1
 OpenBabel09281823033D
Structure written by MMmdl.
 78 79  0  0  1  0  0  0  0  0999 V2000
   28.7881   48.6720  -17.2455 C   0  0  0  0  0  0  0  0  0  0  0  0
   29.1821   47.4416  -16.4225 C   0  0  0  0  0  0  0  0  0  0  0  0
   28.1916   47.1479  -15.2857 C   0  0  0  0  0  0  0  0  0  0  0  0
   28.5699   45.8845  -14.5044 C   0  0  0  0  0  0  0  0  0  0  0  0
   27.6141   45.6043  -13.4417 N   0  0  0  0  0  0  0  0  0  0  0  0
   27.6482   44.3795  -12.7642 C   0  0  0  0  0  0  0  0  0  0  0  0
   26.6575   44.1037  -11.8055 C   0  0  0  0  0  0  0  0  0  0  0  0
   26.6533   42.8445  -11.1735 C   0  0  0  0  0  0  0  0  0  0  0  0
   27.6660   41.9214  -11.5032 C   0  0  0  0  0  0  0  0  0  0  0  0
   28.6334   42.2912  -12.4573 C   0  0  0  0  0  0  0  0  0  0  0  0
   28.6205   43.4972  -13.0742 N   0  0  0  0  0  0  0  0  0  0  0  0
   29.6248   41.3927  -12.7940 O   0  0  0  0  0  0  0  0  0  0  0  0
   30.5105   41.7500  -13.8542 C   0  0  0  0  0  0  0  0  0  0  0  0
   25.5709   42.5067  -10.1950 C   0  0  0  0  0  0  0  0  0  0  0  0
   25.2409   43.3096   -9.3225 O   0  0  0  0  0  0  0  0  0  0  0  0
   24.9301   41.3501  -10.4400 N   0  0  0  0  0  0  0  0  0  0  0  0
   23.5839   40.9831   -9.9712 C   0  0  1  0  0  0  0  0  0  0  0  0
   23.6631   40.6597   -8.4530 C   0  0  0  0  0  0  0  0  0  0  0  0
   22.3734   40.1927   -7.8094 C   0  0  0  0  0  0  0  0  0  0  0  0
   21.7846   38.9667   -8.1888 C   0  0  0  0  0  0  0  0  0  0  0  0
   20.5436   38.5864   -7.6405 C   0  0  0  0  0  0  0  0  0  0  0  0
   19.9179   39.3934   -6.6713 C   0  0  0  0  0  0  0  0  0  0  0  0
   20.5304   40.5915   -6.2604 C   0  0  0  0  0  0  0  0  0  0  0  0
   21.7487   40.9966   -6.8347 C   0  0  0  0  0  0  0  0  0  0  0  0
   22.5203   42.0460  -10.4164 C   0  0  2  0  0  0  0  0  0  0  0  0
   21.0262   41.6049  -10.4150 C   0  0  0  0  0  0  0  0  0  0  0  0
   20.2828   41.4695  -11.7763 C   0  0  1  0  0  0  0  0  0  0  0  0
   20.5858   40.1636  -12.5272 C   0  0  0  0  0  0  0  0  0  0  0  0
   18.7721   41.6949  -11.6218 C   0  0  0  0  0  0  0  0  0  0  0  0
   18.2154   42.5525  -12.3077 O   0  0  0  0  0  0  0  0  0  0  0  0
   18.1481   40.9599  -10.6861 N   0  0  0  0  0  0  0  0  0  0  0  0
   16.8509   41.2223  -10.0629 C   0  0  0  0  0  0  0  0  0  0  0  0
   15.6745   41.4477  -11.0336 C   0  0  0  0  0  0  0  0  0  0  0  0
   14.3458   41.6314  -10.2820 C   0  0  0  0  0  0  0  0  0  0  0  0
   13.2506   42.2690  -11.1431 C   0  0  0  0  0  0  0  0  0  0  0  0
   22.8603   42.5754  -11.6863 O   0  0  0  0  0  0  0  0  0  0  0  0
   23.3281   40.0636  -10.4961 H   0  0  0  0  0  0  0  0  0  0  0  0
   22.5995   42.8862   -9.7258 H   0  0  0  0  0  0  0  0  0  0  0  0
   20.5911   42.2795  -12.4295 H   0  0  0  0  0  0  0  0  0  0  0  0
   29.5119   48.8570  -18.0398 H   0  0  0  0  0  0  0  0  0  0  0  0
   28.7495   49.5650  -16.6214 H   0  0  0  0  0  0  0  0  0  0  0  0
   27.8100   48.5482  -17.7092 H   0  0  0  0  0  0  0  0  0  0  0  0
   30.1767   47.5954  -16.0039 H   0  0  0  0  0  0  0  0  0  0  0  0
   29.2599   46.5758  -17.0790 H   0  0  0  0  0  0  0  0  0  0  0  0
   27.1875   47.0361  -15.6945 H   0  0  0  0  0  0  0  0  0  0  0  0
   28.1563   48.0012  -14.6071 H   0  0  0  0  0  0  0  0  0  0  0  0
   29.5613   45.9947  -14.0645 H   0  0  0  0  0  0  0  0  0  0  0  0
   28.6136   45.0322  -15.1841 H   0  0  0  0  0  0  0  0  0  0  0  0
   26.9018   46.2835  -13.2178 H   0  0  0  0  0  0  0  0  0  0  0  0
   25.8870   44.8259  -11.5787 H   0  0  0  0  0  0  0  0  0  0  0  0
   27.7049   40.9500  -11.0395 H   0  0  0  0  0  0  0  0  0  0  0  0
   31.2252   40.9496  -14.0334 H   0  0  0  0  0  0  0  0  0  0  0  0
   31.0814   42.6455  -13.6117 H   0  0  0  0  0  0  0  0  0  0  0  0
   29.9666   41.9132  -14.7855 H   0  0  0  0  0  0  0  0  0  0  0  0
   25.3008   40.7835  -11.1886 H   0  0  0  0  0  0  0  0  0  0  0  0
   24.4077   39.8801   -8.2882 H   0  0  0  0  0  0  0  0  0  0  0  0
   24.0240   41.5292   -7.9056 H   0  0  0  0  0  0  0  0  0  0  0  0
   22.2600   38.3410   -8.9305 H   0  0  0  0  0  0  0  0  0  0  0  0
   20.0605   37.6789   -7.9645 H   0  0  0  0  0  0  0  0  0  0  0  0
   18.9700   39.0954   -6.2446 H   0  0  0  0  0  0  0  0  0  0  0  0
   20.0603   41.2107   -5.5118 H   0  0  0  0  0  0  0  0  0  0  0  0
   22.1959   41.9300   -6.5257 H   0  0  0  0  0  0  0  0  0  0  0  0
   20.4931   42.3326   -9.8018 H   0  0  0  0  0  0  0  0  0  0  0  0
   20.9018   40.6673   -9.8869 H   0  0  0  0  0  0  0  0  0  0  0  0
   21.6519   40.0676  -12.7363 H   0  0  0  0  0  0  0  0  0  0  0  0
   20.0608   40.1500  -13.4842 H   0  0  0  0  0  0  0  0  0  0  0  0
   20.2791   39.2851  -11.9604 H   0  0  0  0  0  0  0  0  0  0  0  0
   18.7097   40.2593  -10.2224 H   0  0  0  0  0  0  0  0  0  0  0  0
   16.9618   42.0873   -9.4056 H   0  0  0  0  0  0  0  0  0  0  0  0
   16.6258   40.3753   -9.4113 H   0  0  0  0  0  0  0  0  0  0  0  0
   15.5954   40.6088  -11.7260 H   0  0  0  0  0  0  0  0  0  0  0  0
   15.8543   42.3389  -11.6313 H   0  0  0  0  0  0  0  0  0  0  0  0
   14.5023   42.2629   -9.4064 H   0  0  0  0  0  0  0  0  0  0  0  0
   14.0044   40.6679   -9.9005 H   0  0  0  0  0  0  0  0  0  0  0  0
   12.3178   42.3338  -10.5813 H   0  0  0  0  0  0  0  0  0  0  0  0
   13.0554   41.6862  -12.0400 H   0  0  0  0  0  0  0  0  0  0  0  0
   13.5251   43.2766  -11.4502 H   0  0  0  0  0  0  0  0  0  0  0  0
   23.1738   41.8678  -12.2399 H   0  0  0  0  0  0  0  0  0  0  0  0
  1  2  1  0  0  0  0
  1 40  1  0  0  0  0
  1 41  1  0  0  0  0
  1 42  1  0  0  0  0
  2  3  1  0  0  0  0
  2 43  1  0  0  0  0
  2 44  1  0  0  0  0
  3  4  1  0  0  0  0
  3 45  1  0  0  0  0
  3 46  1  0  0  0  0
  4  5  1  0  0  0  0
  4 47  1  0  0  0  0
  4 48  1  0  0  0  0
  5  6  1  0  0  0  0
  5 49  1  0  0  0  0
  6 11  1  0  0  0  0
  6  7  2  0  0  0  0
  7  8  1  0  0  0  0
  7 50  1  0  0  0  0
  8  9  2  0  0  0  0
  8 14  1  0  0  0  0
  9 10  1  0  0  0  0
  9 51  1  0  0  0  0
 10 11  2  0  0  0  0
 10 12  1  0  0  0  0
 12 13  1  0  0  0  0
 13 52  1  0  0  0  0
 13 53  1  0  0  0  0
 13 54  1  0  0  0  0
 14 15  2  0  0  0  0
 14 16  1  0  0  0  0
 16 17  1  0  0  0  0
 16 55  1  0  0  0  0
 17 37  1  6  0  0  0
 17 18  1  0  0  0  0
 17 25  1  0  0  0  0
 18 19  1  0  0  0  0
 18 56  1  0  0  0  0
 18 57  1  0  0  0  0
 19 24  1  0  0  0  0
 19 20  2  0  0  0  0
 20 21  1  0  0  0  0
 20 58  1  0  0  0  0
 21 22  2  0  0  0  0
 21 59  1  0  0  0  0
 22 23  1  0  0  0  0
 22 60  1  0  0  0  0
 23 24  2  0  0  0  0
 23 61  1  0  0  0  0
 24 62  1  0  0  0  0
 25 38  1  1  0  0  0
 25 26  1  0  0  0  0
 25 36  1  0  0  0  0
 26 27  1  0  0  0  0
 26 63  1  0  0  0  0
 26 64  1  0  0  0  0
 27 39  1  6  0  0  0
 27 28  1  0  0  0  0
 27 29  1  0  0  0  0
 28 65  1  0  0  0  0
 28 66  1  0  0  0  0
 28 67  1  0  0  0  0
 29 30  2  0  0  0  0
 29 31  1  0  0  0  0
 31 32  1  0  0  0  0
 31 68  1  0  0  0  0
 32 33  1  0  0  0  0
 32 69  1  0  0  0  0
 32 70  1  0  0  0  0
 33 34  1  0  0  0  0
 33 71  1  0  0  0  0
 33 72  1  0  0  0  0
 34 35  1  0  0  0  0
 34 73  1  0  0  0  0
 34 74  1  0  0  0  0
 35 75  1  0  0  0  0
 35 76  1  0  0  0  0
 35 77  1  0  0  0  0
 36 78  1  0  0  0  0
M  END
