BACE_13.smi:1
 OpenBabel09281823033D
Structure written by MMmdl.
 76 79  0  0  1  0  0  0  0  0999 V2000
   18.8052   42.0069  -12.7368 C   0  0  0  0  0  0  0  0  0  0  0  0
   18.3848   43.3496  -12.9620 O   0  0  0  0  0  0  0  0  0  0  0  0
   17.3964   43.8381  -12.0567 C   0  0  0  0  0  0  0  0  0  0  0  0
   17.6913   43.5407  -10.5980 C   0  0  0  0  0  0  0  0  0  0  0  0
   18.9853   43.7520  -10.0900 C   0  0  0  0  0  0  0  0  0  0  0  0
   19.3228   43.3021   -8.7970 C   0  0  0  0  0  0  0  0  0  0  0  0
   18.3190   42.7673   -7.9626 C   0  0  0  0  0  0  0  0  0  0  0  0
   17.0107   42.5823   -8.4540 C   0  0  0  0  0  0  0  0  0  0  0  0
   16.7011   42.9705   -9.7752 C   0  0  0  0  0  0  0  0  0  0  0  0
   16.0604   41.9577   -7.6402 N   0  0  0  0  0  0  0  0  0  0  0  0
   15.2275   40.8970   -8.1952 C   0  0  0  0  0  0  0  0  0  0  0  0
   16.0465   39.7038   -8.7183 C   0  0  0  0  0  0  0  0  0  0  0  0
   16.8035   38.9656   -7.6035 C   0  0  0  0  0  0  0  0  0  0  0  0
   17.7063   37.8403   -8.1435 C   0  0  0  0  0  0  0  0  0  0  0  0
   18.8009   38.3538   -8.9050 O   0  0  0  0  0  0  0  0  0  0  0  0
   19.8746   38.9249   -8.2477 C   0  0  0  0  0  0  0  0  0  0  0  0
   20.0218   38.9501   -6.8385 C   0  0  0  0  0  0  0  0  0  0  0  0
   21.1426   39.5566   -6.2420 C   0  0  0  0  0  0  0  0  0  0  0  0
   22.1332   40.1476   -7.0423 C   0  0  0  0  0  0  0  0  0  0  0  0
   22.0021   40.1434   -8.4442 C   0  0  0  0  0  0  0  0  0  0  0  0
   20.8803   39.5220   -9.0400 C   0  0  0  0  0  0  0  0  0  0  0  0
   23.0456   40.8602   -9.2894 C   0  0  0  0  0  0  0  0  0  0  0  0
   22.9653   42.4084   -9.1860 C   0  0  2  0  0  0  0  0  0  0  0  0
   21.5827   42.8523   -9.3270 N   0  0  0  0  0  0  0  0  0  0  0  0
   20.7534   43.2813   -8.3628 C   0  0  0  0  0  0  0  0  0  0  0  0
   21.0874   43.5184   -7.2027 O   0  0  0  0  0  0  0  0  0  0  0  0
   23.8414   43.1896  -10.1980 C   0  0  1  0  0  0  0  0  0  0  0  0
   25.3627   42.9398  -10.0205 C   0  0  1  0  0  0  0  0  0  0  0  0
   25.9494   41.7815  -10.8538 C   0  0  0  0  0  0  0  0  0  0  0  0
   27.3128   41.6021  -10.4919 O   0  0  0  0  0  0  0  0  0  0  0  0
   28.1259   42.7442  -10.7431 C   0  0  2  0  0  0  0  0  0  0  0  0
   27.5565   43.9802  -10.0115 C   0  0  0  0  0  0  0  0  0  0  0  0
   26.1289   44.1614  -10.2864 N   0  0  0  0  0  0  0  0  0  0  0  0
   28.3768   42.9522  -12.2570 C   0  0  0  0  0  0  0  0  0  0  0  0
   29.7643   43.0236  -12.5568 O   0  0  0  0  0  0  0  0  0  0  0  0
   30.3810   41.7504  -12.6726 C   0  0  0  0  0  0  0  0  0  0  0  0
   23.4048   42.9490  -11.5297 O   0  0  0  0  0  0  0  0  0  0  0  0
   23.3034   42.6833   -8.1860 H   0  0  0  0  0  0  0  0  0  0  0  0
   23.6505   44.2477  -10.0072 H   0  0  0  0  0  0  0  0  0  0  0  0
   25.5141   42.6870   -8.9702 H   0  0  0  0  0  0  0  0  0  0  0  0
   29.0843   42.5201  -10.2742 H   0  0  0  0  0  0  0  0  0  0  0  0
   19.2600   41.6093  -13.6399 H   0  0  0  0  0  0  0  0  0  0  0  0
   17.9796   41.3569  -12.4408 H   0  0  0  0  0  0  0  0  0  0  0  0
   19.5667   41.9523  -11.9603 H   0  0  0  0  0  0  0  0  0  0  0  0
   16.4354   43.4037  -12.3282 H   0  0  0  0  0  0  0  0  0  0  0  0
   17.2974   44.9163  -12.1881 H   0  0  0  0  0  0  0  0  0  0  0  0
   19.7418   44.1690  -10.7409 H   0  0  0  0  0  0  0  0  0  0  0  0
   18.5729   42.4167   -6.9714 H   0  0  0  0  0  0  0  0  0  0  0  0
   15.7104   42.8030  -10.1706 H   0  0  0  0  0  0  0  0  0  0  0  0
   16.2865   41.8483   -6.6559 H   0  0  0  0  0  0  0  0  0  0  0  0
   14.5900   41.2966   -8.9841 H   0  0  0  0  0  0  0  0  0  0  0  0
   14.5542   40.5553   -7.4070 H   0  0  0  0  0  0  0  0  0  0  0  0
   16.7456   40.0361   -9.4874 H   0  0  0  0  0  0  0  0  0  0  0  0
   15.3707   39.0014   -9.2083 H   0  0  0  0  0  0  0  0  0  0  0  0
   16.0776   38.5494   -6.9045 H   0  0  0  0  0  0  0  0  0  0  0  0
   17.3934   39.6731   -7.0222 H   0  0  0  0  0  0  0  0  0  0  0  0
   17.1218   37.1924   -8.7979 H   0  0  0  0  0  0  0  0  0  0  0  0
   18.0536   37.1868   -7.3429 H   0  0  0  0  0  0  0  0  0  0  0  0
   19.2860   38.5134   -6.1816 H   0  0  0  0  0  0  0  0  0  0  0  0
   21.2378   39.5766   -5.1663 H   0  0  0  0  0  0  0  0  0  0  0  0
   22.9785   40.6272   -6.5742 H   0  0  0  0  0  0  0  0  0  0  0  0
   20.7735   39.5198  -10.1150 H   0  0  0  0  0  0  0  0  0  0  0  0
   22.9369   40.5370  -10.3262 H   0  0  0  0  0  0  0  0  0  0  0  0
   24.0259   40.5145   -8.9605 H   0  0  0  0  0  0  0  0  0  0  0  0
   21.1795   42.6966  -10.2375 H   0  0  0  0  0  0  0  0  0  0  0  0
   25.8550   41.9808  -11.9213 H   0  0  0  0  0  0  0  0  0  0  0  0
   25.4305   40.8431  -10.6682 H   0  0  0  0  0  0  0  0  0  0  0  0
   28.1175   44.8726  -10.2883 H   0  0  0  0  0  0  0  0  0  0  0  0
   27.7012   43.8476   -8.9392 H   0  0  0  0  0  0  0  0  0  0  0  0
   25.7644   44.9260   -9.7275 H   0  0  0  0  0  0  0  0  0  0  0  0
   27.9200   42.1570  -12.8427 H   0  0  0  0  0  0  0  0  0  0  0  0
   27.9048   43.8766  -12.5904 H   0  0  0  0  0  0  0  0  0  0  0  0
   31.4424   41.8746  -12.8870 H   0  0  0  0  0  0  0  0  0  0  0  0
   29.9424   41.1719  -13.4862 H   0  0  0  0  0  0  0  0  0  0  0  0
   30.2891   41.1707  -11.7525 H   0  0  0  0  0  0  0  0  0  0  0  0
   23.6593   42.0758  -11.8021 H   0  0  0  0  0  0  0  0  0  0  0  0
  1  2  1  0  0  0  0
  1 42  1  0  0  0  0
  1 43  1  0  0  0  0
  1 44  1  0  0  0  0
  2  3  1  0  0  0  0
  3  4  1  0  0  0  0
  3 45  1  0  0  0  0
  3 46  1  0  0  0  0
  4  9  1  0  0  0  0
  4  5  2  0  0  0  0
  5  6  1  0  0  0  0
  5 47  1  0  0  0  0
  6 25  1  0  0  0  0
  6  7  2  0  0  0  0
  7  8  1  0  0  0  0
  7 48  1  0  0  0  0
  8  9  2  0  0  0  0
  8 10  1  0  0  0  0
  9 49  1  0  0  0  0
 10 11  1  0  0  0  0
 10 50  1  0  0  0  0
 11 12  1  0  0  0  0
 11 51  1  0  0  0  0
 11 52  1  0  0  0  0
 12 13  1  0  0  0  0
 12 53  1  0  0  0  0
 12 54  1  0  0  0  0
 13 14  1  0  0  0  0
 13 55  1  0  0  0  0
 13 56  1  0  0  0  0
 14 15  1  0  0  0  0
 14 57  1  0  0  0  0
 14 58  1  0  0  0  0
 15 16  1  0  0  0  0
 16 21  1  0  0  0  0
 16 17  2  0  0  0  0
 17 18  1  0  0  0  0
 17 59  1  0  0  0  0
 18 19  2  0  0  0  0
 18 60  1  0  0  0  0
 19 20  1  0  0  0  0
 19 61  1  0  0  0  0
 20 21  2  0  0  0  0
 20 22  1  0  0  0  0
 21 62  1  0  0  0  0
 22 23  1  0  0  0  0
 22 63  1  0  0  0  0
 22 64  1  0  0  0  0
 23 38  1  1  0  0  0
 23 24  1  0  0  0  0
 23 27  1  0  0  0  0
 24 25  1  0  0  0  0
 24 65  1  0  0  0  0
 25 26  2  0  0  0  0
 27 39  1  1  0  0  0
 27 28  1  0  0  0  0
 27 37  1  0  0  0  0
 28 40  1  1  0  0  0
 28 33  1  0  0  0  0
 28 29  1  0  0  0  0
 29 30  1  0  0  0  0
 29 66  1  0  0  0  0
 29 67  1  0  0  0  0
 30 31  1  0  0  0  0
 31 41  1  1  0  0  0
 31 32  1  0  0  0  0
 31 34  1  0  0  0  0
 32 33  1  0  0  0  0
 32 68  1  0  0  0  0
 32 69  1  0  0  0  0
 33 70  1  0  0  0  0
 34 35  1  0  0  0  0
 34 71  1  0  0  0  0
 34 72  1  0  0  0  0
 35 36  1  0  0  0  0
 36 73  1  0  0  0  0
 36 74  1  0  0  0  0
 36 75  1  0  0  0  0
 37 76  1  0  0  0  0
M  END
