BACE_10.smi:1
 OpenBabel09281823033D
Structure written by MMmdl.
 85 87  0  0  1  0  0  0  0  0999 V2000
   20.2804   38.7776   -7.0691 C   0  0  0  0  0  0  0  0  0  0  0  0
   19.8898   39.4545   -8.3956 C   0  0  2  0  0  0  0  0  0  0  0  0
   19.5770   38.4000   -9.4850 C   0  0  0  0  0  0  0  0  0  0  0  0
   18.3294   37.5490   -9.2105 C   0  0  0  0  0  0  0  0  0  0  0  0
   17.1992   38.3948   -9.0814 O   0  0  0  0  0  0  0  0  0  0  0  0
   15.9773   37.6766   -9.0921 C   0  0  0  0  0  0  0  0  0  0  0  0
   14.8129   38.5693   -8.6411 C   0  0  0  0  0  0  0  0  0  0  0  0
   14.7151   39.9028   -9.3980 C   0  0  0  0  0  0  0  0  0  0  0  0
   15.4091   41.0515   -8.6518 C   0  0  0  0  0  0  0  0  0  0  0  0
   15.3004   42.3091   -9.3758 N   0  0  0  0  0  0  0  0  0  0  0  0
   16.2575   42.7222  -10.3129 C   0  0  0  0  0  0  0  0  0  0  0  0
   16.1046   44.0041  -10.8852 C   0  0  0  0  0  0  0  0  0  0  0  0
   17.0306   44.4880  -11.8295 C   0  0  0  0  0  0  0  0  0  0  0  0
   18.1307   43.6906  -12.1970 C   0  0  0  0  0  0  0  0  0  0  0  0
   18.3076   42.4146  -11.6229 C   0  0  0  0  0  0  0  0  0  0  0  0
   17.3588   41.9239  -10.7003 C   0  0  0  0  0  0  0  0  0  0  0  0
   19.4766   41.5766  -12.0427 C   0  0  0  0  0  0  0  0  0  0  0  0
   19.6601   41.3497  -13.2366 O   0  0  0  0  0  0  0  0  0  0  0  0
   20.3176   41.1045  -11.1047 N   0  0  0  0  0  0  0  0  0  0  0  0
   20.5404   41.6120   -9.7490 C   0  0  1  0  0  0  0  0  0  0  0  0
   20.9963   40.4537   -8.8229 C   0  0  0  0  0  0  0  0  0  0  0  0
   21.5803   42.7769   -9.7730 C   0  0  1  0  0  0  0  0  0  0  0  0
   22.7032   42.6706  -10.8294 C   0  0  0  0  0  0  0  0  0  0  0  0
   23.6678   41.6153  -10.5182 N   0  0  0  0  0  0  0  0  0  0  0  0
   24.7674   42.0107   -9.6365 C   0  0  0  0  0  0  0  0  0  0  0  0
   25.8947   42.7211  -10.3700 C   0  0  0  0  0  0  0  0  0  0  0  0
   25.8281   44.1106  -10.6149 C   0  0  0  0  0  0  0  0  0  0  0  0
   26.8723   44.7643  -11.2992 C   0  0  0  0  0  0  0  0  0  0  0  0
   28.0017   44.0369  -11.7173 C   0  0  0  0  0  0  0  0  0  0  0  0
   28.0968   42.6476  -11.4564 C   0  0  0  0  0  0  0  0  0  0  0  0
   27.0302   41.9950  -10.7950 C   0  0  0  0  0  0  0  0  0  0  0  0
   29.3513   41.8726  -11.8431 C   0  0  0  0  0  0  0  0  0  0  0  0
   30.5406   42.3046  -10.9791 C   0  0  0  0  0  0  0  0  0  0  0  0
   29.6834   41.9795  -13.3404 C   0  0  0  0  0  0  0  0  0  0  0  0
   20.8840   43.9867  -10.0003 O   0  0  0  0  0  0  0  0  0  0  0  0
   16.8781   45.8842  -12.4038 C   0  0  0  0  0  0  0  0  0  0  0  0
   15.5521   46.1507  -12.8352 O   0  0  0  0  0  0  0  0  0  0  0  0
   15.4140   47.4735  -13.3300 C   0  0  0  0  0  0  0  0  0  0  0  0
   18.9840   40.0298   -8.2013 H   0  0  0  0  0  0  0  0  0  0  0  0
   19.6145   41.9931   -9.3174 H   0  0  0  0  0  0  0  0  0  0  0  0
   22.0264   42.8878   -8.7859 H   0  0  0  0  0  0  0  0  0  0  0  0
   21.1642   38.1507   -7.1835 H   0  0  0  0  0  0  0  0  0  0  0  0
   19.4745   38.1545   -6.6818 H   0  0  0  0  0  0  0  0  0  0  0  0
   20.4988   39.5152   -6.2948 H   0  0  0  0  0  0  0  0  0  0  0  0
   19.4098   38.8738  -10.4472 H   0  0  0  0  0  0  0  0  0  0  0  0
   20.4414   37.7507   -9.6207 H   0  0  0  0  0  0  0  0  0  0  0  0
   18.1852   36.8544  -10.0396 H   0  0  0  0  0  0  0  0  0  0  0  0
   18.4488   36.9499   -8.3081 H   0  0  0  0  0  0  0  0  0  0  0  0
   15.7931   37.3053  -10.0984 H   0  0  0  0  0  0  0  0  0  0  0  0
   16.0461   36.8055   -8.4411 H   0  0  0  0  0  0  0  0  0  0  0  0
   13.8802   38.0278   -8.7938 H   0  0  0  0  0  0  0  0  0  0  0  0
   14.8764   38.7456   -7.5652 H   0  0  0  0  0  0  0  0  0  0  0  0
   15.1097   39.7927  -10.4085 H   0  0  0  0  0  0  0  0  0  0  0  0
   13.6602   40.1556   -9.5147 H   0  0  0  0  0  0  0  0  0  0  0  0
   14.9316   41.1861   -7.6810 H   0  0  0  0  0  0  0  0  0  0  0  0
   16.4485   40.8128   -8.4295 H   0  0  0  0  0  0  0  0  0  0  0  0
   14.5795   42.9491   -9.0770 H   0  0  0  0  0  0  0  0  0  0  0  0
   15.2707   44.6283  -10.5944 H   0  0  0  0  0  0  0  0  0  0  0  0
   18.8594   44.0630  -12.8993 H   0  0  0  0  0  0  0  0  0  0  0  0
   17.4959   40.9323  -10.2913 H   0  0  0  0  0  0  0  0  0  0  0  0
   21.0482   40.4960  -11.4434 H   0  0  0  0  0  0  0  0  0  0  0  0
   21.3923   40.9084   -7.9176 H   0  0  0  0  0  0  0  0  0  0  0  0
   21.8423   39.9214   -9.2610 H   0  0  0  0  0  0  0  0  0  0  0  0
   22.2763   42.4911  -11.8169 H   0  0  0  0  0  0  0  0  0  0  0  0
   23.2069   43.6272  -10.9252 H   0  0  0  0  0  0  0  0  0  0  0  0
   24.0604   41.2827  -11.4021 H   0  0  0  0  0  0  0  0  0  0  0  0
   24.4086   42.6232   -8.8094 H   0  0  0  0  0  0  0  0  0  0  0  0
   25.1895   41.1117   -9.1896 H   0  0  0  0  0  0  0  0  0  0  0  0
   24.9797   44.6839  -10.2789 H   0  0  0  0  0  0  0  0  0  0  0  0
   26.8074   45.8266  -11.4933 H   0  0  0  0  0  0  0  0  0  0  0  0
   28.8073   44.5545  -12.2180 H   0  0  0  0  0  0  0  0  0  0  0  0
   27.0911   40.9317  -10.5935 H   0  0  0  0  0  0  0  0  0  0  0  0
   29.1636   40.8196  -11.6381 H   0  0  0  0  0  0  0  0  0  0  0  0
   30.3370   42.1487   -9.9182 H   0  0  0  0  0  0  0  0  0  0  0  0
   30.7681   43.3636  -11.1187 H   0  0  0  0  0  0  0  0  0  0  0  0
   31.4383   41.7430  -11.2381 H   0  0  0  0  0  0  0  0  0  0  0  0
   28.8601   41.6306  -13.9640 H   0  0  0  0  0  0  0  0  0  0  0  0
   30.5521   41.3661  -13.5898 H   0  0  0  0  0  0  0  0  0  0  0  0
   29.9126   43.0044  -13.6345 H   0  0  0  0  0  0  0  0  0  0  0  0
   20.2125   44.0752   -9.3400 H   0  0  0  0  0  0  0  0  0  0  0  0
   17.1739   46.5980  -11.6331 H   0  0  0  0  0  0  0  0  0  0  0  0
   17.5685   46.0074  -13.2391 H   0  0  0  0  0  0  0  0  0  0  0  0
   14.3920   47.6334  -13.6723 H   0  0  0  0  0  0  0  0  0  0  0  0
   16.0835   47.6528  -14.1703 H   0  0  0  0  0  0  0  0  0  0  0  0
   15.6290   48.2076  -12.5513 H   0  0  0  0  0  0  0  0  0  0  0  0
  1  2  1  0  0  0  0
  1 42  1  0  0  0  0
  1 43  1  0  0  0  0
  1 44  1  0  0  0  0
  2 39  1  1  0  0  0
  2 21  1  0  0  0  0
  2  3  1  0  0  0  0
  3  4  1  0  0  0  0
  3 45  1  0  0  0  0
  3 46  1  0  0  0  0
  4  5  1  0  0  0  0
  4 47  1  0  0  0  0
  4 48  1  0  0  0  0
  5  6  1  0  0  0  0
  6  7  1  0  0  0  0
  6 49  1  0  0  0  0
  6 50  1  0  0  0  0
  7  8  1  0  0  0  0
  7 51  1  0  0  0  0
  7 52  1  0  0  0  0
  8  9  1  0  0  0  0
  8 53  1  0  0  0  0
  8 54  1  0  0  0  0
  9 10  1  0  0  0  0
  9 55  1  0  0  0  0
  9 56  1  0  0  0  0
 10 11  1  0  0  0  0
 10 57  1  0  0  0  0
 11 16  1  0  0  0  0
 11 12  2  0  0  0  0
 12 13  1  0  0  0  0
 12 58  1  0  0  0  0
 13 14  2  0  0  0  0
 13 36  1  0  0  0  0
 14 15  1  0  0  0  0
 14 59  1  0  0  0  0
 15 16  2  0  0  0  0
 15 17  1  0  0  0  0
 16 60  1  0  0  0  0
 17 18  2  0  0  0  0
 17 19  1  0  0  0  0
 19 20  1  0  0  0  0
 19 61  1  0  0  0  0
 20 40  1  1  0  0  0
 20 21  1  0  0  0  0
 20 22  1  0  0  0  0
 21 62  1  0  0  0  0
 21 63  1  0  0  0  0
 22 41  1  1  0  0  0
 22 23  1  0  0  0  0
 22 35  1  0  0  0  0
 23 24  1  0  0  0  0
 23 64  1  0  0  0  0
 23 65  1  0  0  0  0
 24 25  1  0  0  0  0
 24 66  1  0  0  0  0
 25 26  1  0  0  0  0
 25 67  1  0  0  0  0
 25 68  1  0  0  0  0
 26 31  1  0  0  0  0
 26 27  2  0  0  0  0
 27 28  1  0  0  0  0
 27 69  1  0  0  0  0
 28 29  2  0  0  0  0
 28 70  1  0  0  0  0
 29 30  1  0  0  0  0
 29 71  1  0  0  0  0
 30 31  2  0  0  0  0
 30 32  1  0  0  0  0
 31 72  1  0  0  0  0
 32 33  1  0  0  0  0
 32 34  1  0  0  0  0
 32 73  1  0  0  0  0
 33 74  1  0  0  0  0
 33 75  1  0  0  0  0
 33 76  1  0  0  0  0
 34 77  1  0  0  0  0
 34 78  1  0  0  0  0
 34 79  1  0  0  0  0
 35 80  1  0  0  0  0
 36 37  1  0  0  0  0
 36 81  1  0  0  0  0
 36 82  1  0  0  0  0
 37 38  1  0  0  0  0
 38 83  1  0  0  0  0
 38 84  1  0  0  0  0
 38 85  1  0  0  0  0
M  END
