BACE_14.smi:1
 OpenBabel09281823033D
Structure written by MMmdl.
 86 90  0  0  1  0  0  0  0  0999 V2000
   21.8562   38.9858   -7.7953 C   0  0  0  0  0  0  0  0  0  0  0  0
   20.9263   40.1984   -7.9783 C   0  0  0  0  0  0  0  0  0  0  0  0
   21.5923   41.3113   -8.8070 C   0  0  0  0  0  0  0  0  0  0  0  0
   19.5654   39.7975   -8.5449 C   0  0  0  0  0  0  0  0  0  0  0  0
   19.4600   39.1644   -9.8038 C   0  0  0  0  0  0  0  0  0  0  0  0
   18.1987   38.8008  -10.3118 C   0  0  0  0  0  0  0  0  0  0  0  0
   17.0340   39.0668   -9.5674 C   0  0  0  0  0  0  0  0  0  0  0  0
   17.1172   39.6988   -8.3074 C   0  0  0  0  0  0  0  0  0  0  0  0
   18.3885   40.0593   -7.8069 C   0  0  0  0  0  0  0  0  0  0  0  0
   15.8631   39.9935   -7.4970 C   0  0  0  0  0  0  0  0  0  0  0  0
   15.7592   39.3798   -6.1212 C   0  0  0  0  0  0  0  0  0  0  0  0
   14.9060   38.8519   -7.2497 C   0  0  0  0  0  0  0  0  0  0  0  0
   15.2891   41.3340   -7.6900 N   0  3  0  0  0  0  0  0  0  0  0  0
   16.2619   42.4451   -7.8017 C   0  0  0  0  0  0  0  0  0  0  0  0
   17.1375   42.2978   -9.0678 C   0  0  2  0  0  0  0  0  0  0  0  0
   18.3023   43.3192   -9.2213 C   0  0  2  0  0  0  0  0  0  0  0  0
   19.1414   43.0418  -10.4994 C   0  0  0  0  0  0  0  0  0  0  0  0
   20.2694   44.0384  -10.7333 C   0  0  0  0  0  0  0  0  0  0  0  0
   19.9871   45.3083  -11.2755 C   0  0  0  0  0  0  0  0  0  0  0  0
   21.0286   46.2310  -11.4843 C   0  0  0  0  0  0  0  0  0  0  0  0
   22.3547   45.8930  -11.1519 C   0  0  0  0  0  0  0  0  0  0  0  0
   22.6538   44.6217  -10.6033 C   0  0  0  0  0  0  0  0  0  0  0  0
   21.6019   43.7021  -10.4088 C   0  0  0  0  0  0  0  0  0  0  0  0
   23.9182   44.2034  -10.2443 O   0  0  0  0  0  0  0  0  0  0  0  0
   24.9823   45.1519  -10.1497 C   0  0  0  0  0  0  0  0  0  0  0  0
   24.8290   46.0713   -8.9224 C   0  0  0  0  0  0  0  0  0  0  0  0
   24.7187   45.2929   -7.6027 C   0  0  0  0  0  0  0  0  0  0  0  0
   24.3753   46.2032   -6.4080 C   0  0  0  0  0  0  0  0  0  0  0  0
   23.9268   45.4488   -5.2407 N   0  0  0  0  0  0  0  0  0  0  0  0
   22.7187   44.7335   -5.2734 C   0  0  0  0  0  0  0  0  0  0  0  0
   21.7232   44.9722   -6.2489 C   0  0  0  0  0  0  0  0  0  0  0  0
   20.5599   44.1781   -6.3060 C   0  0  0  0  0  0  0  0  0  0  0  0
   20.3604   43.1654   -5.3420 C   0  0  0  0  0  0  0  0  0  0  0  0
   21.3293   42.9462   -4.3435 C   0  0  0  0  0  0  0  0  0  0  0  0
   22.5042   43.7232   -4.3135 C   0  0  0  0  0  0  0  0  0  0  0  0
   21.1236   41.8993   -3.3425 C   0  0  0  0  0  0  0  0  0  0  0  0
   21.0143   40.7051   -3.6205 O   0  0  0  0  0  0  0  0  0  0  0  0
   21.0348   42.3113   -1.8726 C   0  0  0  0  0  0  0  0  0  0  0  0
   19.5579   44.4275   -7.3907 C   0  0  0  0  0  0  0  0  0  0  0  0
   19.2435   45.5645   -7.7019 O   0  0  0  0  0  0  0  0  0  0  0  0
   19.1751   43.3223   -8.0398 N   0  0  0  0  0  0  0  0  0  0  0  0
   16.3195   42.3695  -10.2206 O   0  0  0  0  0  0  0  0  0  0  0  0
   17.5635   41.2936   -9.0776 H   0  0  0  0  0  0  0  0  0  0  0  0
   17.8555   44.3052   -9.3630 H   0  0  0  0  0  0  0  0  0  0  0  0
   22.7956   39.2802   -7.3263 H   0  0  0  0  0  0  0  0  0  0  0  0
   22.1009   38.5102   -8.7454 H   0  0  0  0  0  0  0  0  0  0  0  0
   21.3966   38.2323   -7.1547 H   0  0  0  0  0  0  0  0  0  0  0  0
   20.7584   40.6123   -6.9832 H   0  0  0  0  0  0  0  0  0  0  0  0
   22.5286   41.6328   -8.3498 H   0  0  0  0  0  0  0  0  0  0  0  0
   20.9476   42.1883   -8.8758 H   0  0  0  0  0  0  0  0  0  0  0  0
   21.8200   40.9854   -9.8223 H   0  0  0  0  0  0  0  0  0  0  0  0
   20.3427   38.9523  -10.3890 H   0  0  0  0  0  0  0  0  0  0  0  0
   18.1244   38.3166  -11.2744 H   0  0  0  0  0  0  0  0  0  0  0  0
   16.0732   38.7805   -9.9699 H   0  0  0  0  0  0  0  0  0  0  0  0
   18.4557   40.5424   -6.8426 H   0  0  0  0  0  0  0  0  0  0  0  0
   16.5880   38.7584   -5.7817 H   0  0  0  0  0  0  0  0  0  0  0  0
   15.2645   39.9628   -5.3444 H   0  0  0  0  0  0  0  0  0  0  0  0
   13.8408   39.0821   -7.2274 H   0  0  0  0  0  0  0  0  0  0  0  0
   15.1643   37.8777   -7.6648 H   0  0  0  0  0  0  0  0  0  0  0  0
   14.6894   41.5280   -6.9008 H   0  0  0  0  0  0  0  0  0  0  0  0
   16.8958   42.4346   -6.9152 H   0  0  0  0  0  0  0  0  0  0  0  0
   15.7291   43.3972   -7.8069 H   0  0  0  0  0  0  0  0  0  0  0  0
   19.5585   42.0359  -10.4526 H   0  0  0  0  0  0  0  0  0  0  0  0
   18.4857   43.0482  -11.3701 H   0  0  0  0  0  0  0  0  0  0  0  0
   18.9736   45.5806  -11.5303 H   0  0  0  0  0  0  0  0  0  0  0  0
   20.8101   47.2035  -11.9001 H   0  0  0  0  0  0  0  0  0  0  0  0
   23.1236   46.6304  -11.3295 H   0  0  0  0  0  0  0  0  0  0  0  0
   21.8237   42.7310   -9.9915 H   0  0  0  0  0  0  0  0  0  0  0  0
   25.9094   44.5870  -10.0525 H   0  0  0  0  0  0  0  0  0  0  0  0
   25.0906   45.7254  -11.0703 H   0  0  0  0  0  0  0  0  0  0  0  0
   25.6759   46.7553   -8.8677 H   0  0  0  0  0  0  0  0  0  0  0  0
   23.9469   46.6989   -9.0497 H   0  0  0  0  0  0  0  0  0  0  0  0
   23.9751   44.5014   -7.6966 H   0  0  0  0  0  0  0  0  0  0  0  0
   25.6689   44.7876   -7.4295 H   0  0  0  0  0  0  0  0  0  0  0  0
   25.2551   46.7849   -6.1327 H   0  0  0  0  0  0  0  0  0  0  0  0
   23.6159   46.9358   -6.6815 H   0  0  0  0  0  0  0  0  0  0  0  0
   24.6225   45.1886   -4.5564 H   0  0  0  0  0  0  0  0  0  0  0  0
   21.8480   45.7395   -6.9986 H   0  0  0  0  0  0  0  0  0  0  0  0
   19.4666   42.5595   -5.3589 H   0  0  0  0  0  0  0  0  0  0  0  0
   23.2432   43.5245   -3.5514 H   0  0  0  0  0  0  0  0  0  0  0  0
   20.2202   43.0193   -1.7183 H   0  0  0  0  0  0  0  0  0  0  0  0
   21.9684   42.7677   -1.5428 H   0  0  0  0  0  0  0  0  0  0  0  0
   20.8462   41.4399   -1.2448 H   0  0  0  0  0  0  0  0  0  0  0  0
   19.5532   42.4438   -7.7154 H   0  0  0  0  0  0  0  0  0  0  0  0
   15.4205   42.4639   -9.9449 H   0  0  0  0  0  0  0  0  0  0  0  0
   14.7211   41.3213   -8.5250 H   0  0  0  0  0  0  0  0  0  0  0  0
  1  2  1  0  0  0  0
  1 45  1  0  0  0  0
  1 46  1  0  0  0  0
  1 47  1  0  0  0  0
  2  3  1  0  0  0  0
  2  4  1  0  0  0  0
  2 48  1  0  0  0  0
  3 49  1  0  0  0  0
  3 50  1  0  0  0  0
  3 51  1  0  0  0  0
  4  9  1  0  0  0  0
  4  5  2  0  0  0  0
  5  6  1  0  0  0  0
  5 52  1  0  0  0  0
  6  7  2  0  0  0  0
  6 53  1  0  0  0  0
  7  8  1  0  0  0  0
  7 54  1  0  0  0  0
  8  9  2  0  0  0  0
  8 10  1  0  0  0  0
  9 55  1  0  0  0  0
 10 12  1  0  0  0  0
 10 11  1  0  0  0  0
 10 13  1  0  0  0  0
 11 12  1  0  0  0  0
 11 56  1  0  0  0  0
 11 57  1  0  0  0  0
 12 58  1  0  0  0  0
 12 59  1  0  0  0  0
 13 14  1  0  0  0  0
 13 60  1  0  0  0  0
 13 86  1  0  0  0  0
 14 15  1  0  0  0  0
 14 61  1  0  0  0  0
 14 62  1  0  0  0  0
 15 43  1  1  0  0  0
 15 16  1  0  0  0  0
 15 42  1  0  0  0  0
 16 44  1  6  0  0  0
 16 41  1  0  0  0  0
 16 17  1  0  0  0  0
 17 18  1  0  0  0  0
 17 63  1  0  0  0  0
 17 64  1  0  0  0  0
 18 23  1  0  0  0  0
 18 19  2  0  0  0  0
 19 20  1  0  0  0  0
 19 65  1  0  0  0  0
 20 21  2  0  0  0  0
 20 66  1  0  0  0  0
 21 22  1  0  0  0  0
 21 67  1  0  0  0  0
 22 23  2  0  0  0  0
 22 24  1  0  0  0  0
 23 68  1  0  0  0  0
 24 25  1  0  0  0  0
 25 26  1  0  0  0  0
 25 69  1  0  0  0  0
 25 70  1  0  0  0  0
 26 27  1  0  0  0  0
 26 71  1  0  0  0  0
 26 72  1  0  0  0  0
 27 28  1  0  0  0  0
 27 73  1  0  0  0  0
 27 74  1  0  0  0  0
 28 29  1  0  0  0  0
 28 75  1  0  0  0  0
 28 76  1  0  0  0  0
 29 30  1  0  0  0  0
 29 77  1  0  0  0  0
 30 35  1  0  0  0  0
 30 31  2  0  0  0  0
 31 32  1  0  0  0  0
 31 78  1  0  0  0  0
 32 33  2  0  0  0  0
 32 39  1  0  0  0  0
 33 34  1  0  0  0  0
 33 79  1  0  0  0  0
 34 35  2  0  0  0  0
 34 36  1  0  0  0  0
 35 80  1  0  0  0  0
 36 37  2  0  0  0  0
 36 38  1  0  0  0  0
 38 81  1  0  0  0  0
 38 82  1  0  0  0  0
 38 83  1  0  0  0  0
 39 40  2  0  0  0  0
 39 41  1  0  0  0  0
 41 84  1  0  0  0  0
 42 85  1  0  0  0  0
M  CHG  1  13   1
M  END
