BACE_9.smi:1
 OpenBabel09281823033D
Structure written by MMmdl.
 87 89  0  0  1  0  0  0  0  0999 V2000
   20.7493   46.0781   -7.2247 C   0  0  0  0  0  0  0  0  0  0  0  0
   20.5133   44.7823   -8.0161 C   0  0  2  0  0  0  0  0  0  0  0  0
   21.8467   44.1798   -8.4949 C   0  0  0  0  0  0  0  0  0  0  0  0
   21.6924   42.7488   -9.0304 C   0  0  0  0  0  0  0  0  0  0  0  0
   23.0362   42.0406   -9.2668 C   0  0  0  0  0  0  0  0  0  0  0  0
   22.8596   40.5958   -9.7552 C   0  0  0  0  0  0  0  0  0  0  0  0
   22.4269   39.6220   -8.6371 C   0  0  0  0  0  0  0  0  0  0  0  0
   21.8597   38.2824   -9.1427 C   0  0  0  0  0  0  0  0  0  0  0  0
   20.3386   38.3000   -9.3785 C   0  0  0  0  0  0  0  0  0  0  0  0
   19.9669   39.1445  -10.5009 N   0  0  0  0  0  0  0  0  0  0  0  0
   18.6891   39.7120  -10.4728 C   0  0  0  0  0  0  0  0  0  0  0  0
   17.5496   38.9636  -10.1030 C   0  0  0  0  0  0  0  0  0  0  0  0
   16.2743   39.5612  -10.1123 C   0  0  0  0  0  0  0  0  0  0  0  0
   16.1411   40.9209  -10.4667 C   0  0  0  0  0  0  0  0  0  0  0  0
   17.2775   41.6812  -10.8166 C   0  0  0  0  0  0  0  0  0  0  0  0
   18.5450   41.0638  -10.8383 C   0  0  0  0  0  0  0  0  0  0  0  0
   17.1190   43.1081  -11.2479 C   0  0  0  0  0  0  0  0  0  0  0  0
   16.5190   43.3607  -12.2908 O   0  0  0  0  0  0  0  0  0  0  0  0
   17.6509   44.0908  -10.4983 N   0  0  0  0  0  0  0  0  0  0  0  0
   18.2870   44.0240   -9.1766 C   0  0  1  0  0  0  0  0  0  0  0  0
   19.4940   45.0004   -9.1620 C   0  0  0  0  0  0  0  0  0  0  0  0
   17.1975   44.2621   -8.0827 C   0  0  1  0  0  0  0  0  0  0  0  0
   16.7104   45.7196   -7.9350 C   0  0  0  0  0  0  0  0  0  0  0  0
   17.7795   46.5866   -7.4332 N   0  0  0  0  0  0  0  0  0  0  0  0
   17.4571   48.0155   -7.4392 C   0  0  0  0  0  0  0  0  0  0  0  0
   18.6503   48.9524   -7.5220 C   0  0  0  0  0  0  0  0  0  0  0  0
   18.6073   50.1298   -8.2989 C   0  0  0  0  0  0  0  0  0  0  0  0
   19.7244   50.9820   -8.3407 C   0  0  0  0  0  0  0  0  0  0  0  0
   20.8790   50.6784   -7.5945 C   0  0  0  0  0  0  0  0  0  0  0  0
   20.9324   49.5069   -6.8089 C   0  0  0  0  0  0  0  0  0  0  0  0
   19.8084   48.6540   -6.7739 C   0  0  0  0  0  0  0  0  0  0  0  0
   22.1915   49.1740   -6.0147 C   0  0  0  0  0  0  0  0  0  0  0  0
   22.1999   49.8682   -4.6414 C   0  0  0  0  0  0  0  0  0  0  0  0
   23.4667   49.4863   -6.8141 C   0  0  0  0  0  0  0  0  0  0  0  0
   16.0522   43.4728   -8.3399 O   0  0  0  0  0  0  0  0  0  0  0  0
   15.0583   38.7403   -9.7279 C   0  0  0  0  0  0  0  0  0  0  0  0
   15.1645   38.2230   -8.4079 O   0  0  0  0  0  0  0  0  0  0  0  0
   15.0394   39.2345   -7.4226 C   0  0  0  0  0  0  0  0  0  0  0  0
   20.1188   44.0545   -7.3189 H   0  0  0  0  0  0  0  0  0  0  0  0
   18.6935   43.0225   -9.0423 H   0  0  0  0  0  0  0  0  0  0  0  0
   17.5998   43.9539   -7.1168 H   0  0  0  0  0  0  0  0  0  0  0  0
   21.1933   46.8531   -7.8462 H   0  0  0  0  0  0  0  0  0  0  0  0
   21.4199   45.9083   -6.3809 H   0  0  0  0  0  0  0  0  0  0  0  0
   19.8185   46.4715   -6.8171 H   0  0  0  0  0  0  0  0  0  0  0  0
   22.3136   44.8135   -9.2504 H   0  0  0  0  0  0  0  0  0  0  0  0
   22.5403   44.1536   -7.6529 H   0  0  0  0  0  0  0  0  0  0  0  0
   21.0969   42.1722   -8.3229 H   0  0  0  0  0  0  0  0  0  0  0  0
   21.1251   42.7642   -9.9602 H   0  0  0  0  0  0  0  0  0  0  0  0
   23.6049   42.5989  -10.0124 H   0  0  0  0  0  0  0  0  0  0  0  0
   23.6387   42.0484   -8.3564 H   0  0  0  0  0  0  0  0  0  0  0  0
   22.1542   40.5905  -10.5848 H   0  0  0  0  0  0  0  0  0  0  0  0
   23.8026   40.2367  -10.1764 H   0  0  0  0  0  0  0  0  0  0  0  0
   23.2996   39.4249   -8.0149 H   0  0  0  0  0  0  0  0  0  0  0  0
   21.6993   40.0818   -7.9695 H   0  0  0  0  0  0  0  0  0  0  0  0
   22.3889   37.9478  -10.0362 H   0  0  0  0  0  0  0  0  0  0  0  0
   22.0585   37.5276   -8.3806 H   0  0  0  0  0  0  0  0  0  0  0  0
   19.9864   37.2859   -9.5725 H   0  0  0  0  0  0  0  0  0  0  0  0
   19.8319   38.6478   -8.4782 H   0  0  0  0  0  0  0  0  0  0  0  0
   20.7050   39.7428  -10.8363 H   0  0  0  0  0  0  0  0  0  0  0  0
   17.6446   37.9233   -9.8282 H   0  0  0  0  0  0  0  0  0  0  0  0
   15.1631   41.3802  -10.4756 H   0  0  0  0  0  0  0  0  0  0  0  0
   19.4105   41.6368  -11.1371 H   0  0  0  0  0  0  0  0  0  0  0  0
   17.4980   45.0252  -10.8431 H   0  0  0  0  0  0  0  0  0  0  0  0
   19.1267   46.0253   -9.1555 H   0  0  0  0  0  0  0  0  0  0  0  0
   20.0230   44.9145  -10.1112 H   0  0  0  0  0  0  0  0  0  0  0  0
   16.3005   46.0887   -8.8692 H   0  0  0  0  0  0  0  0  0  0  0  0
   15.8696   45.7474   -7.2420 H   0  0  0  0  0  0  0  0  0  0  0  0
   17.9902   46.2898   -6.4845 H   0  0  0  0  0  0  0  0  0  0  0  0
   16.8199   48.2341   -8.2955 H   0  0  0  0  0  0  0  0  0  0  0  0
   16.8621   48.2671   -6.5590 H   0  0  0  0  0  0  0  0  0  0  0  0
   17.7258   50.3903   -8.8672 H   0  0  0  0  0  0  0  0  0  0  0  0
   19.6870   51.8747   -8.9430 H   0  0  0  0  0  0  0  0  0  0  0  0
   21.7244   51.3549   -7.6272 H   0  0  0  0  0  0  0  0  0  0  0  0
   19.8374   47.7588   -6.1682 H   0  0  0  0  0  0  0  0  0  0  0  0
   22.1885   48.0977   -5.8314 H   0  0  0  0  0  0  0  0  0  0  0  0
   21.3005   49.6316   -4.0711 H   0  0  0  0  0  0  0  0  0  0  0  0
   22.2512   50.9525   -4.7376 H   0  0  0  0  0  0  0  0  0  0  0  0
   23.0575   49.5488   -4.0504 H   0  0  0  0  0  0  0  0  0  0  0  0
   23.4802   48.9349   -7.7523 H   0  0  0  0  0  0  0  0  0  0  0  0
   24.3595   49.2002   -6.2590 H   0  0  0  0  0  0  0  0  0  0  0  0
   23.5444   50.5491   -7.0482 H   0  0  0  0  0  0  0  0  0  0  0  0
   15.7854   43.0521   -7.5353 H   0  0  0  0  0  0  0  0  0  0  0  0
   14.1755   39.3811   -9.8042 H   0  0  0  0  0  0  0  0  0  0  0  0
   14.9269   37.9206  -10.4344 H   0  0  0  0  0  0  0  0  0  0  0  0
   15.1217   38.7931   -6.4293 H   0  0  0  0  0  0  0  0  0  0  0  0
   14.0748   39.7379   -7.4935 H   0  0  0  0  0  0  0  0  0  0  0  0
   15.8322   39.9787   -7.5280 H   0  0  0  0  0  0  0  0  0  0  0  0
  1  2  1  0  0  0  0
  1 42  1  0  0  0  0
  1 43  1  0  0  0  0
  1 44  1  0  0  0  0
  2 39  1  1  0  0  0
  2 21  1  0  0  0  0
  2  3  1  0  0  0  0
  3  4  1  0  0  0  0
  3 45  1  0  0  0  0
  3 46  1  0  0  0  0
  4  5  1  0  0  0  0
  4 47  1  0  0  0  0
  4 48  1  0  0  0  0
  5  6  1  0  0  0  0
  5 49  1  0  0  0  0
  5 50  1  0  0  0  0
  6  7  1  0  0  0  0
  6 51  1  0  0  0  0
  6 52  1  0  0  0  0
  7  8  1  0  0  0  0
  7 53  1  0  0  0  0
  7 54  1  0  0  0  0
  8  9  1  0  0  0  0
  8 55  1  0  0  0  0
  8 56  1  0  0  0  0
  9 10  1  0  0  0  0
  9 57  1  0  0  0  0
  9 58  1  0  0  0  0
 10 11  1  0  0  0  0
 10 59  1  0  0  0  0
 11 16  1  0  0  0  0
 11 12  2  0  0  0  0
 12 13  1  0  0  0  0
 12 60  1  0  0  0  0
 13 14  2  0  0  0  0
 13 36  1  0  0  0  0
 14 15  1  0  0  0  0
 14 61  1  0  0  0  0
 15 16  2  0  0  0  0
 15 17  1  0  0  0  0
 16 62  1  0  0  0  0
 17 18  2  0  0  0  0
 17 19  1  0  0  0  0
 19 20  1  0  0  0  0
 19 63  1  0  0  0  0
 20 40  1  1  0  0  0
 20 21  1  0  0  0  0
 20 22  1  0  0  0  0
 21 64  1  0  0  0  0
 21 65  1  0  0  0  0
 22 41  1  1  0  0  0
 22 23  1  0  0  0  0
 22 35  1  0  0  0  0
 23 24  1  0  0  0  0
 23 66  1  0  0  0  0
 23 67  1  0  0  0  0
 24 25  1  0  0  0  0
 24 68  1  0  0  0  0
 25 26  1  0  0  0  0
 25 69  1  0  0  0  0
 25 70  1  0  0  0  0
 26 31  1  0  0  0  0
 26 27  2  0  0  0  0
 27 28  1  0  0  0  0
 27 71  1  0  0  0  0
 28 29  2  0  0  0  0
 28 72  1  0  0  0  0
 29 30  1  0  0  0  0
 29 73  1  0  0  0  0
 30 31  2  0  0  0  0
 30 32  1  0  0  0  0
 31 74  1  0  0  0  0
 32 33  1  0  0  0  0
 32 34  1  0  0  0  0
 32 75  1  0  0  0  0
 33 76  1  0  0  0  0
 33 77  1  0  0  0  0
 33 78  1  0  0  0  0
 34 79  1  0  0  0  0
 34 80  1  0  0  0  0
 34 81  1  0  0  0  0
 35 82  1  0  0  0  0
 36 37  1  0  0  0  0
 36 83  1  0  0  0  0
 36 84  1  0  0  0  0
 37 38  1  0  0  0  0
 38 85  1  0  0  0  0
 38 86  1  0  0  0  0
 38 87  1  0  0  0  0
M  END
