BACE_11.smi:1
 OpenBabel09281823033D
Structure written by MMmdl.
 80 82  0  0  1  0  0  0  0  0999 V2000
   28.8367   44.2399  -13.3942 C   0  0  0  0  0  0  0  0  0  0  0  0
   28.1988   44.1553  -11.9934 C   0  0  1  0  0  0  0  0  0  0  0  0
   26.6554   44.1292  -11.9534 C   0  0  0  0  0  0  0  0  0  0  0  0
   26.0096   44.8311  -12.7346 O   0  0  0  0  0  0  0  0  0  0  0  0
   26.0697   43.3840  -11.0001 N   0  0  0  0  0  0  0  0  0  0  0  0
   24.6769   43.4105  -10.5482 C   0  0  1  0  0  0  0  0  0  0  0  0
   24.3894   44.6383   -9.6519 C   0  0  0  0  0  0  0  0  0  0  0  0
   25.2602   44.6652   -8.4062 C   0  0  0  0  0  0  0  0  0  0  0  0
   24.7639   44.1571   -7.1911 C   0  0  0  0  0  0  0  0  0  0  0  0
   25.5835   44.1514   -6.0508 C   0  0  0  0  0  0  0  0  0  0  0  0
   26.9089   44.6217   -6.1178 C   0  0  0  0  0  0  0  0  0  0  0  0
   27.4191   45.1265   -7.3397 C   0  0  0  0  0  0  0  0  0  0  0  0
   26.5763   45.1630   -8.4661 C   0  0  0  0  0  0  0  0  0  0  0  0
   28.7035   45.5828   -7.5281 O   0  0  0  0  0  0  0  0  0  0  0  0
   29.6250   45.5002   -6.4541 C   0  0  0  0  0  0  0  0  0  0  0  0
   31.0228   45.8677   -6.9744 C   0  0  0  0  0  0  0  0  0  0  0  0
   31.6906   44.7637   -7.8224 C   0  0  0  0  0  0  0  0  0  0  0  0
   31.7594   45.0303   -9.3456 C   0  0  0  0  0  0  0  0  0  0  0  0
   30.4535   44.8782  -10.1614 C   0  0  0  0  0  0  0  0  0  0  0  0
   29.9280   43.4346  -10.3041 C   0  0  0  0  0  0  0  0  0  0  0  0
   30.4647   42.5492   -9.6428 O   0  0  0  0  0  0  0  0  0  0  0  0
   28.9073   43.1541  -11.1567 N   0  0  0  0  0  0  0  0  0  0  0  0
   28.5470   41.7443  -11.3672 C   0  0  0  0  0  0  0  0  0  0  0  0
   23.6422   43.1547  -11.6781 C   0  0  1  0  0  0  0  0  0  0  0  0
   22.3840   42.4257  -11.1622 C   0  0  0  0  0  0  0  0  0  0  0  0
   21.6601   41.7022  -12.2212 N   0  0  0  0  0  0  0  0  0  0  0  0
   21.1970   40.3709  -11.8200 C   0  0  0  0  0  0  0  0  0  0  0  0
   20.1750   40.4027  -10.6993 C   0  0  0  0  0  0  0  0  0  0  0  0
   18.7947   40.3835  -10.9800 C   0  0  0  0  0  0  0  0  0  0  0  0
   17.8651   40.4851   -9.9267 C   0  0  0  0  0  0  0  0  0  0  0  0
   18.3148   40.6318   -8.5965 C   0  0  0  0  0  0  0  0  0  0  0  0
   19.6972   40.6464   -8.3070 C   0  0  0  0  0  0  0  0  0  0  0  0
   20.6186   40.4981   -9.3631 C   0  0  0  0  0  0  0  0  0  0  0  0
   20.1584   40.8488   -6.8647 C   0  0  0  0  0  0  0  0  0  0  0  0
   21.6072   41.3528   -6.7198 C   0  0  0  0  0  0  0  0  0  0  0  0
   19.9444   39.5762   -6.0370 C   0  0  0  0  0  0  0  0  0  0  0  0
   23.2604   44.3932  -12.2377 O   0  0  0  0  0  0  0  0  0  0  0  0
   28.3680   45.1363  -11.5556 H   0  0  0  0  0  0  0  0  0  0  0  0
   24.6329   42.5380   -9.8915 H   0  0  0  0  0  0  0  0  0  0  0  0
   24.1191   42.5510  -12.4471 H   0  0  0  0  0  0  0  0  0  0  0  0
   28.3031   44.9371  -14.0419 H   0  0  0  0  0  0  0  0  0  0  0  0
   28.8566   43.2669  -13.8884 H   0  0  0  0  0  0  0  0  0  0  0  0
   29.8688   44.5851  -13.3320 H   0  0  0  0  0  0  0  0  0  0  0  0
   26.6960   42.8298  -10.4338 H   0  0  0  0  0  0  0  0  0  0  0  0
   24.5495   45.5652  -10.2071 H   0  0  0  0  0  0  0  0  0  0  0  0
   23.3402   44.6452   -9.3517 H   0  0  0  0  0  0  0  0  0  0  0  0
   23.7589   43.7654   -7.1290 H   0  0  0  0  0  0  0  0  0  0  0  0
   25.1977   43.7514   -5.1245 H   0  0  0  0  0  0  0  0  0  0  0  0
   27.5116   44.5835   -5.2231 H   0  0  0  0  0  0  0  0  0  0  0  0
   26.9632   45.5579   -9.3929 H   0  0  0  0  0  0  0  0  0  0  0  0
   29.3256   46.1994   -5.6727 H   0  0  0  0  0  0  0  0  0  0  0  0
   29.6452   44.4999   -6.0197 H   0  0  0  0  0  0  0  0  0  0  0  0
   30.9956   46.8144   -7.5149 H   0  0  0  0  0  0  0  0  0  0  0  0
   31.6546   46.0494   -6.1050 H   0  0  0  0  0  0  0  0  0  0  0  0
   32.7220   44.6764   -7.4758 H   0  0  0  0  0  0  0  0  0  0  0  0
   31.2504   43.7918   -7.6022 H   0  0  0  0  0  0  0  0  0  0  0  0
   32.1591   46.0307   -9.5068 H   0  0  0  0  0  0  0  0  0  0  0  0
   32.5050   44.3573   -9.7726 H   0  0  0  0  0  0  0  0  0  0  0  0
   29.6771   45.5172   -9.7492 H   0  0  0  0  0  0  0  0  0  0  0  0
   30.6539   45.2535  -11.1645 H   0  0  0  0  0  0  0  0  0  0  0  0
   28.0363   41.3494  -10.4896 H   0  0  0  0  0  0  0  0  0  0  0  0
   29.4281   41.1260  -11.5548 H   0  0  0  0  0  0  0  0  0  0  0  0
   27.8868   41.6054  -12.2234 H   0  0  0  0  0  0  0  0  0  0  0  0
   22.7282   41.7057  -10.4232 H   0  0  0  0  0  0  0  0  0  0  0  0
   21.7169   43.1059  -10.6288 H   0  0  0  0  0  0  0  0  0  0  0  0
   22.3191   41.5702  -12.9883 H   0  0  0  0  0  0  0  0  0  0  0  0
   20.7639   39.8580  -12.6788 H   0  0  0  0  0  0  0  0  0  0  0  0
   22.0547   39.7642  -11.5142 H   0  0  0  0  0  0  0  0  0  0  0  0
   18.4541   40.2977  -12.0036 H   0  0  0  0  0  0  0  0  0  0  0  0
   16.8077   40.4651  -10.1385 H   0  0  0  0  0  0  0  0  0  0  0  0
   17.5934   40.7291   -7.7955 H   0  0  0  0  0  0  0  0  0  0  0  0
   21.6789   40.4947   -9.1728 H   0  0  0  0  0  0  0  0  0  0  0  0
   19.5273   41.6336   -6.4460 H   0  0  0  0  0  0  0  0  0  0  0  0
   21.7645   42.2642   -7.2967 H   0  0  0  0  0  0  0  0  0  0  0  0
   22.3317   40.6064   -7.0484 H   0  0  0  0  0  0  0  0  0  0  0  0
   21.8315   41.5800   -5.6786 H   0  0  0  0  0  0  0  0  0  0  0  0
   18.8950   39.2736   -6.0400 H   0  0  0  0  0  0  0  0  0  0  0  0
   20.2269   39.7486   -4.9972 H   0  0  0  0  0  0  0  0  0  0  0  0
   20.5370   38.7420   -6.4168 H   0  0  0  0  0  0  0  0  0  0  0  0
   24.0534   44.8021  -12.5624 H   0  0  0  0  0  0  0  0  0  0  0  0
  1  2  1  0  0  0  0
  1 41  1  0  0  0  0
  1 42  1  0  0  0  0
  1 43  1  0  0  0  0
  2 38  1  1  0  0  0
  2 22  1  0  0  0  0
  2  3  1  0  0  0  0
  3  4  2  0  0  0  0
  3  5  1  0  0  0  0
  5  6  1  0  0  0  0
  5 44  1  0  0  0  0
  6 39  1  1  0  0  0
  6  7  1  0  0  0  0
  6 24  1  0  0  0  0
  7  8  1  0  0  0  0
  7 45  1  0  0  0  0
  7 46  1  0  0  0  0
  8 13  1  0  0  0  0
  8  9  2  0  0  0  0
  9 10  1  0  0  0  0
  9 47  1  0  0  0  0
 10 11  2  0  0  0  0
 10 48  1  0  0  0  0
 11 12  1  0  0  0  0
 11 49  1  0  0  0  0
 12 13  2  0  0  0  0
 12 14  1  0  0  0  0
 13 50  1  0  0  0  0
 14 15  1  0  0  0  0
 15 16  1  0  0  0  0
 15 51  1  0  0  0  0
 15 52  1  0  0  0  0
 16 17  1  0  0  0  0
 16 53  1  0  0  0  0
 16 54  1  0  0  0  0
 17 18  1  0  0  0  0
 17 55  1  0  0  0  0
 17 56  1  0  0  0  0
 18 19  1  0  0  0  0
 18 57  1  0  0  0  0
 18 58  1  0  0  0  0
 19 20  1  0  0  0  0
 19 59  1  0  0  0  0
 19 60  1  0  0  0  0
 20 21  2  0  0  0  0
 20 22  1  0  0  0  0
 22 23  1  0  0  0  0
 23 61  1  0  0  0  0
 23 62  1  0  0  0  0
 23 63  1  0  0  0  0
 24 40  1  6  0  0  0
 24 25  1  0  0  0  0
 24 37  1  0  0  0  0
 25 26  1  0  0  0  0
 25 64  1  0  0  0  0
 25 65  1  0  0  0  0
 26 27  1  0  0  0  0
 26 66  1  0  0  0  0
 27 28  1  0  0  0  0
 27 67  1  0  0  0  0
 27 68  1  0  0  0  0
 28 33  1  0  0  0  0
 28 29  2  0  0  0  0
 29 30  1  0  0  0  0
 29 69  1  0  0  0  0
 30 31  2  0  0  0  0
 30 70  1  0  0  0  0
 31 32  1  0  0  0  0
 31 71  1  0  0  0  0
 32 33  2  0  0  0  0
 32 34  1  0  0  0  0
 33 72  1  0  0  0  0
 34 35  1  0  0  0  0
 34 36  1  0  0  0  0
 34 73  1  0  0  0  0
 35 74  1  0  0  0  0
 35 75  1  0  0  0  0
 35 76  1  0  0  0  0
 36 77  1  0  0  0  0
 36 78  1  0  0  0  0
 36 79  1  0  0  0  0
 37 80  1  0  0  0  0
M  END
