BACE_6.smi:1
 OpenBabel09281823033D
Structure written by MMmdl.
 82 84  0  0  1  0  0  0  0  0999 V2000
   23.8426   49.2477   -7.5305 C   0  0  0  0  0  0  0  0  0  0  0  0
   22.3355   49.5379   -7.5967 C   0  0  0  0  0  0  0  0  0  0  0  0
   21.5523   48.2897   -7.6041 N   0  0  0  0  0  0  0  0  0  0  0  0
   21.1834   47.8214   -8.9577 C   0  0  0  0  0  0  0  0  0  0  0  0
   21.7764   46.4497   -9.3573 C   0  0  0  0  0  0  0  0  0  0  0  0
   21.6258   46.1394  -10.8606 C   0  0  0  0  0  0  0  0  0  0  0  0
   20.1780   45.9598  -11.3707 C   0  0  0  0  0  0  0  0  0  0  0  0
   19.5838   44.5539  -11.1318 C   0  0  0  0  0  0  0  0  0  0  0  0
   18.1228   44.3992  -11.6320 C   0  0  2  0  0  0  0  0  0  0  0  0
   17.4447   43.0979  -11.1290 C   0  0  0  0  0  0  0  0  0  0  0  0
   16.5971   43.2602   -9.8461 C   0  0  2  0  0  0  0  0  0  0  0  0
   17.4865   43.6111   -8.7406 N   0  0  0  0  0  0  0  0  0  0  0  0
   17.4678   44.7484   -8.0291 C   0  0  0  0  0  0  0  0  0  0  0  0
   16.6142   45.6306   -8.1437 O   0  0  0  0  0  0  0  0  0  0  0  0
   18.6778   44.9412   -7.1658 C   0  0  0  0  0  0  0  0  0  0  0  0
   19.2604   43.8580   -6.4702 C   0  0  0  0  0  0  0  0  0  0  0  0
   20.4331   44.0413   -5.7191 C   0  0  0  0  0  0  0  0  0  0  0  0
   21.0582   45.3000   -5.7005 C   0  0  0  0  0  0  0  0  0  0  0  0
   20.5024   46.3884   -6.4072 C   0  0  0  0  0  0  0  0  0  0  0  0
   19.2704   46.2174   -7.0780 C   0  0  0  0  0  0  0  0  0  0  0  0
   21.2343   47.6988   -6.4137 C   0  0  0  0  0  0  0  0  0  0  0  0
   21.5867   48.1647   -5.3278 O   0  0  0  0  0  0  0  0  0  0  0  0
   15.7883   41.9802   -9.5160 C   0  0  1  0  0  0  0  0  0  0  0  0
   15.0264   42.0576   -8.1705 C   0  0  0  0  0  0  0  0  0  0  0  0
   14.9357   40.7780   -7.4589 N   0  0  0  0  0  0  0  0  0  0  0  0
   16.2115   40.2462   -6.9870 C   0  0  0  0  0  0  0  0  0  0  0  0
   16.8393   39.2162   -7.9015 C   0  0  0  0  0  0  0  0  0  0  0  0
   16.0599   38.1784   -8.4396 C   0  0  0  0  0  0  0  0  0  0  0  0
   16.6518   37.2141   -9.2663 C   0  0  0  0  0  0  0  0  0  0  0  0
   18.0225   37.2924   -9.5630 C   0  0  0  0  0  0  0  0  0  0  0  0
   18.8230   38.3246   -9.0278 C   0  0  0  0  0  0  0  0  0  0  0  0
   18.2170   39.2897   -8.1931 C   0  0  0  0  0  0  0  0  0  0  0  0
   20.3095   38.3748   -9.3726 C   0  0  0  0  0  0  0  0  0  0  0  0
   21.1973   38.7918   -8.1851 C   0  0  0  0  0  0  0  0  0  0  0  0
   20.5634   39.2604  -10.6027 C   0  0  0  0  0  0  0  0  0  0  0  0
   14.8030   41.7765  -10.5092 O   0  0  0  0  0  0  0  0  0  0  0  0
   18.0320   44.4442  -13.1647 C   0  0  0  0  0  0  0  0  0  0  0  0
   17.5467   45.2437  -11.2547 H   0  0  0  0  0  0  0  0  0  0  0  0
   15.8801   44.0660  -10.0094 H   0  0  0  0  0  0  0  0  0  0  0  0
   16.4704   41.1347   -9.5506 H   0  0  0  0  0  0  0  0  0  0  0  0
   24.4195   50.1728   -7.5228 H   0  0  0  0  0  0  0  0  0  0  0  0
   24.1675   48.6626   -8.3915 H   0  0  0  0  0  0  0  0  0  0  0  0
   24.1039   48.6898   -6.6302 H   0  0  0  0  0  0  0  0  0  0  0  0
   22.0457   50.1635   -6.7508 H   0  0  0  0  0  0  0  0  0  0  0  0
   22.1186   50.1517   -8.4721 H   0  0  0  0  0  0  0  0  0  0  0  0
   20.1022   47.8312   -9.0692 H   0  0  0  0  0  0  0  0  0  0  0  0
   21.5254   48.5371   -9.7049 H   0  0  0  0  0  0  0  0  0  0  0  0
   22.8395   46.4449   -9.1153 H   0  0  0  0  0  0  0  0  0  0  0  0
   21.3383   45.6328   -8.7853 H   0  0  0  0  0  0  0  0  0  0  0  0
   22.0937   46.9499  -11.4221 H   0  0  0  0  0  0  0  0  0  0  0  0
   22.2058   45.2480  -11.1082 H   0  0  0  0  0  0  0  0  0  0  0  0
   19.5248   46.7175  -10.9390 H   0  0  0  0  0  0  0  0  0  0  0  0
   20.1853   46.1625  -12.4370 H   0  0  0  0  0  0  0  0  0  0  0  0
   20.2154   43.8029  -11.6103 H   0  0  0  0  0  0  0  0  0  0  0  0
   19.6414   44.3423  -10.0660 H   0  0  0  0  0  0  0  0  0  0  0  0
   16.7811   42.7201  -11.9072 H   0  0  0  0  0  0  0  0  0  0  0  0
   18.1881   42.3083  -10.9972 H   0  0  0  0  0  0  0  0  0  0  0  0
   18.2486   42.9732   -8.5599 H   0  0  0  0  0  0  0  0  0  0  0  0
   18.8050   42.8760   -6.5011 H   0  0  0  0  0  0  0  0  0  0  0  0
   20.8635   43.2128   -5.1770 H   0  0  0  0  0  0  0  0  0  0  0  0
   21.9826   45.4192   -5.1534 H   0  0  0  0  0  0  0  0  0  0  0  0
   18.8042   47.0518   -7.5784 H   0  0  0  0  0  0  0  0  0  0  0  0
   15.5201   42.7631   -7.5099 H   0  0  0  0  0  0  0  0  0  0  0  0
   14.0317   42.4776   -8.3235 H   0  0  0  0  0  0  0  0  0  0  0  0
   14.3538   40.9111   -6.6228 H   0  0  0  0  0  0  0  0  0  0  0  0
   16.9203   41.0603   -6.8434 H   0  0  0  0  0  0  0  0  0  0  0  0
   16.0662   39.7666   -6.0194 H   0  0  0  0  0  0  0  0  0  0  0  0
   15.0071   38.1183   -8.2029 H   0  0  0  0  0  0  0  0  0  0  0  0
   16.0534   36.4156   -9.6825 H   0  0  0  0  0  0  0  0  0  0  0  0
   18.4612   36.5470  -10.2053 H   0  0  0  0  0  0  0  0  0  0  0  0
   18.7992   40.0914   -7.7712 H   0  0  0  0  0  0  0  0  0  0  0  0
   20.6097   37.3601   -9.6368 H   0  0  0  0  0  0  0  0  0  0  0  0
   21.0236   38.1500   -7.3182 H   0  0  0  0  0  0  0  0  0  0  0  0
   21.0170   39.8244   -7.8849 H   0  0  0  0  0  0  0  0  0  0  0  0
   22.2536   38.7154   -8.4464 H   0  0  0  0  0  0  0  0  0  0  0  0
   19.9893   38.9065  -11.4610 H   0  0  0  0  0  0  0  0  0  0  0  0
   21.6184   39.2527  -10.8796 H   0  0  0  0  0  0  0  0  0  0  0  0
   20.2739   40.2942  -10.4103 H   0  0  0  0  0  0  0  0  0  0  0  0
   14.2432   41.0756  -10.1999 H   0  0  0  0  0  0  0  0  0  0  0  0
   18.5350   43.5866  -13.6089 H   0  0  0  0  0  0  0  0  0  0  0  0
   18.4597   45.3543  -13.5824 H   0  0  0  0  0  0  0  0  0  0  0  0
   16.9907   44.4087  -13.4841 H   0  0  0  0  0  0  0  0  0  0  0  0
  1  2  1  0  0  0  0
  1 41  1  0  0  0  0
  1 42  1  0  0  0  0
  1 43  1  0  0  0  0
  2  3  1  0  0  0  0
  2 44  1  0  0  0  0
  2 45  1  0  0  0  0
  3 21  1  0  0  0  0
  3  4  1  0  0  0  0
  4  5  1  0  0  0  0
  4 46  1  0  0  0  0
  4 47  1  0  0  0  0
  5  6  1  0  0  0  0
  5 48  1  0  0  0  0
  5 49  1  0  0  0  0
  6  7  1  0  0  0  0
  6 50  1  0  0  0  0
  6 51  1  0  0  0  0
  7  8  1  0  0  0  0
  7 52  1  0  0  0  0
  7 53  1  0  0  0  0
  8  9  1  0  0  0  0
  8 54  1  0  0  0  0
  8 55  1  0  0  0  0
  9 38  1  1  0  0  0
  9 10  1  0  0  0  0
  9 37  1  0  0  0  0
 10 11  1  0  0  0  0
 10 56  1  0  0  0  0
 10 57  1  0  0  0  0
 11 39  1  6  0  0  0
 11 12  1  0  0  0  0
 11 23  1  0  0  0  0
 12 13  1  0  0  0  0
 12 58  1  0  0  0  0
 13 14  2  0  0  0  0
 13 15  1  0  0  0  0
 15 20  1  0  0  0  0
 15 16  2  0  0  0  0
 16 17  1  0  0  0  0
 16 59  1  0  0  0  0
 17 18  2  0  0  0  0
 17 60  1  0  0  0  0
 18 19  1  0  0  0  0
 18 61  1  0  0  0  0
 19 20  2  0  0  0  0
 19 21  1  0  0  0  0
 20 62  1  0  0  0  0
 21 22  2  0  0  0  0
 23 40  1  1  0  0  0
 23 24  1  0  0  0  0
 23 36  1  0  0  0  0
 24 25  1  0  0  0  0
 24 63  1  0  0  0  0
 24 64  1  0  0  0  0
 25 26  1  0  0  0  0
 25 65  1  0  0  0  0
 26 27  1  0  0  0  0
 26 66  1  0  0  0  0
 26 67  1  0  0  0  0
 27 32  1  0  0  0  0
 27 28  2  0  0  0  0
 28 29  1  0  0  0  0
 28 68  1  0  0  0  0
 29 30  2  0  0  0  0
 29 69  1  0  0  0  0
 30 31  1  0  0  0  0
 30 70  1  0  0  0  0
 31 32  2  0  0  0  0
 31 33  1  0  0  0  0
 32 71  1  0  0  0  0
 33 34  1  0  0  0  0
 33 35  1  0  0  0  0
 33 72  1  0  0  0  0
 34 73  1  0  0  0  0
 34 74  1  0  0  0  0
 34 75  1  0  0  0  0
 35 76  1  0  0  0  0
 35 77  1  0  0  0  0
 35 78  1  0  0  0  0
 36 79  1  0  0  0  0
 37 80  1  0  0  0  0
 37 81  1  0  0  0  0
 37 82  1  0  0  0  0
M  END
