BACE_15.smi:1
 OpenBabel09281823033D
Structure written by MMmdl.
 83 86  0  0  1  0  0  0  0  0999 V2000
   20.4175   38.5472   -7.2046 C   0  0  0  0  0  0  0  0  0  0  0  0
   19.7223   38.2349   -8.5393 C   0  0  0  0  0  0  0  0  0  0  0  0
   20.1605   39.2218   -9.6333 C   0  0  0  0  0  0  0  0  0  0  0  0
   18.1998   38.1706   -8.4465 C   0  0  0  0  0  0  0  0  0  0  0  0
   17.4823   37.3489   -9.3382 C   0  0  0  0  0  0  0  0  0  0  0  0
   16.0746   37.3632   -9.3517 C   0  0  0  0  0  0  0  0  0  0  0  0
   15.3663   38.2134   -8.4795 C   0  0  0  0  0  0  0  0  0  0  0  0
   16.0734   39.0203   -7.5684 C   0  0  0  0  0  0  0  0  0  0  0  0
   17.4829   38.9631   -7.5257 C   0  0  0  0  0  0  0  0  0  0  0  0
   15.3336   39.9868   -6.6620 C   0  0  0  0  0  0  0  0  0  0  0  0
   15.2601   41.3499   -7.2478 N   0  3  0  0  0  0  0  0  0  0  0  0
   16.5510   41.9425   -7.7004 C   0  0  0  0  0  0  0  0  0  0  0  0
   16.4786   43.3408   -8.3731 C   0  0  2  0  0  0  0  0  0  0  0  0
   17.3459   44.4467   -7.7003 C   0  0  2  0  0  0  0  0  0  0  0  0
   17.6034   45.6830   -8.6008 C   0  0  0  0  0  0  0  0  0  0  0  0
   18.5889   46.6755   -7.9920 C   0  0  0  0  0  0  0  0  0  0  0  0
   18.1993   47.4741   -6.8971 C   0  0  0  0  0  0  0  0  0  0  0  0
   19.1291   48.3321   -6.2817 C   0  0  0  0  0  0  0  0  0  0  0  0
   20.4521   48.3885   -6.7504 C   0  0  0  0  0  0  0  0  0  0  0  0
   20.8636   47.5982   -7.8430 C   0  0  0  0  0  0  0  0  0  0  0  0
   19.9140   46.7575   -8.4788 C   0  0  0  0  0  0  0  0  0  0  0  0
   22.1908   47.6968   -8.2015 O   0  0  0  0  0  0  0  0  0  0  0  0
   22.7263   46.8208   -9.1872 C   0  0  0  0  0  0  0  0  0  0  0  0
   24.2416   46.7269   -8.9487 C   0  0  0  0  0  0  0  0  0  0  0  0
   24.5881   45.9169   -7.6844 C   0  0  0  0  0  0  0  0  0  0  0  0
   24.7849   44.4098   -7.9469 C   0  0  0  0  0  0  0  0  0  0  0  0
   24.5470   43.6566   -6.7607 O   0  0  0  0  0  0  0  0  0  0  0  0
   23.2477   43.3788   -6.3824 C   0  0  0  0  0  0  0  0  0  0  0  0
   23.0404   42.9621   -5.0502 C   0  0  0  0  0  0  0  0  0  0  0  0
   21.7461   42.6768   -4.5719 C   0  0  0  0  0  0  0  0  0  0  0  0
   20.6459   42.7919   -5.4436 C   0  0  0  0  0  0  0  0  0  0  0  0
   20.8252   43.2208   -6.7759 C   0  0  0  0  0  0  0  0  0  0  0  0
   22.1269   43.4860   -7.2442 C   0  0  0  0  0  0  0  0  0  0  0  0
   19.6447   43.4045   -7.6830 C   0  0  0  0  0  0  0  0  0  0  0  0
   19.6990   43.1566   -8.8873 O   0  0  0  0  0  0  0  0  0  0  0  0
   18.5832   43.9620   -7.0821 N   0  0  0  0  0  0  0  0  0  0  0  0
   21.5318   42.2328   -3.1349 C   0  0  0  0  0  0  0  0  0  0  0  0
   20.2242   42.5495   -2.6762 O   0  0  0  0  0  0  0  0  0  0  0  0
   19.9672   42.1113   -1.3560 C   0  0  0  0  0  0  0  0  0  0  0  0
   15.1405   43.8002   -8.4393 O   0  0  0  0  0  0  0  0  0  0  0  0
   16.8199   43.2166   -9.4030 H   0  0  0  0  0  0  0  0  0  0  0  0
   16.7812   44.8010   -6.8407 H   0  0  0  0  0  0  0  0  0  0  0  0
   20.0977   37.8427   -6.4398 H   0  0  0  0  0  0  0  0  0  0  0  0
   20.2072   39.5591   -6.8493 H   0  0  0  0  0  0  0  0  0  0  0  0
   21.5026   38.4591   -7.2978 H   0  0  0  0  0  0  0  0  0  0  0  0
   20.0608   37.2436   -8.8408 H   0  0  0  0  0  0  0  0  0  0  0  0
   19.7431   38.9471  -10.6014 H   0  0  0  0  0  0  0  0  0  0  0  0
   21.2481   39.2424   -9.7342 H   0  0  0  0  0  0  0  0  0  0  0  0
   19.8296   40.2363   -9.4025 H   0  0  0  0  0  0  0  0  0  0  0  0
   18.0120   36.7225  -10.0398 H   0  0  0  0  0  0  0  0  0  0  0  0
   15.5330   36.7330  -10.0402 H   0  0  0  0  0  0  0  0  0  0  0  0
   14.2855   38.2360   -8.5085 H   0  0  0  0  0  0  0  0  0  0  0  0
   18.0065   39.6011   -6.8240 H   0  0  0  0  0  0  0  0  0  0  0  0
   14.3195   39.6244   -6.4839 H   0  0  0  0  0  0  0  0  0  0  0  0
   15.8096   40.0233   -5.6835 H   0  0  0  0  0  0  0  0  0  0  0  0
   14.6211   41.3319   -8.0265 H   0  0  0  0  0  0  0  0  0  0  0  0
   17.2108   41.9388   -6.8458 H   0  0  0  0  0  0  0  0  0  0  0  0
   17.0079   41.2969   -8.4466 H   0  0  0  0  0  0  0  0  0  0  0  0
   17.9866   45.3595   -9.5695 H   0  0  0  0  0  0  0  0  0  0  0  0
   16.6638   46.1956   -8.8054 H   0  0  0  0  0  0  0  0  0  0  0  0
   17.1925   47.4151   -6.5164 H   0  0  0  0  0  0  0  0  0  0  0  0
   18.8332   48.9373   -5.4372 H   0  0  0  0  0  0  0  0  0  0  0  0
   21.1654   49.0321   -6.2588 H   0  0  0  0  0  0  0  0  0  0  0  0
   20.1918   46.1395   -9.3203 H   0  0  0  0  0  0  0  0  0  0  0  0
   22.3030   45.8202   -9.1425 H   0  0  0  0  0  0  0  0  0  0  0  0
   22.5171   47.2260  -10.1762 H   0  0  0  0  0  0  0  0  0  0  0  0
   24.7346   46.2870   -9.8179 H   0  0  0  0  0  0  0  0  0  0  0  0
   24.6431   47.7373   -8.8574 H   0  0  0  0  0  0  0  0  0  0  0  0
   25.5046   46.3085   -7.2379 H   0  0  0  0  0  0  0  0  0  0  0  0
   23.8124   46.0719   -6.9332 H   0  0  0  0  0  0  0  0  0  0  0  0
   24.2042   44.0508   -8.7952 H   0  0  0  0  0  0  0  0  0  0  0  0
   25.8222   44.2404   -8.2400 H   0  0  0  0  0  0  0  0  0  0  0  0
   23.8914   42.8788   -4.3879 H   0  0  0  0  0  0  0  0  0  0  0  0
   19.6606   42.5542   -5.0763 H   0  0  0  0  0  0  0  0  0  0  0  0
   22.2300   43.7845   -8.2757 H   0  0  0  0  0  0  0  0  0  0  0  0
   18.6829   44.1289   -6.0925 H   0  0  0  0  0  0  0  0  0  0  0  0
   21.7021   41.1562   -3.0763 H   0  0  0  0  0  0  0  0  0  0  0  0
   22.2715   42.7185   -2.4965 H   0  0  0  0  0  0  0  0  0  0  0  0
   18.9565   42.4011   -1.0676 H   0  0  0  0  0  0  0  0  0  0  0  0
   20.6616   42.5664   -0.6495 H   0  0  0  0  0  0  0  0  0  0  0  0
   20.0380   41.0256   -1.2775 H   0  0  0  0  0  0  0  0  0  0  0  0
   14.8610   43.9709   -7.5514 H   0  0  0  0  0  0  0  0  0  0  0  0
   14.8685   41.9394   -6.5136 H   0  0  0  0  0  0  0  0  0  0  0  0
  1  2  1  0  0  0  0
  1 43  1  0  0  0  0
  1 44  1  0  0  0  0
  1 45  1  0  0  0  0
  2  3  1  0  0  0  0
  2  4  1  0  0  0  0
  2 46  1  0  0  0  0
  3 47  1  0  0  0  0
  3 48  1  0  0  0  0
  3 49  1  0  0  0  0
  4  9  1  0  0  0  0
  4  5  2  0  0  0  0
  5  6  1  0  0  0  0
  5 50  1  0  0  0  0
  6  7  2  0  0  0  0
  6 51  1  0  0  0  0
  7  8  1  0  0  0  0
  7 52  1  0  0  0  0
  8  9  2  0  0  0  0
  8 10  1  0  0  0  0
  9 53  1  0  0  0  0
 10 11  1  0  0  0  0
 10 54  1  0  0  0  0
 10 55  1  0  0  0  0
 11 12  1  0  0  0  0
 11 56  1  0  0  0  0
 11 83  1  0  0  0  0
 12 13  1  0  0  0  0
 12 57  1  0  0  0  0
 12 58  1  0  0  0  0
 13 41  1  6  0  0  0
 13 14  1  0  0  0  0
 13 40  1  0  0  0  0
 14 42  1  1  0  0  0
 14 36  1  0  0  0  0
 14 15  1  0  0  0  0
 15 16  1  0  0  0  0
 15 59  1  0  0  0  0
 15 60  1  0  0  0  0
 16 21  1  0  0  0  0
 16 17  2  0  0  0  0
 17 18  1  0  0  0  0
 17 61  1  0  0  0  0
 18 19  2  0  0  0  0
 18 62  1  0  0  0  0
 19 20  1  0  0  0  0
 19 63  1  0  0  0  0
 20 21  2  0  0  0  0
 20 22  1  0  0  0  0
 21 64  1  0  0  0  0
 22 23  1  0  0  0  0
 23 24  1  0  0  0  0
 23 65  1  0  0  0  0
 23 66  1  0  0  0  0
 24 25  1  0  0  0  0
 24 67  1  0  0  0  0
 24 68  1  0  0  0  0
 25 26  1  0  0  0  0
 25 69  1  0  0  0  0
 25 70  1  0  0  0  0
 26 27  1  0  0  0  0
 26 71  1  0  0  0  0
 26 72  1  0  0  0  0
 27 28  1  0  0  0  0
 28 33  1  0  0  0  0
 28 29  2  0  0  0  0
 29 30  1  0  0  0  0
 29 73  1  0  0  0  0
 30 31  2  0  0  0  0
 30 37  1  0  0  0  0
 31 32  1  0  0  0  0
 31 74  1  0  0  0  0
 32 33  2  0  0  0  0
 32 34  1  0  0  0  0
 33 75  1  0  0  0  0
 34 35  2  0  0  0  0
 34 36  1  0  0  0  0
 36 76  1  0  0  0  0
 37 38  1  0  0  0  0
 37 77  1  0  0  0  0
 37 78  1  0  0  0  0
 38 39  1  0  0  0  0
 39 79  1  0  0  0  0
 39 80  1  0  0  0  0
 39 81  1  0  0  0  0
 40 82  1  0  0  0  0
M  CHG  1  11   1
M  END
