BACE_14.smi:1
 OpenBabel09281823033D
Structure written by MMmdl.
 86 90  0  0  1  0  0  0  0  0999 V2000
   21.9432   38.7173   -7.4737 C   0  0  0  0  0  0  0  0  0  0  0  0
   21.1180   39.9834   -7.7245 C   0  0  0  0  0  0  0  0  0  0  0  0
   21.9399   41.0693   -8.4359 C   0  0  0  0  0  0  0  0  0  0  0  0
   19.8183   39.6771   -8.4573 C   0  0  0  0  0  0  0  0  0  0  0  0
   19.8219   39.2102   -9.7875 C   0  0  0  0  0  0  0  0  0  0  0  0
   18.6040   38.9463  -10.4414 C   0  0  0  0  0  0  0  0  0  0  0  0
   17.3774   39.1584   -9.7831 C   0  0  0  0  0  0  0  0  0  0  0  0
   17.3580   39.6418   -8.4584 C   0  0  0  0  0  0  0  0  0  0  0  0
   18.5861   39.8645   -7.8004 C   0  0  0  0  0  0  0  0  0  0  0  0
   16.0642   39.9368   -7.7507 C   0  0  0  0  0  0  0  0  0  0  0  0
   15.7921   39.3507   -6.3993 C   0  0  0  0  0  0  0  0  0  0  0  0
   14.9887   38.8889   -7.5925 C   0  0  0  0  0  0  0  0  0  0  0  0
   15.4974   41.3024   -7.8953 N   0  3  0  0  0  0  0  0  0  0  0  0
   16.4410   42.4443   -7.9229 C   0  0  0  0  0  0  0  0  0  0  0  0
   17.0502   42.7049   -9.3226 C   0  0  2  0  0  0  0  0  0  0  0  0
   18.1156   43.8286   -9.3726 C   0  0  2  0  0  0  0  0  0  0  0  0
   18.8984   43.8120  -10.7116 C   0  0  0  0  0  0  0  0  0  0  0  0
   20.0033   44.8529  -10.8079 C   0  0  0  0  0  0  0  0  0  0  0  0
   19.6877   46.1881  -11.1255 C   0  0  0  0  0  0  0  0  0  0  0  0
   20.7095   47.1517  -11.2109 C   0  0  0  0  0  0  0  0  0  0  0  0
   22.0489   46.7883  -10.9738 C   0  0  0  0  0  0  0  0  0  0  0  0
   22.3815   45.4510  -10.6423 C   0  0  0  0  0  0  0  0  0  0  0  0
   21.3497   44.4923  -10.5798 C   0  0  0  0  0  0  0  0  0  0  0  0
   23.6585   45.0035  -10.3730 O   0  0  0  0  0  0  0  0  0  0  0  0
   24.7168   45.9415  -10.1782 C   0  0  0  0  0  0  0  0  0  0  0  0
   24.5929   46.6997   -8.8411 C   0  0  0  0  0  0  0  0  0  0  0  0
   24.5210   45.7707   -7.6208 C   0  0  0  0  0  0  0  0  0  0  0  0
   24.1839   46.5324   -6.3233 C   0  0  0  0  0  0  0  0  0  0  0  0
   23.7700   45.6476   -5.2396 N   0  0  0  0  0  0  0  0  0  0  0  0
   22.5999   44.8823   -5.3550 C   0  0  0  0  0  0  0  0  0  0  0  0
   21.5696   45.2052   -6.2673 C   0  0  0  0  0  0  0  0  0  0  0  0
   20.4581   44.3540   -6.4226 C   0  0  0  0  0  0  0  0  0  0  0  0
   20.3526   43.1967   -5.6253 C   0  0  0  0  0  0  0  0  0  0  0  0
   21.3258   42.9154   -4.6449 C   0  0  0  0  0  0  0  0  0  0  0  0
   22.4598   43.7456   -4.5332 C   0  0  0  0  0  0  0  0  0  0  0  0
   21.1673   41.7446   -3.7537 C   0  0  0  0  0  0  0  0  0  0  0  0
   20.8290   40.6251   -4.1321 O   0  0  0  0  0  0  0  0  0  0  0  0
   21.3918   42.0125   -2.2709 C   0  0  0  0  0  0  0  0  0  0  0  0
   19.3915   44.7050   -7.4110 C   0  0  0  0  0  0  0  0  0  0  0  0
   18.9287   45.8452   -7.4601 O   0  0  0  0  0  0  0  0  0  0  0  0
   19.0452   43.7132   -8.2458 N   0  0  0  0  0  0  0  0  0  0  0  0
   15.9770   43.0466  -10.1790 O   0  0  0  0  0  0  0  0  0  0  0  0
   17.5130   41.8079   -9.7197 H   0  0  0  0  0  0  0  0  0  0  0  0
   17.5934   44.7845   -9.2932 H   0  0  0  0  0  0  0  0  0  0  0  0
   22.8365   38.9500   -6.8947 H   0  0  0  0  0  0  0  0  0  0  0  0
   22.2585   38.2508   -8.4076 H   0  0  0  0  0  0  0  0  0  0  0  0
   21.3691   37.9860   -6.9033 H   0  0  0  0  0  0  0  0  0  0  0  0
   20.8526   40.3832   -6.7475 H   0  0  0  0  0  0  0  0  0  0  0  0
   22.8349   41.3199   -7.8658 H   0  0  0  0  0  0  0  0  0  0  0  0
   21.3605   41.9846   -8.5443 H   0  0  0  0  0  0  0  0  0  0  0  0
   22.2600   40.7506   -9.4276 H   0  0  0  0  0  0  0  0  0  0  0  0
   20.7546   39.0480  -10.3065 H   0  0  0  0  0  0  0  0  0  0  0  0
   18.6098   38.5851  -11.4590 H   0  0  0  0  0  0  0  0  0  0  0  0
   16.4530   38.9610  -10.3053 H   0  0  0  0  0  0  0  0  0  0  0  0
   18.5815   40.1925   -6.7739 H   0  0  0  0  0  0  0  0  0  0  0  0
   16.5347   38.6542   -6.0218 H   0  0  0  0  0  0  0  0  0  0  0  0
   15.2721   39.9382   -5.6433 H   0  0  0  0  0  0  0  0  0  0  0  0
   13.9416   39.1894   -7.6149 H   0  0  0  0  0  0  0  0  0  0  0  0
   15.1921   37.8809   -7.9485 H   0  0  0  0  0  0  0  0  0  0  0  0
   14.8953   41.4384   -7.0901 H   0  0  0  0  0  0  0  0  0  0  0  0
   17.1979   42.2868   -7.1564 H   0  0  0  0  0  0  0  0  0  0  0  0
   15.8899   43.3405   -7.6404 H   0  0  0  0  0  0  0  0  0  0  0  0
   19.3418   42.8274  -10.8683 H   0  0  0  0  0  0  0  0  0  0  0  0
   18.2138   43.9660  -11.5461 H   0  0  0  0  0  0  0  0  0  0  0  0
   18.6623   46.4777  -11.3043 H   0  0  0  0  0  0  0  0  0  0  0  0
   20.4659   48.1753  -11.4563 H   0  0  0  0  0  0  0  0  0  0  0  0
   22.8024   47.5562  -11.0471 H   0  0  0  0  0  0  0  0  0  0  0  0
   21.5994   43.4704  -10.3368 H   0  0  0  0  0  0  0  0  0  0  0  0
   25.6501   45.3770  -10.1756 H   0  0  0  0  0  0  0  0  0  0  0  0
   24.7944   46.6263  -11.0219 H   0  0  0  0  0  0  0  0  0  0  0  0
   25.4428   47.3732   -8.7299 H   0  0  0  0  0  0  0  0  0  0  0  0
   23.7084   47.3343   -8.8590 H   0  0  0  0  0  0  0  0  0  0  0  0
   23.7649   45.0113   -7.8180 H   0  0  0  0  0  0  0  0  0  0  0  0
   25.4586   45.2300   -7.4998 H   0  0  0  0  0  0  0  0  0  0  0  0
   25.0584   47.0939   -5.9945 H   0  0  0  0  0  0  0  0  0  0  0  0
   23.4035   47.2732   -6.4984 H   0  0  0  0  0  0  0  0  0  0  0  0
   24.4913   45.3010   -4.6140 H   0  0  0  0  0  0  0  0  0  0  0  0
   21.6379   46.0839   -6.8915 H   0  0  0  0  0  0  0  0  0  0  0  0
   19.4965   42.5502   -5.7293 H   0  0  0  0  0  0  0  0  0  0  0  0
   23.2349   43.5063   -3.8175 H   0  0  0  0  0  0  0  0  0  0  0  0
   21.0278   43.0064   -2.0100 H   0  0  0  0  0  0  0  0  0  0  0  0
   22.4535   41.9656   -2.0468 H   0  0  0  0  0  0  0  0  0  0  0  0
   20.8634   41.2815   -1.6577 H   0  0  0  0  0  0  0  0  0  0  0  0
   19.5116   42.8271   -8.1215 H   0  0  0  0  0  0  0  0  0  0  0  0
   16.3019   43.0624  -11.0684 H   0  0  0  0  0  0  0  0  0  0  0  0
   14.9292   41.3448   -8.7291 H   0  0  0  0  0  0  0  0  0  0  0  0
  1  2  1  0  0  0  0
  1 45  1  0  0  0  0
  1 46  1  0  0  0  0
  1 47  1  0  0  0  0
  2  3  1  0  0  0  0
  2  4  1  0  0  0  0
  2 48  1  0  0  0  0
  3 49  1  0  0  0  0
  3 50  1  0  0  0  0
  3 51  1  0  0  0  0
  4  9  1  0  0  0  0
  4  5  2  0  0  0  0
  5  6  1  0  0  0  0
  5 52  1  0  0  0  0
  6  7  2  0  0  0  0
  6 53  1  0  0  0  0
  7  8  1  0  0  0  0
  7 54  1  0  0  0  0
  8  9  2  0  0  0  0
  8 10  1  0  0  0  0
  9 55  1  0  0  0  0
 10 12  1  0  0  0  0
 10 11  1  0  0  0  0
 10 13  1  0  0  0  0
 11 12  1  0  0  0  0
 11 56  1  0  0  0  0
 11 57  1  0  0  0  0
 12 58  1  0  0  0  0
 12 59  1  0  0  0  0
 13 14  1  0  0  0  0
 13 60  1  0  0  0  0
 13 86  1  0  0  0  0
 14 15  1  0  0  0  0
 14 61  1  0  0  0  0
 14 62  1  0  0  0  0
 15 43  1  6  0  0  0
 15 16  1  0  0  0  0
 15 42  1  0  0  0  0
 16 44  1  1  0  0  0
 16 41  1  0  0  0  0
 16 17  1  0  0  0  0
 17 18  1  0  0  0  0
 17 63  1  0  0  0  0
 17 64  1  0  0  0  0
 18 23  1  0  0  0  0
 18 19  2  0  0  0  0
 19 20  1  0  0  0  0
 19 65  1  0  0  0  0
 20 21  2  0  0  0  0
 20 66  1  0  0  0  0
 21 22  1  0  0  0  0
 21 67  1  0  0  0  0
 22 23  2  0  0  0  0
 22 24  1  0  0  0  0
 23 68  1  0  0  0  0
 24 25  1  0  0  0  0
 25 26  1  0  0  0  0
 25 69  1  0  0  0  0
 25 70  1  0  0  0  0
 26 27  1  0  0  0  0
 26 71  1  0  0  0  0
 26 72  1  0  0  0  0
 27 28  1  0  0  0  0
 27 73  1  0  0  0  0
 27 74  1  0  0  0  0
 28 29  1  0  0  0  0
 28 75  1  0  0  0  0
 28 76  1  0  0  0  0
 29 30  1  0  0  0  0
 29 77  1  0  0  0  0
 30 35  1  0  0  0  0
 30 31  2  0  0  0  0
 31 32  1  0  0  0  0
 31 78  1  0  0  0  0
 32 33  2  0  0  0  0
 32 39  1  0  0  0  0
 33 34  1  0  0  0  0
 33 79  1  0  0  0  0
 34 35  2  0  0  0  0
 34 36  1  0  0  0  0
 35 80  1  0  0  0  0
 36 37  2  0  0  0  0
 36 38  1  0  0  0  0
 38 81  1  0  0  0  0
 38 82  1  0  0  0  0
 38 83  1  0  0  0  0
 39 40  2  0  0  0  0
 39 41  1  0  0  0  0
 41 84  1  0  0  0  0
 42 85  1  0  0  0  0
M  CHG  1  13   1
M  END
