BACE_5.smi:1
 OpenBabel09281823033D
Structure written by MMmdl.
 80 81  0  0  1  0  0  0  0  0999 V2000
   20.9339   40.1824  -11.7775 C   0  0  0  0  0  0  0  0  0  0  0  0
   19.9992   39.8503  -10.6074 C   0  0  0  0  0  0  0  0  0  0  0  0
   19.0039   38.7367  -10.9558 C   0  0  0  0  0  0  0  0  0  0  0  0
   18.0427   38.4585   -9.8363 C   0  0  0  0  0  0  0  0  0  0  0  0
   16.7665   39.0553   -9.5962 C   0  0  0  0  0  0  0  0  0  0  0  0
   16.3794   38.5473   -8.3837 C   0  0  0  0  0  0  0  0  0  0  0  0
   17.3455   37.6344   -8.0401 N   0  0  0  0  0  0  0  0  0  0  0  0
   18.3735   37.5795   -8.9035 N   0  0  0  0  0  0  0  0  0  0  0  0
   15.2399   38.8314   -7.4459 C   0  0  0  0  0  0  0  0  0  0  0  0
   14.8608   40.2572   -7.3373 N   0  3  0  0  0  0  0  0  0  0  0  0
   15.9685   41.2390   -7.2652 C   0  0  0  0  0  0  0  0  0  0  0  0
   15.8330   42.2893   -8.3823 C   0  0  2  0  0  0  0  0  0  0  0  0
   17.0867   43.1728   -8.6048 C   0  0  2  0  0  0  0  0  0  0  0  0
   17.6630   43.7599   -7.2950 C   0  0  0  0  0  0  0  0  0  0  0  0
   18.8974   44.6820   -7.4289 C   0  0  1  0  0  0  0  0  0  0  0  0
   19.1993   45.3633   -6.0768 C   0  0  0  0  0  0  0  0  0  0  0  0
   19.9640   46.6929   -6.1914 C   0  0  0  0  0  0  0  0  0  0  0  0
   19.0372   47.8746   -6.5302 C   0  0  0  0  0  0  0  0  0  0  0  0
   19.7604   49.2216   -6.6953 C   0  0  0  0  0  0  0  0  0  0  0  0
   20.8119   49.2686   -7.8215 C   0  0  0  0  0  0  0  0  0  0  0  0
   20.2888   48.8358   -9.1988 C   0  0  0  0  0  0  0  0  0  0  0  0
   19.2083   49.6762   -9.5759 O   0  0  0  0  0  0  0  0  0  0  0  0
   18.5742   49.3108  -10.7961 C   0  0  0  0  0  0  0  0  0  0  0  0
   17.6533   48.0866  -10.5892 C   0  0  0  0  0  0  0  0  0  0  0  0
   16.8601   48.1355   -9.6452 O   0  0  0  0  0  0  0  0  0  0  0  0
   17.7050   47.0247  -11.4400 N   0  0  0  0  0  0  0  0  0  0  0  0
   16.7370   45.9081  -11.2917 C   0  0  2  0  0  0  0  0  0  0  0  0
   17.3671   44.6963  -10.5857 C   0  0  0  0  0  0  0  0  0  0  0  0
   18.3968   44.1763  -11.0075 O   0  0  0  0  0  0  0  0  0  0  0  0
   16.7096   44.2562   -9.5088 N   0  0  0  0  0  0  0  0  0  0  0  0
   16.1720   45.4596  -12.6518 C   0  0  0  0  0  0  0  0  0  0  0  0
   18.7612   46.9071  -12.4578 C   0  0  0  0  0  0  0  0  0  0  0  0
   20.1318   43.9178   -7.9450 C   0  0  0  0  0  0  0  0  0  0  0  0
   14.7310   43.1028   -8.0400 O   0  0  0  0  0  0  0  0  0  0  0  0
   17.2870   37.0402   -7.2115 H   0  0  0  0  0  0  0  0  0  0  0  0
   15.5971   41.7987   -9.3279 H   0  0  0  0  0  0  0  0  0  0  0  0
   17.8466   42.5435   -9.0691 H   0  0  0  0  0  0  0  0  0  0  0  0
   18.6566   45.4648   -8.1452 H   0  0  0  0  0  0  0  0  0  0  0  0
   15.8691   46.2298  -10.7151 H   0  0  0  0  0  0  0  0  0  0  0  0
   21.6295   40.9747  -11.5061 H   0  0  0  0  0  0  0  0  0  0  0  0
   20.3703   40.5183  -12.6530 H   0  0  0  0  0  0  0  0  0  0  0  0
   21.5217   39.3146  -12.0753 H   0  0  0  0  0  0  0  0  0  0  0  0
   19.4538   40.7485  -10.3156 H   0  0  0  0  0  0  0  0  0  0  0  0
   20.5921   39.5560   -9.7376 H   0  0  0  0  0  0  0  0  0  0  0  0
   19.5452   37.8261  -11.2131 H   0  0  0  0  0  0  0  0  0  0  0  0
   18.4505   39.0155  -11.8470 H   0  0  0  0  0  0  0  0  0  0  0  0
   16.2583   39.7926  -10.1961 H   0  0  0  0  0  0  0  0  0  0  0  0
   15.5377   38.5500   -6.4401 H   0  0  0  0  0  0  0  0  0  0  0  0
   14.3676   38.2283   -7.6993 H   0  0  0  0  0  0  0  0  0  0  0  0
   14.3093   40.3702   -6.4920 H   0  0  0  0  0  0  0  0  0  0  0  0
   16.9497   40.7669   -7.3018 H   0  0  0  0  0  0  0  0  0  0  0  0
   15.9211   41.7239   -6.2924 H   0  0  0  0  0  0  0  0  0  0  0  0
   16.8608   44.3258   -6.8256 H   0  0  0  0  0  0  0  0  0  0  0  0
   17.9193   42.9511   -6.6100 H   0  0  0  0  0  0  0  0  0  0  0  0
   18.2653   45.5659   -5.5579 H   0  0  0  0  0  0  0  0  0  0  0  0
   19.7503   44.6719   -5.4385 H   0  0  0  0  0  0  0  0  0  0  0  0
   20.7571   46.5956   -6.9322 H   0  0  0  0  0  0  0  0  0  0  0  0
   20.4672   46.8994   -5.2466 H   0  0  0  0  0  0  0  0  0  0  0  0
   18.4636   47.6568   -7.4299 H   0  0  0  0  0  0  0  0  0  0  0  0
   18.2951   47.9789   -5.7382 H   0  0  0  0  0  0  0  0  0  0  0  0
   20.2325   49.4882   -5.7501 H   0  0  0  0  0  0  0  0  0  0  0  0
   19.0174   49.9955   -6.8826 H   0  0  0  0  0  0  0  0  0  0  0  0
   21.2059   50.2801   -7.8943 H   0  0  0  0  0  0  0  0  0  0  0  0
   21.6596   48.6405   -7.5551 H   0  0  0  0  0  0  0  0  0  0  0  0
   19.9944   47.7884   -9.1758 H   0  0  0  0  0  0  0  0  0  0  0  0
   21.0862   48.9193   -9.9381 H   0  0  0  0  0  0  0  0  0  0  0  0
   19.3228   49.2039  -11.5785 H   0  0  0  0  0  0  0  0  0  0  0  0
   17.9412   50.1435  -11.1003 H   0  0  0  0  0  0  0  0  0  0  0  0
   15.8455   44.7175   -9.2705 H   0  0  0  0  0  0  0  0  0  0  0  0
   15.3064   44.8139  -12.4999 H   0  0  0  0  0  0  0  0  0  0  0  0
   16.8907   44.8909  -13.2400 H   0  0  0  0  0  0  0  0  0  0  0  0
   15.8418   46.3126  -13.2444 H   0  0  0  0  0  0  0  0  0  0  0  0
   18.7848   45.9367  -12.9496 H   0  0  0  0  0  0  0  0  0  0  0  0
   19.7494   47.0332  -12.0107 H   0  0  0  0  0  0  0  0  0  0  0  0
   18.6271   47.6586  -13.2366 H   0  0  0  0  0  0  0  0  0  0  0  0
   20.9978   44.5722   -8.0422 H   0  0  0  0  0  0  0  0  0  0  0  0
   19.9546   43.4785   -8.9246 H   0  0  0  0  0  0  0  0  0  0  0  0
   20.4053   43.1059   -7.2684 H   0  0  0  0  0  0  0  0  0  0  0  0
   14.8599   43.3331   -7.1165 H   0  0  0  0  0  0  0  0  0  0  0  0
   14.2632   40.5013   -8.1156 H   0  0  0  0  0  0  0  0  0  0  0  0
  1  2  1  0  0  0  0
  1 40  1  0  0  0  0
  1 41  1  0  0  0  0
  1 42  1  0  0  0  0
  2  3  1  0  0  0  0
  2 43  1  0  0  0  0
  2 44  1  0  0  0  0
  3 45  1  0  0  0  0
  3 46  1  0  0  0  0
  3  4  1  0  0  0  0
  4  8  2  0  0  0  0
  4  5  1  0  0  0  0
  5  6  2  0  0  0  0
  5 47  1  0  0  0  0
  6  7  1  0  0  0  0
  6  9  1  0  0  0  0
  7  8  1  0  0  0  0
  7 35  1  0  0  0  0
  9 10  1  0  0  0  0
  9 48  1  0  0  0  0
  9 49  1  0  0  0  0
 10 11  1  0  0  0  0
 10 50  1  0  0  0  0
 10 80  1  0  0  0  0
 11 12  1  0  0  0  0
 11 51  1  0  0  0  0
 11 52  1  0  0  0  0
 12 36  1  6  0  0  0
 12 13  1  0  0  0  0
 12 34  1  0  0  0  0
 13 37  1  6  0  0  0
 13 30  1  0  0  0  0
 13 14  1  0  0  0  0
 14 15  1  0  0  0  0
 14 53  1  0  0  0  0
 14 54  1  0  0  0  0
 15 38  1  6  0  0  0
 15 16  1  0  0  0  0
 15 33  1  0  0  0  0
 16 17  1  0  0  0  0
 16 55  1  0  0  0  0
 16 56  1  0  0  0  0
 17 18  1  0  0  0  0
 17 57  1  0  0  0  0
 17 58  1  0  0  0  0
 18 19  1  0  0  0  0
 18 59  1  0  0  0  0
 18 60  1  0  0  0  0
 19 20  1  0  0  0  0
 19 61  1  0  0  0  0
 19 62  1  0  0  0  0
 20 21  1  0  0  0  0
 20 63  1  0  0  0  0
 20 64  1  0  0  0  0
 21 22  1  0  0  0  0
 21 65  1  0  0  0  0
 21 66  1  0  0  0  0
 22 23  1  0  0  0  0
 23 24  1  0  0  0  0
 23 67  1  0  0  0  0
 23 68  1  0  0  0  0
 24 25  2  0  0  0  0
 24 26  1  0  0  0  0
 26 27  1  0  0  0  0
 26 32  1  0  0  0  0
 27 39  1  1  0  0  0
 27 28  1  0  0  0  0
 27 31  1  0  0  0  0
 28 29  2  0  0  0  0
 28 30  1  0  0  0  0
 30 69  1  0  0  0  0
 31 70  1  0  0  0  0
 31 71  1  0  0  0  0
 31 72  1  0  0  0  0
 32 73  1  0  0  0  0
 32 74  1  0  0  0  0
 32 75  1  0  0  0  0
 33 76  1  0  0  0  0
 33 77  1  0  0  0  0
 33 78  1  0  0  0  0
 34 79  1  0  0  0  0
M  CHG  1  10   1
M  END
