BACE_5.smi:1
 OpenBabel09281823033D
Structure written by MMmdl.
 79 80  0  0  1  0  0  0  0  0999 V2000
   29.8061   41.6223  -12.8745 C   0  0  0  0  0  0  0  0  0  0  0  0
   29.4607   43.1181  -12.8149 C   0  0  0  0  0  0  0  0  0  0  0  0
   28.8972   43.5839  -11.4580 C   0  0  0  0  0  0  0  0  0  0  0  0
   27.5729   42.9540  -11.1117 C   0  0  0  0  0  0  0  0  0  0  0  0
   26.2668   43.4830  -11.3089 C   0  0  0  0  0  0  0  0  0  0  0  0
   25.4312   42.4956  -10.8653 C   0  0  0  0  0  0  0  0  0  0  0  0
   26.2391   41.4705  -10.4389 N   0  0  0  0  0  0  0  0  0  0  0  0
   27.5464   41.7528  -10.5585 N   0  0  0  0  0  0  0  0  0  0  0  0
   23.9423   42.4084  -10.8471 C   0  0  0  0  0  0  0  0  0  0  0  0
   23.3578   42.6910   -9.5348 N   0  0  0  0  0  0  0  0  0  0  0  0
   23.4194   41.6026   -8.5568 C   0  0  0  0  0  0  0  0  0  0  0  0
   22.5618   40.3630   -8.9141 C   0  0  2  0  0  0  0  0  0  0  0  0
   21.0277   40.5754   -8.7547 C   0  0  2  0  0  0  0  0  0  0  0  0
   20.2210   39.2428   -8.7955 C   0  0  0  0  0  0  0  0  0  0  0  0
   18.7116   39.3630   -8.4601 C   0  0  1  0  0  0  0  0  0  0  0  0
   17.8462   39.5487   -9.7260 C   0  0  0  0  0  0  0  0  0  0  0  0
   16.4247   40.0483   -9.4276 C   0  0  0  0  0  0  0  0  0  0  0  0
   15.6704   40.4528  -10.7057 C   0  0  0  0  0  0  0  0  0  0  0  0
   14.2555   41.0055  -10.4682 C   0  0  0  0  0  0  0  0  0  0  0  0
   14.1498   42.2641   -9.5862 C   0  0  0  0  0  0  0  0  0  0  0  0
   15.1352   43.3868   -9.9335 C   0  0  0  0  0  0  0  0  0  0  0  0
   15.0022   43.7839  -11.2980 O   0  0  0  0  0  0  0  0  0  0  0  0
   15.9759   44.7231  -11.7564 C   0  0  0  0  0  0  0  0  0  0  0  0
   17.3573   44.0512  -11.8912 C   0  0  0  0  0  0  0  0  0  0  0  0
   17.5381   43.3499  -12.8879 O   0  0  0  0  0  0  0  0  0  0  0  0
   18.2860   44.2019  -10.9088 N   0  0  0  0  0  0  0  0  0  0  0  0
   19.5494   43.4236  -10.9175 C   0  0  2  0  0  0  0  0  0  0  0  0
   19.8235   42.5946   -9.6446 C   0  0  0  0  0  0  0  0  0  0  0  0
   19.4030   42.9487   -8.5467 O   0  0  0  0  0  0  0  0  0  0  0  0
   20.5646   41.4851   -9.8092 N   0  0  0  0  0  0  0  0  0  0  0  0
   20.7176   44.3524  -11.2711 C   0  0  0  0  0  0  0  0  0  0  0  0
   18.1395   45.2419   -9.8761 C   0  0  0  0  0  0  0  0  0  0  0  0
   18.2289   38.1550   -7.6363 C   0  0  0  0  0  0  0  0  0  0  0  0
   23.0114   39.3519   -8.0401 O   0  0  0  0  0  0  0  0  0  0  0  0
   25.9215   40.5833  -10.0706 H   0  0  0  0  0  0  0  0  0  0  0  0
   22.7792   40.0000   -9.9184 H   0  0  0  0  0  0  0  0  0  0  0  0
   20.8620   41.0265   -7.7737 H   0  0  0  0  0  0  0  0  0  0  0  0
   18.5874   40.2414   -7.8204 H   0  0  0  0  0  0  0  0  0  0  0  0
   19.5123   42.6841  -11.7210 H   0  0  0  0  0  0  0  0  0  0  0  0
   30.2623   41.3638  -13.8287 H   0  0  0  0  0  0  0  0  0  0  0  0
   28.9186   40.9986  -12.7659 H   0  0  0  0  0  0  0  0  0  0  0  0
   30.5074   41.3520  -12.0869 H   0  0  0  0  0  0  0  0  0  0  0  0
   28.7559   43.3579  -13.6109 H   0  0  0  0  0  0  0  0  0  0  0  0
   30.3648   43.6889  -13.0289 H   0  0  0  0  0  0  0  0  0  0  0  0
   28.7823   44.6715  -11.4776 H   0  0  0  0  0  0  0  0  0  0  0  0
   29.6223   43.3764  -10.6703 H   0  0  0  0  0  0  0  0  0  0  0  0
   25.9818   44.4360  -11.7294 H   0  0  0  0  0  0  0  0  0  0  0  0
   23.6158   41.4460  -11.2377 H   0  0  0  0  0  0  0  0  0  0  0  0
   23.5751   43.1462  -11.5583 H   0  0  0  0  0  0  0  0  0  0  0  0
   22.3919   42.9885   -9.6444 H   0  0  0  0  0  0  0  0  0  0  0  0
   23.1087   41.9782   -7.5822 H   0  0  0  0  0  0  0  0  0  0  0  0
   24.4592   41.3021   -8.4267 H   0  0  0  0  0  0  0  0  0  0  0  0
   20.3563   38.7405   -9.7581 H   0  0  0  0  0  0  0  0  0  0  0  0
   20.6619   38.5644   -8.0628 H   0  0  0  0  0  0  0  0  0  0  0  0
   18.3227   40.2641  -10.3945 H   0  0  0  0  0  0  0  0  0  0  0  0
   17.8081   38.6138  -10.2879 H   0  0  0  0  0  0  0  0  0  0  0  0
   16.4845   40.8991   -8.7491 H   0  0  0  0  0  0  0  0  0  0  0  0
   15.8596   39.2775   -8.9026 H   0  0  0  0  0  0  0  0  0  0  0  0
   16.2593   41.1776  -11.2736 H   0  0  0  0  0  0  0  0  0  0  0  0
   15.5843   39.5734  -11.3388 H   0  0  0  0  0  0  0  0  0  0  0  0
   13.6566   40.2144  -10.0168 H   0  0  0  0  0  0  0  0  0  0  0  0
   13.7946   41.2170  -11.4340 H   0  0  0  0  0  0  0  0  0  0  0  0
   13.1286   42.6459   -9.6378 H   0  0  0  0  0  0  0  0  0  0  0  0
   14.3079   41.9768   -8.5454 H   0  0  0  0  0  0  0  0  0  0  0  0
   16.1393   43.0351   -9.7094 H   0  0  0  0  0  0  0  0  0  0  0  0
   14.9550   44.2459   -9.2868 H   0  0  0  0  0  0  0  0  0  0  0  0
   15.9750   45.6157  -11.1317 H   0  0  0  0  0  0  0  0  0  0  0  0
   15.6810   45.0600  -12.7527 H   0  0  0  0  0  0  0  0  0  0  0  0
   20.8574   41.2559  -10.7477 H   0  0  0  0  0  0  0  0  0  0  0  0
   21.5657   43.7837  -11.6454 H   0  0  0  0  0  0  0  0  0  0  0  0
   21.0577   44.9285  -10.4089 H   0  0  0  0  0  0  0  0  0  0  0  0
   20.4400   45.0675  -12.0395 H   0  0  0  0  0  0  0  0  0  0  0  0
   19.0508   45.3829   -9.2961 H   0  0  0  0  0  0  0  0  0  0  0  0
   17.3481   44.9874   -9.1703 H   0  0  0  0  0  0  0  0  0  0  0  0
   17.9150   46.2096  -10.3248 H   0  0  0  0  0  0  0  0  0  0  0  0
   17.1898   38.2615   -7.3309 H   0  0  0  0  0  0  0  0  0  0  0  0
   18.8086   38.0400   -6.7189 H   0  0  0  0  0  0  0  0  0  0  0  0
   18.3157   37.2278   -8.2022 H   0  0  0  0  0  0  0  0  0  0  0  0
   23.7584   38.9416   -8.4598 H   0  0  0  0  0  0  0  0  0  0  0  0
  1  2  1  0  0  0  0
  1 40  1  0  0  0  0
  1 41  1  0  0  0  0
  1 42  1  0  0  0  0
  2  3  1  0  0  0  0
  2 43  1  0  0  0  0
  2 44  1  0  0  0  0
  3 45  1  0  0  0  0
  3 46  1  0  0  0  0
  3  4  1  0  0  0  0
  4  8  2  0  0  0  0
  4  5  1  0  0  0  0
  5  6  2  0  0  0  0
  5 47  1  0  0  0  0
  6  7  1  0  0  0  0
  6  9  1  0  0  0  0
  7  8  1  0  0  0  0
  7 35  1  0  0  0  0
  9 10  1  0  0  0  0
  9 48  1  0  0  0  0
  9 49  1  0  0  0  0
 10 11  1  0  0  0  0
 10 50  1  0  0  0  0
 11 12  1  0  0  0  0
 11 51  1  0  0  0  0
 11 52  1  0  0  0  0
 12 36  1  6  0  0  0
 12 13  1  0  0  0  0
 12 34  1  0  0  0  0
 13 37  1  1  0  0  0
 13 30  1  0  0  0  0
 13 14  1  0  0  0  0
 14 15  1  0  0  0  0
 14 53  1  0  0  0  0
 14 54  1  0  0  0  0
 15 38  1  1  0  0  0
 15 16  1  0  0  0  0
 15 33  1  0  0  0  0
 16 17  1  0  0  0  0
 16 55  1  0  0  0  0
 16 56  1  0  0  0  0
 17 18  1  0  0  0  0
 17 57  1  0  0  0  0
 17 58  1  0  0  0  0
 18 19  1  0  0  0  0
 18 59  1  0  0  0  0
 18 60  1  0  0  0  0
 19 20  1  0  0  0  0
 19 61  1  0  0  0  0
 19 62  1  0  0  0  0
 20 21  1  0  0  0  0
 20 63  1  0  0  0  0
 20 64  1  0  0  0  0
 21 22  1  0  0  0  0
 21 65  1  0  0  0  0
 21 66  1  0  0  0  0
 22 23  1  0  0  0  0
 23 24  1  0  0  0  0
 23 67  1  0  0  0  0
 23 68  1  0  0  0  0
 24 25  2  0  0  0  0
 24 26  1  0  0  0  0
 26 27  1  0  0  0  0
 26 32  1  0  0  0  0
 27 39  1  6  0  0  0
 27 28  1  0  0  0  0
 27 31  1  0  0  0  0
 28 29  2  0  0  0  0
 28 30  1  0  0  0  0
 30 69  1  0  0  0  0
 31 70  1  0  0  0  0
 31 71  1  0  0  0  0
 31 72  1  0  0  0  0
 32 73  1  0  0  0  0
 32 74  1  0  0  0  0
 32 75  1  0  0  0  0
 33 76  1  0  0  0  0
 33 77  1  0  0  0  0
 33 78  1  0  0  0  0
 34 79  1  0  0  0  0
M  END
