BACE_4.smi:1
 OpenBabel09281823033D
Structure written by MMmdl.
 89 91  0  0  1  0  0  0  0  0999 V2000
   21.8904   44.5385   -4.8425 C   0  0  0  0  0  0  0  0  0  0  0  0
   22.9314   43.5305   -5.3370 C   0  0  2  0  0  0  0  0  0  0  0  0
   23.6846   43.8716   -6.6536 C   0  0  0  0  0  0  0  0  0  0  0  0
   23.5152   45.2891   -7.2479 C   0  0  0  0  0  0  0  0  0  0  0  0
   24.2387   46.4165   -6.4874 C   0  0  0  0  0  0  0  0  0  0  0  0
   24.0817   47.8128   -7.1288 C   0  0  0  0  0  0  0  0  0  0  0  0
   22.6328   48.2612   -7.4206 C   0  0  0  0  0  0  0  0  0  0  0  0
   21.7084   48.2838   -6.1864 C   0  0  0  0  0  0  0  0  0  0  0  0
   20.4260   48.8563   -6.4589 O   0  0  0  0  0  0  0  0  0  0  0  0
   19.5738   48.1655   -7.3809 C   0  0  0  0  0  0  0  0  0  0  0  0
   19.1421   46.7836   -6.8336 C   0  0  0  0  0  0  0  0  0  0  0  0
   18.8542   46.7085   -5.6393 O   0  0  0  0  0  0  0  0  0  0  0  0
   19.1138   45.7010   -7.6592 N   0  0  0  0  0  0  0  0  0  0  0  0
   18.8632   44.3349   -7.1329 C   0  0  2  0  0  0  0  0  0  0  0  0
   19.9771   43.3164   -7.4384 C   0  0  0  0  0  0  0  0  0  0  0  0
   20.5794   43.3154   -8.5113 O   0  0  0  0  0  0  0  0  0  0  0  0
   20.2624   42.4601   -6.4449 N   0  0  0  0  0  0  0  0  0  0  0  0
   21.4275   41.5817   -6.3860 C   0  0  1  0  0  0  0  0  0  0  0  0
   22.3927   42.0726   -5.2669 C   0  0  0  0  0  0  0  0  0  0  0  0
   20.9641   40.1111   -6.1962 C   0  0  1  0  0  0  0  0  0  0  0  0
   20.4939   39.4310   -7.4951 C   0  0  0  0  0  0  0  0  0  0  0  0
   19.2402   40.0085   -7.9711 N   0  0  0  0  0  0  0  0  0  0  0  0
   18.7368   39.5613   -9.2747 C   0  0  0  0  0  0  0  0  0  0  0  0
   19.3763   38.4078  -10.0256 C   0  0  0  0  0  0  0  0  0  0  0  0
   19.5770   39.8319  -10.5031 C   0  0  0  0  0  0  0  0  0  0  0  0
   17.2516   39.7472   -9.3361 C   0  0  0  0  0  0  0  0  0  0  0  0
   16.3949   38.7305   -8.8720 C   0  0  0  0  0  0  0  0  0  0  0  0
   15.0021   38.9079   -8.9147 C   0  0  0  0  0  0  0  0  0  0  0  0
   14.4622   40.0985   -9.4296 C   0  0  0  0  0  0  0  0  0  0  0  0
   15.2951   41.1455   -9.8853 C   0  0  0  0  0  0  0  0  0  0  0  0
   16.6988   40.9537   -9.8188 C   0  0  0  0  0  0  0  0  0  0  0  0
   14.6718   42.4541  -10.4139 C   0  0  0  0  0  0  0  0  0  0  0  0
   15.6661   43.2790  -11.2602 C   0  0  0  0  0  0  0  0  0  0  0  0
   13.4481   42.1491  -11.2987 C   0  0  0  0  0  0  0  0  0  0  0  0
   14.1998   43.3178   -9.2334 C   0  0  0  0  0  0  0  0  0  0  0  0
   22.0598   39.3529   -5.7336 O   0  0  0  0  0  0  0  0  0  0  0  0
   17.4685   43.8389   -7.5387 C   0  0  0  0  0  0  0  0  0  0  0  0
   19.2887   45.8492   -9.1141 C   0  0  0  0  0  0  0  0  0  0  0  0
   23.6939   43.5675   -4.5622 H   0  0  0  0  0  0  0  0  0  0  0  0
   18.8366   44.3759   -6.0416 H   0  0  0  0  0  0  0  0  0  0  0  0
   21.9668   41.6019   -7.3330 H   0  0  0  0  0  0  0  0  0  0  0  0
   20.1813   40.0417   -5.4353 H   0  0  0  0  0  0  0  0  0  0  0  0
   22.3746   45.4175   -4.4385 H   0  0  0  0  0  0  0  0  0  0  0  0
   21.2890   44.1010   -4.0427 H   0  0  0  0  0  0  0  0  0  0  0  0
   21.2048   44.8716   -5.6101 H   0  0  0  0  0  0  0  0  0  0  0  0
   24.7484   43.6607   -6.5191 H   0  0  0  0  0  0  0  0  0  0  0  0
   23.3725   43.1883   -7.4422 H   0  0  0  0  0  0  0  0  0  0  0  0
   22.4539   45.5037   -7.3572 H   0  0  0  0  0  0  0  0  0  0  0  0
   23.9026   45.2748   -8.2704 H   0  0  0  0  0  0  0  0  0  0  0  0
   23.9197   46.4618   -5.4490 H   0  0  0  0  0  0  0  0  0  0  0  0
   25.3024   46.1810   -6.4378 H   0  0  0  0  0  0  0  0  0  0  0  0
   24.6439   47.8376   -8.0653 H   0  0  0  0  0  0  0  0  0  0  0  0
   24.5640   48.5470   -6.4786 H   0  0  0  0  0  0  0  0  0  0  0  0
   22.6663   49.2614   -7.8540 H   0  0  0  0  0  0  0  0  0  0  0  0
   22.2202   47.6159   -8.1984 H   0  0  0  0  0  0  0  0  0  0  0  0
   22.1630   48.8955   -5.4062 H   0  0  0  0  0  0  0  0  0  0  0  0
   21.6046   47.2904   -5.7500 H   0  0  0  0  0  0  0  0  0  0  0  0
   20.0555   48.1338   -8.3571 H   0  0  0  0  0  0  0  0  0  0  0  0
   18.6713   48.7588   -7.5149 H   0  0  0  0  0  0  0  0  0  0  0  0
   19.6507   42.4525   -5.6386 H   0  0  0  0  0  0  0  0  0  0  0  0
   21.9117   41.9218   -4.3013 H   0  0  0  0  0  0  0  0  0  0  0  0
   23.2599   41.4229   -5.2386 H   0  0  0  0  0  0  0  0  0  0  0  0
   20.3532   38.3602   -7.3224 H   0  0  0  0  0  0  0  0  0  0  0  0
   21.2737   39.5276   -8.2515 H   0  0  0  0  0  0  0  0  0  0  0  0
   19.3851   41.0087   -8.0171 H   0  0  0  0  0  0  0  0  0  0  0  0
   20.2604   37.9046   -9.6362 H   0  0  0  0  0  0  0  0  0  0  0  0
   18.7269   37.7799  -10.6274 H   0  0  0  0  0  0  0  0  0  0  0  0
   19.0656   40.1126  -11.4216 H   0  0  0  0  0  0  0  0  0  0  0  0
   20.5648   40.2711  -10.3638 H   0  0  0  0  0  0  0  0  0  0  0  0
   16.8061   37.8180   -8.4620 H   0  0  0  0  0  0  0  0  0  0  0  0
   14.3389   38.1397   -8.5439 H   0  0  0  0  0  0  0  0  0  0  0  0
   13.3884   40.1857   -9.4415 H   0  0  0  0  0  0  0  0  0  0  0  0
   17.3831   41.7231  -10.1314 H   0  0  0  0  0  0  0  0  0  0  0  0
   16.4763   43.6882  -10.6613 H   0  0  0  0  0  0  0  0  0  0  0  0
   15.1823   44.1274  -11.7469 H   0  0  0  0  0  0  0  0  0  0  0  0
   16.1205   42.6677  -12.0395 H   0  0  0  0  0  0  0  0  0  0  0  0
   12.6128   41.7558  -10.7173 H   0  0  0  0  0  0  0  0  0  0  0  0
   13.6849   41.3967  -12.0405 H   0  0  0  0  0  0  0  0  0  0  0  0
   13.0769   43.0395  -11.8095 H   0  0  0  0  0  0  0  0  0  0  0  0
   13.4561   42.8037   -8.6281 H   0  0  0  0  0  0  0  0  0  0  0  0
   13.7472   44.2465   -9.5760 H   0  0  0  0  0  0  0  0  0  0  0  0
   15.0226   43.5695   -8.5723 H   0  0  0  0  0  0  0  0  0  0  0  0
   22.2659   39.6295   -4.8559 H   0  0  0  0  0  0  0  0  0  0  0  0
   17.2274   42.8871   -7.0622 H   0  0  0  0  0  0  0  0  0  0  0  0
   17.4095   43.6883   -8.6189 H   0  0  0  0  0  0  0  0  0  0  0  0
   16.6945   44.5552   -7.2473 H   0  0  0  0  0  0  0  0  0  0  0  0
   18.9745   44.9649   -9.6715 H   0  0  0  0  0  0  0  0  0  0  0  0
   20.3409   46.0212   -9.3559 H   0  0  0  0  0  0  0  0  0  0  0  0
   18.6925   46.6766   -9.5081 H   0  0  0  0  0  0  0  0  0  0  0  0
  1  2  1  0  0  0  0
  1 43  1  0  0  0  0
  1 44  1  0  0  0  0
  1 45  1  0  0  0  0
  2 39  1  1  0  0  0
  2 19  1  0  0  0  0
  2  3  1  0  0  0  0
  3  4  1  0  0  0  0
  3 46  1  0  0  0  0
  3 47  1  0  0  0  0
  4  5  1  0  0  0  0
  4 48  1  0  0  0  0
  4 49  1  0  0  0  0
  5  6  1  0  0  0  0
  5 50  1  0  0  0  0
  5 51  1  0  0  0  0
  6  7  1  0  0  0  0
  6 52  1  0  0  0  0
  6 53  1  0  0  0  0
  7  8  1  0  0  0  0
  7 54  1  0  0  0  0
  7 55  1  0  0  0  0
  8  9  1  0  0  0  0
  8 56  1  0  0  0  0
  8 57  1  0  0  0  0
  9 10  1  0  0  0  0
 10 11  1  0  0  0  0
 10 58  1  0  0  0  0
 10 59  1  0  0  0  0
 11 12  2  0  0  0  0
 11 13  1  0  0  0  0
 13 14  1  0  0  0  0
 13 38  1  0  0  0  0
 14 40  1  1  0  0  0
 14 15  1  0  0  0  0
 14 37  1  0  0  0  0
 15 16  2  0  0  0  0
 15 17  1  0  0  0  0
 17 18  1  0  0  0  0
 17 60  1  0  0  0  0
 18 41  1  6  0  0  0
 18 19  1  0  0  0  0
 18 20  1  0  0  0  0
 19 61  1  0  0  0  0
 19 62  1  0  0  0  0
 20 42  1  1  0  0  0
 20 21  1  0  0  0  0
 20 36  1  0  0  0  0
 21 22  1  0  0  0  0
 21 63  1  0  0  0  0
 21 64  1  0  0  0  0
 22 23  1  0  0  0  0
 22 65  1  0  0  0  0
 23 25  1  0  0  0  0
 23 24  1  0  0  0  0
 23 26  1  0  0  0  0
 24 25  1  0  0  0  0
 24 66  1  0  0  0  0
 24 67  1  0  0  0  0
 25 68  1  0  0  0  0
 25 69  1  0  0  0  0
 26 31  1  0  0  0  0
 26 27  2  0  0  0  0
 27 28  1  0  0  0  0
 27 70  1  0  0  0  0
 28 29  2  0  0  0  0
 28 71  1  0  0  0  0
 29 30  1  0  0  0  0
 29 72  1  0  0  0  0
 30 31  2  0  0  0  0
 30 32  1  0  0  0  0
 31 73  1  0  0  0  0
 32 33  1  0  0  0  0
 32 34  1  0  0  0  0
 32 35  1  0  0  0  0
 33 74  1  0  0  0  0
 33 75  1  0  0  0  0
 33 76  1  0  0  0  0
 34 77  1  0  0  0  0
 34 78  1  0  0  0  0
 34 79  1  0  0  0  0
 35 80  1  0  0  0  0
 35 81  1  0  0  0  0
 35 82  1  0  0  0  0
 36 83  1  0  0  0  0
 37 84  1  0  0  0  0
 37 85  1  0  0  0  0
 37 86  1  0  0  0  0
 38 87  1  0  0  0  0
 38 88  1  0  0  0  0
 38 89  1  0  0  0  0
M  END
