BACE_10.smi:1
 OpenBabel09281823033D
Structure written by MMmdl.
 85 87  0  0  1  0  0  0  0  0999 V2000
   21.4519   38.3835   -8.4293 C   0  0  0  0  0  0  0  0  0  0  0  0
   20.5726   39.3655   -9.2208 C   0  0  2  0  0  0  0  0  0  0  0  0
   19.6627   38.6191  -10.2195 C   0  0  0  0  0  0  0  0  0  0  0  0
   18.5890   37.7010   -9.6145 C   0  0  0  0  0  0  0  0  0  0  0  0
   17.6050   38.4663   -8.9393 O   0  0  0  0  0  0  0  0  0  0  0  0
   16.3547   37.7957   -8.8537 C   0  0  0  0  0  0  0  0  0  0  0  0
   15.3630   38.5677   -7.9714 C   0  0  0  0  0  0  0  0  0  0  0  0
   15.2623   40.0611   -8.2967 C   0  0  0  0  0  0  0  0  0  0  0  0
   16.2409   40.8858   -7.4509 C   0  0  0  0  0  0  0  0  0  0  0  0
   16.0598   42.3132   -7.6400 N   0  0  0  0  0  0  0  0  0  0  0  0
   16.7800   43.0286   -8.6012 C   0  0  0  0  0  0  0  0  0  0  0  0
   16.8095   44.4338   -8.5022 C   0  0  0  0  0  0  0  0  0  0  0  0
   17.5125   45.2062   -9.4506 C   0  0  0  0  0  0  0  0  0  0  0  0
   18.1740   44.5622  -10.5178 C   0  0  0  0  0  0  0  0  0  0  0  0
   18.1658   43.1552  -10.6093 C   0  0  0  0  0  0  0  0  0  0  0  0
   17.4648   42.3920   -9.6571 C   0  0  0  0  0  0  0  0  0  0  0  0
   18.8854   42.4648  -11.7236 C   0  0  0  0  0  0  0  0  0  0  0  0
   18.4603   42.5571  -12.8702 O   0  0  0  0  0  0  0  0  0  0  0  0
   19.9828   41.7502  -11.4236 N   0  0  0  0  0  0  0  0  0  0  0  0
   20.7457   41.7802  -10.1723 C   0  0  1  0  0  0  0  0  0  0  0  0
   21.4593   40.4281   -9.9235 C   0  0  0  0  0  0  0  0  0  0  0  0
   21.6662   43.0337  -10.1691 C   0  0  1  0  0  0  0  0  0  0  0  0
   22.3650   43.3821   -8.8267 C   0  0  0  0  0  0  0  0  0  0  0  0
   21.5740   44.2357   -7.9231 N   0  0  0  0  0  0  0  0  0  0  0  0
   20.4521   43.6514   -7.1776 C   0  0  0  0  0  0  0  0  0  0  0  0
   20.8535   42.7860   -5.9917 C   0  0  0  0  0  0  0  0  0  0  0  0
   21.4254   41.5101   -6.1804 C   0  0  0  0  0  0  0  0  0  0  0  0
   21.7798   40.7131   -5.0755 C   0  0  0  0  0  0  0  0  0  0  0  0
   21.5312   41.1746   -3.7703 C   0  0  0  0  0  0  0  0  0  0  0  0
   20.9162   42.4293   -3.5663 C   0  0  0  0  0  0  0  0  0  0  0  0
   20.6039   43.2384   -4.6796 C   0  0  0  0  0  0  0  0  0  0  0  0
   20.5355   42.8938   -2.1696 C   0  0  0  0  0  0  0  0  0  0  0  0
   21.7544   43.3501   -1.3593 C   0  0  0  0  0  0  0  0  0  0  0  0
   19.7166   41.8280   -1.4322 C   0  0  0  0  0  0  0  0  0  0  0  0
   22.6698   42.8291  -11.1460 O   0  0  0  0  0  0  0  0  0  0  0  0
   17.5516   46.7198   -9.3488 C   0  0  0  0  0  0  0  0  0  0  0  0
   17.2723   47.1932   -8.0397 O   0  0  0  0  0  0  0  0  0  0  0  0
   17.4107   48.5983   -7.9273 C   0  0  0  0  0  0  0  0  0  0  0  0
   19.9343   39.8678   -8.4924 H   0  0  0  0  0  0  0  0  0  0  0  0
   20.0452   41.8885   -9.3581 H   0  0  0  0  0  0  0  0  0  0  0  0
   21.1047   43.9127  -10.4881 H   0  0  0  0  0  0  0  0  0  0  0  0
   22.0408   37.7468   -9.0886 H   0  0  0  0  0  0  0  0  0  0  0  0
   20.8399   37.7500   -7.7910 H   0  0  0  0  0  0  0  0  0  0  0  0
   22.1462   38.9045   -7.7703 H   0  0  0  0  0  0  0  0  0  0  0  0
   19.1572   39.3258  -10.8751 H   0  0  0  0  0  0  0  0  0  0  0  0
   20.2971   38.0142  -10.8581 H   0  0  0  0  0  0  0  0  0  0  0  0
   18.1298   37.1492  -10.4348 H   0  0  0  0  0  0  0  0  0  0  0  0
   19.0128   36.9554   -8.9427 H   0  0  0  0  0  0  0  0  0  0  0  0
   15.9374   37.6847   -9.8555 H   0  0  0  0  0  0  0  0  0  0  0  0
   16.4902   36.7919   -8.4480 H   0  0  0  0  0  0  0  0  0  0  0  0
   14.3722   38.1287   -8.0862 H   0  0  0  0  0  0  0  0  0  0  0  0
   15.6182   38.4457   -6.9175 H   0  0  0  0  0  0  0  0  0  0  0  0
   15.4045   40.2332   -9.3637 H   0  0  0  0  0  0  0  0  0  0  0  0
   14.2512   40.3921   -8.0677 H   0  0  0  0  0  0  0  0  0  0  0  0
   16.0476   40.6785   -6.3986 H   0  0  0  0  0  0  0  0  0  0  0  0
   17.2772   40.5981   -7.6278 H   0  0  0  0  0  0  0  0  0  0  0  0
   15.6585   42.8134   -6.8455 H   0  0  0  0  0  0  0  0  0  0  0  0
   16.2896   44.9195   -7.6894 H   0  0  0  0  0  0  0  0  0  0  0  0
   18.7047   45.1484  -11.2546 H   0  0  0  0  0  0  0  0  0  0  0  0
   17.4606   41.3156   -9.7500 H   0  0  0  0  0  0  0  0  0  0  0  0
   20.4236   41.2649  -12.1893 H   0  0  0  0  0  0  0  0  0  0  0  0
   22.3298   40.6115   -9.2955 H   0  0  0  0  0  0  0  0  0  0  0  0
   21.8752   40.0283  -10.8504 H   0  0  0  0  0  0  0  0  0  0  0  0
   22.7404   42.4993   -8.3160 H   0  0  0  0  0  0  0  0  0  0  0  0
   23.2654   43.9467   -9.0711 H   0  0  0  0  0  0  0  0  0  0  0  0
   21.2695   45.0750   -8.4076 H   0  0  0  0  0  0  0  0  0  0  0  0
   19.8539   44.4702   -6.7772 H   0  0  0  0  0  0  0  0  0  0  0  0
   19.7601   43.1159   -7.8147 H   0  0  0  0  0  0  0  0  0  0  0  0
   21.5884   41.1295   -7.1732 H   0  0  0  0  0  0  0  0  0  0  0  0
   22.2210   39.7384   -5.2284 H   0  0  0  0  0  0  0  0  0  0  0  0
   21.7900   40.5487   -2.9297 H   0  0  0  0  0  0  0  0  0  0  0  0
   20.1371   44.1995   -4.5254 H   0  0  0  0  0  0  0  0  0  0  0  0
   19.8751   43.7500   -2.2788 H   0  0  0  0  0  0  0  0  0  0  0  0
   22.3097   44.1460   -1.8525 H   0  0  0  0  0  0  0  0  0  0  0  0
   22.4597   42.5499   -1.2401 H   0  0  0  0  0  0  0  0  0  0  0  0
   21.4641   43.7033   -0.3698 H   0  0  0  0  0  0  0  0  0  0  0  0
   18.8599   41.5445   -2.0391 H   0  0  0  0  0  0  0  0  0  0  0  0
   19.3406   42.1976   -0.4781 H   0  0  0  0  0  0  0  0  0  0  0  0
   20.2892   40.9217   -1.2396 H   0  0  0  0  0  0  0  0  0  0  0  0
   23.1201   42.0149  -10.9708 H   0  0  0  0  0  0  0  0  0  0  0  0
   18.5423   47.0611   -9.6563 H   0  0  0  0  0  0  0  0  0  0  0  0
   16.8314   47.1351  -10.0540 H   0  0  0  0  0  0  0  0  0  0  0  0
   17.1641   48.9132   -6.9136 H   0  0  0  0  0  0  0  0  0  0  0  0
   16.7418   49.1178   -8.6141 H   0  0  0  0  0  0  0  0  0  0  0  0
   18.4356   48.9083   -8.1361 H   0  0  0  0  0  0  0  0  0  0  0  0
  1  2  1  0  0  0  0
  1 42  1  0  0  0  0
  1 43  1  0  0  0  0
  1 44  1  0  0  0  0
  2 39  1  1  0  0  0
  2 21  1  0  0  0  0
  2  3  1  0  0  0  0
  3  4  1  0  0  0  0
  3 45  1  0  0  0  0
  3 46  1  0  0  0  0
  4  5  1  0  0  0  0
  4 47  1  0  0  0  0
  4 48  1  0  0  0  0
  5  6  1  0  0  0  0
  6  7  1  0  0  0  0
  6 49  1  0  0  0  0
  6 50  1  0  0  0  0
  7  8  1  0  0  0  0
  7 51  1  0  0  0  0
  7 52  1  0  0  0  0
  8  9  1  0  0  0  0
  8 53  1  0  0  0  0
  8 54  1  0  0  0  0
  9 10  1  0  0  0  0
  9 55  1  0  0  0  0
  9 56  1  0  0  0  0
 10 11  1  0  0  0  0
 10 57  1  0  0  0  0
 11 16  1  0  0  0  0
 11 12  2  0  0  0  0
 12 13  1  0  0  0  0
 12 58  1  0  0  0  0
 13 14  2  0  0  0  0
 13 36  1  0  0  0  0
 14 15  1  0  0  0  0
 14 59  1  0  0  0  0
 15 16  2  0  0  0  0
 15 17  1  0  0  0  0
 16 60  1  0  0  0  0
 17 18  2  0  0  0  0
 17 19  1  0  0  0  0
 19 20  1  0  0  0  0
 19 61  1  0  0  0  0
 20 40  1  1  0  0  0
 20 21  1  0  0  0  0
 20 22  1  0  0  0  0
 21 62  1  0  0  0  0
 21 63  1  0  0  0  0
 22 41  1  6  0  0  0
 22 23  1  0  0  0  0
 22 35  1  0  0  0  0
 23 24  1  0  0  0  0
 23 64  1  0  0  0  0
 23 65  1  0  0  0  0
 24 25  1  0  0  0  0
 24 66  1  0  0  0  0
 25 26  1  0  0  0  0
 25 67  1  0  0  0  0
 25 68  1  0  0  0  0
 26 31  1  0  0  0  0
 26 27  2  0  0  0  0
 27 28  1  0  0  0  0
 27 69  1  0  0  0  0
 28 29  2  0  0  0  0
 28 70  1  0  0  0  0
 29 30  1  0  0  0  0
 29 71  1  0  0  0  0
 30 31  2  0  0  0  0
 30 32  1  0  0  0  0
 31 72  1  0  0  0  0
 32 33  1  0  0  0  0
 32 34  1  0  0  0  0
 32 73  1  0  0  0  0
 33 74  1  0  0  0  0
 33 75  1  0  0  0  0
 33 76  1  0  0  0  0
 34 77  1  0  0  0  0
 34 78  1  0  0  0  0
 34 79  1  0  0  0  0
 35 80  1  0  0  0  0
 36 37  1  0  0  0  0
 36 81  1  0  0  0  0
 36 82  1  0  0  0  0
 37 38  1  0  0  0  0
 38 83  1  0  0  0  0
 38 84  1  0  0  0  0
 38 85  1  0  0  0  0
M  END
