BACE_10.smi:1
 OpenBabel09281823033D
Structure written by MMmdl.
 86 88  0  0  1  0  0  0  0  0999 V2000
   20.2993   38.5498   -7.0544 C   0  0  0  0  0  0  0  0  0  0  0  0
   19.7845   39.3296   -8.2760 C   0  0  2  0  0  0  0  0  0  0  0  0
   19.1348   38.3812   -9.3183 C   0  0  0  0  0  0  0  0  0  0  0  0
   17.7645   37.8366   -8.8866 C   0  0  0  0  0  0  0  0  0  0  0  0
   16.9585   38.9625   -8.6026 O   0  0  0  0  0  0  0  0  0  0  0  0
   15.6287   38.6661   -8.2166 C   0  0  0  0  0  0  0  0  0  0  0  0
   15.1235   39.8358   -7.3585 C   0  0  0  0  0  0  0  0  0  0  0  0
   15.3969   41.2239   -7.9646 C   0  0  0  0  0  0  0  0  0  0  0  0
   14.8181   41.4078   -9.3743 C   0  0  0  0  0  0  0  0  0  0  0  0
   15.0744   42.7444   -9.8937 N   0  0  0  0  0  0  0  0  0  0  0  0
   16.2278   43.0727  -10.6214 C   0  0  0  0  0  0  0  0  0  0  0  0
   16.3005   44.3768  -11.1526 C   0  0  0  0  0  0  0  0  0  0  0  0
   17.3904   44.7766  -11.9500 C   0  0  0  0  0  0  0  0  0  0  0  0
   18.4266   43.8571  -12.2135 C   0  0  0  0  0  0  0  0  0  0  0  0
   18.3908   42.5584  -11.6652 C   0  0  0  0  0  0  0  0  0  0  0  0
   17.2903   42.1652  -10.8670 C   0  0  0  0  0  0  0  0  0  0  0  0
   19.4629   41.5802  -12.0448 C   0  0  0  0  0  0  0  0  0  0  0  0
   19.6647   41.3500  -13.2340 O   0  0  0  0  0  0  0  0  0  0  0  0
   20.1989   40.9813  -11.0920 N   0  0  0  0  0  0  0  0  0  0  0  0
   20.4438   41.4199   -9.7151 C   0  0  1  0  0  0  0  0  0  0  0  0
   20.9128   40.2078   -8.8629 C   0  0  0  0  0  0  0  0  0  0  0  0
   21.4971   42.5737   -9.6674 C   0  0  1  0  0  0  0  0  0  0  0  0
   22.6751   42.5025  -10.6727 C   0  0  0  0  0  0  0  0  0  0  0  0
   23.5834   41.3560  -10.4400 N   0  3  0  0  0  0  0  0  0  0  0  0
   24.5732   41.5036   -9.3495 C   0  0  0  0  0  0  0  0  0  0  0  0
   25.6522   42.5308   -9.6426 C   0  0  0  0  0  0  0  0  0  0  0  0
   25.5602   43.8318   -9.1040 C   0  0  0  0  0  0  0  0  0  0  0  0
   26.5871   44.7640   -9.3412 C   0  0  0  0  0  0  0  0  0  0  0  0
   27.7039   44.4019  -10.1166 C   0  0  0  0  0  0  0  0  0  0  0  0
   27.8110   43.1051  -10.6604 C   0  0  0  0  0  0  0  0  0  0  0  0
   26.7767   42.1706  -10.4234 C   0  0  0  0  0  0  0  0  0  0  0  0
   29.0477   42.7445  -11.4819 C   0  0  0  0  0  0  0  0  0  0  0  0
   28.7000   42.0018  -12.7784 C   0  0  0  0  0  0  0  0  0  0  0  0
   30.0598   41.9377  -10.6608 C   0  0  0  0  0  0  0  0  0  0  0  0
   20.8335   43.8065   -9.8643 O   0  0  0  0  0  0  0  0  0  0  0  0
   17.4267   46.1873  -12.5117 C   0  0  0  0  0  0  0  0  0  0  0  0
   18.4549   46.3736  -13.4681 O   0  0  0  0  0  0  0  0  0  0  0  0
   18.4395   47.6676  -14.0469 C   0  0  0  0  0  0  0  0  0  0  0  0
   19.0228   40.0144   -7.8994 H   0  0  0  0  0  0  0  0  0  0  0  0
   19.5156   41.7816   -9.2697 H   0  0  0  0  0  0  0  0  0  0  0  0
   21.8974   42.6551   -8.6573 H   0  0  0  0  0  0  0  0  0  0  0  0
   21.1053   37.8692   -7.3222 H   0  0  0  0  0  0  0  0  0  0  0  0
   19.5068   37.9666   -6.5885 H   0  0  0  0  0  0  0  0  0  0  0  0
   20.6810   39.2234   -6.2854 H   0  0  0  0  0  0  0  0  0  0  0  0
   18.9759   38.9044  -10.2586 H   0  0  0  0  0  0  0  0  0  0  0  0
   19.8082   37.5546   -9.5472 H   0  0  0  0  0  0  0  0  0  0  0  0
   17.3187   37.2452   -9.6900 H   0  0  0  0  0  0  0  0  0  0  0  0
   17.8493   37.1940   -8.0093 H   0  0  0  0  0  0  0  0  0  0  0  0
   15.0120   38.5232   -9.1076 H   0  0  0  0  0  0  0  0  0  0  0  0
   15.5687   37.7473   -7.6400 H   0  0  0  0  0  0  0  0  0  0  0  0
   14.0579   39.7094   -7.1671 H   0  0  0  0  0  0  0  0  0  0  0  0
   15.6043   39.7853   -6.3784 H   0  0  0  0  0  0  0  0  0  0  0  0
   14.9767   41.9748   -7.2945 H   0  0  0  0  0  0  0  0  0  0  0  0
   16.4724   41.4064   -7.9776 H   0  0  0  0  0  0  0  0  0  0  0  0
   15.2000   40.6552  -10.0625 H   0  0  0  0  0  0  0  0  0  0  0  0
   13.7389   41.2599   -9.3442 H   0  0  0  0  0  0  0  0  0  0  0  0
   14.3815   43.4523   -9.7040 H   0  0  0  0  0  0  0  0  0  0  0  0
   15.5024   45.0795  -10.9644 H   0  0  0  0  0  0  0  0  0  0  0  0
   19.2593   44.1509  -12.8382 H   0  0  0  0  0  0  0  0  0  0  0  0
   17.2612   41.1580  -10.4758 H   0  0  0  0  0  0  0  0  0  0  0  0
   20.7876   40.2347  -11.4305 H   0  0  0  0  0  0  0  0  0  0  0  0
   21.4754   40.5938   -8.0129 H   0  0  0  0  0  0  0  0  0  0  0  0
   21.6200   39.5858   -9.4116 H   0  0  0  0  0  0  0  0  0  0  0  0
   22.2994   42.4341  -11.6944 H   0  0  0  0  0  0  0  0  0  0  0  0
   23.2463   43.4318  -10.6466 H   0  0  0  0  0  0  0  0  0  0  0  0
   23.0301   40.5308  -10.2590 H   0  0  0  0  0  0  0  0  0  0  0  0
   24.0782   41.7295   -8.4030 H   0  0  0  0  0  0  0  0  0  0  0  0
   25.0666   40.5474   -9.2153 H   0  0  0  0  0  0  0  0  0  0  0  0
   24.7118   44.1149   -8.4987 H   0  0  0  0  0  0  0  0  0  0  0  0
   26.5206   45.7576   -8.9251 H   0  0  0  0  0  0  0  0  0  0  0  0
   28.4870   45.1278  -10.2825 H   0  0  0  0  0  0  0  0  0  0  0  0
   26.8555   41.1645  -10.8138 H   0  0  0  0  0  0  0  0  0  0  0  0
   29.5309   43.6810  -11.7700 H   0  0  0  0  0  0  0  0  0  0  0  0
   27.9489   42.5466  -13.3479 H   0  0  0  0  0  0  0  0  0  0  0  0
   28.3156   41.0039  -12.5712 H   0  0  0  0  0  0  0  0  0  0  0  0
   29.5792   41.8848  -13.4112 H   0  0  0  0  0  0  0  0  0  0  0  0
   30.3021   42.4372   -9.7210 H   0  0  0  0  0  0  0  0  0  0  0  0
   30.9872   41.7953  -11.2148 H   0  0  0  0  0  0  0  0  0  0  0  0
   29.6602   40.9502  -10.4403 H   0  0  0  0  0  0  0  0  0  0  0  0
   20.1224   43.8762   -9.2423 H   0  0  0  0  0  0  0  0  0  0  0  0
   16.4575   46.3975  -12.9694 H   0  0  0  0  0  0  0  0  0  0  0  0
   17.5572   46.8868  -11.6844 H   0  0  0  0  0  0  0  0  0  0  0  0
   19.2517   47.7560  -14.7675 H   0  0  0  0  0  0  0  0  0  0  0  0
   18.5738   48.4423  -13.2905 H   0  0  0  0  0  0  0  0  0  0  0  0
   17.5021   47.8507  -14.5742 H   0  0  0  0  0  0  0  0  0  0  0  0
   24.0713   41.1943  -11.3158 H   0  0  0  0  0  0  0  0  0  0  0  0
  1  2  1  0  0  0  0
  1 42  1  0  0  0  0
  1 43  1  0  0  0  0
  1 44  1  0  0  0  0
  2 39  1  1  0  0  0
  2 21  1  0  0  0  0
  2  3  1  0  0  0  0
  3  4  1  0  0  0  0
  3 45  1  0  0  0  0
  3 46  1  0  0  0  0
  4  5  1  0  0  0  0
  4 47  1  0  0  0  0
  4 48  1  0  0  0  0
  5  6  1  0  0  0  0
  6  7  1  0  0  0  0
  6 49  1  0  0  0  0
  6 50  1  0  0  0  0
  7  8  1  0  0  0  0
  7 51  1  0  0  0  0
  7 52  1  0  0  0  0
  8  9  1  0  0  0  0
  8 53  1  0  0  0  0
  8 54  1  0  0  0  0
  9 10  1  0  0  0  0
  9 55  1  0  0  0  0
  9 56  1  0  0  0  0
 10 11  1  0  0  0  0
 10 57  1  0  0  0  0
 11 16  1  0  0  0  0
 11 12  2  0  0  0  0
 12 13  1  0  0  0  0
 12 58  1  0  0  0  0
 13 14  2  0  0  0  0
 13 36  1  0  0  0  0
 14 15  1  0  0  0  0
 14 59  1  0  0  0  0
 15 16  2  0  0  0  0
 15 17  1  0  0  0  0
 16 60  1  0  0  0  0
 17 18  2  0  0  0  0
 17 19  1  0  0  0  0
 19 20  1  0  0  0  0
 19 61  1  0  0  0  0
 20 40  1  1  0  0  0
 20 21  1  0  0  0  0
 20 22  1  0  0  0  0
 21 62  1  0  0  0  0
 21 63  1  0  0  0  0
 22 41  1  1  0  0  0
 22 23  1  0  0  0  0
 22 35  1  0  0  0  0
 23 24  1  0  0  0  0
 23 64  1  0  0  0  0
 23 65  1  0  0  0  0
 24 25  1  0  0  0  0
 24 66  1  0  0  0  0
 24 86  1  0  0  0  0
 25 26  1  0  0  0  0
 25 67  1  0  0  0  0
 25 68  1  0  0  0  0
 26 31  1  0  0  0  0
 26 27  2  0  0  0  0
 27 28  1  0  0  0  0
 27 69  1  0  0  0  0
 28 29  2  0  0  0  0
 28 70  1  0  0  0  0
 29 30  1  0  0  0  0
 29 71  1  0  0  0  0
 30 31  2  0  0  0  0
 30 32  1  0  0  0  0
 31 72  1  0  0  0  0
 32 33  1  0  0  0  0
 32 34  1  0  0  0  0
 32 73  1  0  0  0  0
 33 74  1  0  0  0  0
 33 75  1  0  0  0  0
 33 76  1  0  0  0  0
 34 77  1  0  0  0  0
 34 78  1  0  0  0  0
 34 79  1  0  0  0  0
 35 80  1  0  0  0  0
 36 37  1  0  0  0  0
 36 81  1  0  0  0  0
 36 82  1  0  0  0  0
 37 38  1  0  0  0  0
 38 83  1  0  0  0  0
 38 84  1  0  0  0  0
 38 85  1  0  0  0  0
M  CHG  1  24   1
M  END
