BACE_14.smi:1
 OpenBabel09281823033D
Structure written by MMmdl.
 86 90  0  0  1  0  0  0  0  0999 V2000
   21.6935   38.4348   -8.7012 C   0  0  0  0  0  0  0  0  0  0  0  0
   20.9072   39.6463   -8.1802 C   0  0  0  0  0  0  0  0  0  0  0  0
   21.6778   40.9620   -8.3760 C   0  0  0  0  0  0  0  0  0  0  0  0
   19.5367   39.6988   -8.8288 C   0  0  0  0  0  0  0  0  0  0  0  0
   19.4053   39.5274  -10.2193 C   0  0  0  0  0  0  0  0  0  0  0  0
   18.1290   39.4332  -10.7918 C   0  0  0  0  0  0  0  0  0  0  0  0
   16.9772   39.5136   -9.9886 C   0  0  0  0  0  0  0  0  0  0  0  0
   17.0983   39.7731   -8.6054 C   0  0  0  0  0  0  0  0  0  0  0  0
   18.3849   39.8501   -8.0322 C   0  0  0  0  0  0  0  0  0  0  0  0
   15.8870   39.9905   -7.7521 C   0  0  0  0  0  0  0  0  0  0  0  0
   15.7490   39.3478   -6.4011 C   0  0  0  0  0  0  0  0  0  0  0  0
   14.8757   38.8854   -7.5431 C   0  0  0  0  0  0  0  0  0  0  0  0
   15.2624   41.3403   -7.8060 N   0  3  0  0  0  0  0  0  0  0  0  0
   16.1539   42.5323   -7.8843 C   0  0  0  0  0  0  0  0  0  0  0  0
   16.7615   42.8400   -9.2787 C   0  0  2  0  0  0  0  0  0  0  0  0
   17.8342   43.9635   -9.2969 C   0  0  2  0  0  0  0  0  0  0  0  0
   18.5803   43.9860  -10.6575 C   0  0  0  0  0  0  0  0  0  0  0  0
   19.6966   45.0089  -10.7655 C   0  0  0  0  0  0  0  0  0  0  0  0
   19.3968   46.3455  -11.0923 C   0  0  0  0  0  0  0  0  0  0  0  0
   20.4338   47.2858  -11.2236 C   0  0  0  0  0  0  0  0  0  0  0  0
   21.7726   46.9003  -11.0126 C   0  0  0  0  0  0  0  0  0  0  0  0
   22.0858   45.5633  -10.6663 C   0  0  0  0  0  0  0  0  0  0  0  0
   21.0380   44.6250  -10.5572 C   0  0  0  0  0  0  0  0  0  0  0  0
   23.3616   45.0969  -10.4262 O   0  0  0  0  0  0  0  0  0  0  0  0
   24.4450   46.0145  -10.2963 C   0  0  0  0  0  0  0  0  0  0  0  0
   24.3809   46.8037   -8.9731 C   0  0  0  0  0  0  0  0  0  0  0  0
   24.3214   45.8973   -7.7334 C   0  0  0  0  0  0  0  0  0  0  0  0
   24.0040   46.6795   -6.4441 C   0  0  0  0  0  0  0  0  0  0  0  0
   23.6296   45.8112   -5.3324 N   0  0  0  0  0  0  0  0  0  0  0  0
   22.4853   45.0056   -5.4387 C   0  0  0  0  0  0  0  0  0  0  0  0
   21.3970   45.3289   -6.2846 C   0  0  0  0  0  0  0  0  0  0  0  0
   20.3127   44.4395   -6.4317 C   0  0  0  0  0  0  0  0  0  0  0  0
   20.2932   43.2470   -5.6808 C   0  0  0  0  0  0  0  0  0  0  0  0
   21.3340   42.9508   -4.7750 C   0  0  0  0  0  0  0  0  0  0  0  0
   22.4415   43.8189   -4.6817 C   0  0  0  0  0  0  0  0  0  0  0  0
   21.2803   41.7212   -3.9547 C   0  0  0  0  0  0  0  0  0  0  0  0
   20.8559   40.6425   -4.3606 O   0  0  0  0  0  0  0  0  0  0  0  0
   21.7523   41.8566   -2.5091 C   0  0  0  0  0  0  0  0  0  0  0  0
   19.1816   44.7857   -7.3557 C   0  0  0  0  0  0  0  0  0  0  0  0
   18.7024   45.9203   -7.3573 O   0  0  0  0  0  0  0  0  0  0  0  0
   18.7967   43.8098   -8.1967 N   0  0  0  0  0  0  0  0  0  0  0  0
   15.7061   43.2172  -10.1451 O   0  0  0  0  0  0  0  0  0  0  0  0
   17.2369   41.9763   -9.7151 H   0  0  0  0  0  0  0  0  0  0  0  0
   17.3155   44.9184   -9.1804 H   0  0  0  0  0  0  0  0  0  0  0  0
   22.4747   38.1630   -8.0046 H   0  0  0  0  0  0  0  0  0  0  0  0
   22.1465   38.6251   -9.6751 H   0  0  0  0  0  0  0  0  0  0  0  0
   21.0519   37.5616   -8.8126 H   0  0  0  0  0  0  0  0  0  0  0  0
   20.7550   39.4961   -7.1100 H   0  0  0  0  0  0  0  0  0  0  0  0
   22.6433   40.9301   -7.8721 H   0  0  0  0  0  0  0  0  0  0  0  0
   21.1240   41.8060   -7.9747 H   0  0  0  0  0  0  0  0  0  0  0  0
   21.8593   41.1643   -9.4309 H   0  0  0  0  0  0  0  0  0  0  0  0
   20.2782   39.4293  -10.8466 H   0  0  0  0  0  0  0  0  0  0  0  0
   18.0601   39.2809  -11.8568 H   0  0  0  0  0  0  0  0  0  0  0  0
   16.0010   39.4252  -10.4456 H   0  0  0  0  0  0  0  0  0  0  0  0
   18.4879   40.0084   -6.9672 H   0  0  0  0  0  0  0  0  0  0  0  0
   16.5400   38.6768   -6.0734 H   0  0  0  0  0  0  0  0  0  0  0  0
   15.2589   39.9027   -5.6052 H   0  0  0  0  0  0  0  0  0  0  0  0
   13.8191   39.1332   -7.4667 H   0  0  0  0  0  0  0  0  0  0  0  0
   15.0949   37.8975   -7.9443 H   0  0  0  0  0  0  0  0  0  0  0  0
   14.7525   41.4280   -6.9333 H   0  0  0  0  0  0  0  0  0  0  0  0
   16.9087   42.4371   -7.1050 H   0  0  0  0  0  0  0  0  0  0  0  0
   15.5523   43.4067   -7.6395 H   0  0  0  0  0  0  0  0  0  0  0  0
   19.0059   43.0006  -10.8681 H   0  0  0  0  0  0  0  0  0  0  0  0
   17.8684   44.1756  -11.4643 H   0  0  0  0  0  0  0  0  0  0  0  0
   18.3743   46.6517  -11.2483 H   0  0  0  0  0  0  0  0  0  0  0  0
   20.2020   48.3077  -11.4841 H   0  0  0  0  0  0  0  0  0  0  0  0
   22.5418   47.6475  -11.1181 H   0  0  0  0  0  0  0  0  0  0  0  0
   21.2739   43.6032  -10.2948 H   0  0  0  0  0  0  0  0  0  0  0  0
   25.3635   45.4274  -10.3170 H   0  0  0  0  0  0  0  0  0  0  0  0
   24.5065   46.6787  -11.1590 H   0  0  0  0  0  0  0  0  0  0  0  0
   25.2472   47.4606   -8.8969 H   0  0  0  0  0  0  0  0  0  0  0  0
   23.5089   47.4556   -8.9821 H   0  0  0  0  0  0  0  0  0  0  0  0
   23.5554   45.1435   -7.9045 H   0  0  0  0  0  0  0  0  0  0  0  0
   25.2563   45.3496   -7.6169 H   0  0  0  0  0  0  0  0  0  0  0  0
   24.8804   47.2571   -6.1483 H   0  0  0  0  0  0  0  0  0  0  0  0
   23.2137   47.4088   -6.6134 H   0  0  0  0  0  0  0  0  0  0  0  0
   24.3861   45.4532   -4.7613 H   0  0  0  0  0  0  0  0  0  0  0  0
   21.4024   46.2436   -6.8573 H   0  0  0  0  0  0  0  0  0  0  0  0
   19.4523   42.5784   -5.7719 H   0  0  0  0  0  0  0  0  0  0  0  0
   23.2704   43.5743   -4.0302 H   0  0  0  0  0  0  0  0  0  0  0  0
   21.5884   42.8677   -2.1392 H   0  0  0  0  0  0  0  0  0  0  0  0
   22.8134   41.6330   -2.4418 H   0  0  0  0  0  0  0  0  0  0  0  0
   21.2101   41.1704   -1.8610 H   0  0  0  0  0  0  0  0  0  0  0  0
   19.2727   42.9222   -8.1171 H   0  0  0  0  0  0  0  0  0  0  0  0
   15.2500   42.4420  -10.4365 H   0  0  0  0  0  0  0  0  0  0  0  0
   14.5918   41.3571   -8.5587 H   0  0  0  0  0  0  0  0  0  0  0  0
  1  2  1  0  0  0  0
  1 45  1  0  0  0  0
  1 46  1  0  0  0  0
  1 47  1  0  0  0  0
  2  3  1  0  0  0  0
  2  4  1  0  0  0  0
  2 48  1  0  0  0  0
  3 49  1  0  0  0  0
  3 50  1  0  0  0  0
  3 51  1  0  0  0  0
  4  9  1  0  0  0  0
  4  5  2  0  0  0  0
  5  6  1  0  0  0  0
  5 52  1  0  0  0  0
  6  7  2  0  0  0  0
  6 53  1  0  0  0  0
  7  8  1  0  0  0  0
  7 54  1  0  0  0  0
  8  9  2  0  0  0  0
  8 10  1  0  0  0  0
  9 55  1  0  0  0  0
 10 12  1  0  0  0  0
 10 11  1  0  0  0  0
 10 13  1  0  0  0  0
 11 12  1  0  0  0  0
 11 56  1  0  0  0  0
 11 57  1  0  0  0  0
 12 58  1  0  0  0  0
 12 59  1  0  0  0  0
 13 14  1  0  0  0  0
 13 60  1  0  0  0  0
 13 86  1  0  0  0  0
 14 15  1  0  0  0  0
 14 61  1  0  0  0  0
 14 62  1  0  0  0  0
 15 43  1  6  0  0  0
 15 16  1  0  0  0  0
 15 42  1  0  0  0  0
 16 44  1  1  0  0  0
 16 41  1  0  0  0  0
 16 17  1  0  0  0  0
 17 18  1  0  0  0  0
 17 63  1  0  0  0  0
 17 64  1  0  0  0  0
 18 23  1  0  0  0  0
 18 19  2  0  0  0  0
 19 20  1  0  0  0  0
 19 65  1  0  0  0  0
 20 21  2  0  0  0  0
 20 66  1  0  0  0  0
 21 22  1  0  0  0  0
 21 67  1  0  0  0  0
 22 23  2  0  0  0  0
 22 24  1  0  0  0  0
 23 68  1  0  0  0  0
 24 25  1  0  0  0  0
 25 26  1  0  0  0  0
 25 69  1  0  0  0  0
 25 70  1  0  0  0  0
 26 27  1  0  0  0  0
 26 71  1  0  0  0  0
 26 72  1  0  0  0  0
 27 28  1  0  0  0  0
 27 73  1  0  0  0  0
 27 74  1  0  0  0  0
 28 29  1  0  0  0  0
 28 75  1  0  0  0  0
 28 76  1  0  0  0  0
 29 30  1  0  0  0  0
 29 77  1  0  0  0  0
 30 35  1  0  0  0  0
 30 31  2  0  0  0  0
 31 32  1  0  0  0  0
 31 78  1  0  0  0  0
 32 33  2  0  0  0  0
 32 39  1  0  0  0  0
 33 34  1  0  0  0  0
 33 79  1  0  0  0  0
 34 35  2  0  0  0  0
 34 36  1  0  0  0  0
 35 80  1  0  0  0  0
 36 37  2  0  0  0  0
 36 38  1  0  0  0  0
 38 81  1  0  0  0  0
 38 82  1  0  0  0  0
 38 83  1  0  0  0  0
 39 40  2  0  0  0  0
 39 41  1  0  0  0  0
 41 84  1  0  0  0  0
 42 85  1  0  0  0  0
M  CHG  1  13   1
M  END
