BACE_15.smi:1
 OpenBabel09281823033D
Structure written by MMmdl.
 82 85  0  0  1  0  0  0  0  0999 V2000
   16.6672   36.2623   -9.2581 C   0  0  0  0  0  0  0  0  0  0  0  0
   16.6456   37.7216   -8.8017 C   0  0  0  0  0  0  0  0  0  0  0  0
   16.1351   38.6792   -9.8850 C   0  0  0  0  0  0  0  0  0  0  0  0
   18.0044   38.1602   -8.2781 C   0  0  0  0  0  0  0  0  0  0  0  0
   18.1054   38.6012   -6.9471 C   0  0  0  0  0  0  0  0  0  0  0  0
   19.3481   39.0047   -6.4387 C   0  0  0  0  0  0  0  0  0  0  0  0
   20.4999   38.9579   -7.2369 C   0  0  0  0  0  0  0  0  0  0  0  0
   20.4113   38.5575   -8.5787 C   0  0  0  0  0  0  0  0  0  0  0  0
   19.1610   38.1438   -9.0967 C   0  0  0  0  0  0  0  0  0  0  0  0
   21.6678   38.6131   -9.4291 C   0  0  0  0  0  0  0  0  0  0  0  0
   21.7477   39.8379  -10.2134 N   0  0  0  0  0  0  0  0  0  0  0  0
   21.0191   39.7829  -11.4763 C   0  0  0  0  0  0  0  0  0  0  0  0
   20.4913   41.1589  -11.9120 C   0  0  2  0  0  0  0  0  0  0  0  0
   19.2997   41.6521  -11.0352 C   0  0  2  0  0  0  0  0  0  0  0  0
   18.4084   42.7490  -11.6900 C   0  0  0  0  0  0  0  0  0  0  0  0
   17.3257   43.2750  -10.7545 C   0  0  0  0  0  0  0  0  0  0  0  0
   16.2213   42.4583  -10.4415 C   0  0  0  0  0  0  0  0  0  0  0  0
   15.2742   42.8863   -9.4948 C   0  0  0  0  0  0  0  0  0  0  0  0
   15.4289   44.1327   -8.8596 C   0  0  0  0  0  0  0  0  0  0  0  0
   16.5105   44.9799   -9.1788 C   0  0  0  0  0  0  0  0  0  0  0  0
   17.4491   44.5472  -10.1523 C   0  0  0  0  0  0  0  0  0  0  0  0
   16.5787   46.1679   -8.4815 O   0  0  0  0  0  0  0  0  0  0  0  0
   17.6188   47.1022   -8.7563 C   0  0  0  0  0  0  0  0  0  0  0  0
   17.8212   47.9674   -7.5021 C   0  0  0  0  0  0  0  0  0  0  0  0
   18.4618   47.1787   -6.3438 C   0  0  0  0  0  0  0  0  0  0  0  0
   19.9977   47.2727   -6.3194 C   0  0  0  0  0  0  0  0  0  0  0  0
   20.5560   46.2278   -5.5290 O   0  0  0  0  0  0  0  0  0  0  0  0
   20.7339   44.9753   -6.0798 C   0  0  0  0  0  0  0  0  0  0  0  0
   21.1929   43.9484   -5.2300 C   0  0  0  0  0  0  0  0  0  0  0  0
   21.4255   42.6455   -5.7119 C   0  0  0  0  0  0  0  0  0  0  0  0
   21.1993   42.3642   -7.0769 C   0  0  0  0  0  0  0  0  0  0  0  0
   20.7254   43.3730   -7.9413 C   0  0  0  0  0  0  0  0  0  0  0  0
   20.5035   44.6692   -7.4405 C   0  0  0  0  0  0  0  0  0  0  0  0
   20.5016   43.1161   -9.3983 C   0  0  0  0  0  0  0  0  0  0  0  0
   20.9165   43.9130  -10.2399 O   0  0  0  0  0  0  0  0  0  0  0  0
   19.7479   42.0451   -9.6935 N   0  0  0  0  0  0  0  0  0  0  0  0
   21.9823   41.5737   -4.7824 C   0  0  0  0  0  0  0  0  0  0  0  0
   21.6992   41.7801   -3.4034 O   0  0  0  0  0  0  0  0  0  0  0  0
   20.3507   41.5155   -3.0495 C   0  0  0  0  0  0  0  0  0  0  0  0
   20.0599   40.9546  -13.2368 O   0  0  0  0  0  0  0  0  0  0  0  0
   21.2981   41.8925  -11.9416 H   0  0  0  0  0  0  0  0  0  0  0  0
   18.6448   40.7955  -10.8680 H   0  0  0  0  0  0  0  0  0  0  0  0
   16.9297   35.6034   -8.4302 H   0  0  0  0  0  0  0  0  0  0  0  0
   17.4078   36.1277  -10.0399 H   0  0  0  0  0  0  0  0  0  0  0  0
   15.6937   35.9532   -9.6415 H   0  0  0  0  0  0  0  0  0  0  0  0
   15.9317   37.7649   -7.9778 H   0  0  0  0  0  0  0  0  0  0  0  0
   16.0247   39.6821   -9.4736 H   0  0  0  0  0  0  0  0  0  0  0  0
   15.1582   38.3714  -10.2563 H   0  0  0  0  0  0  0  0  0  0  0  0
   16.8189   38.7386  -10.7309 H   0  0  0  0  0  0  0  0  0  0  0  0
   17.2327   38.6301   -6.3092 H   0  0  0  0  0  0  0  0  0  0  0  0
   19.4117   39.3493   -5.4178 H   0  0  0  0  0  0  0  0  0  0  0  0
   21.4527   39.2523   -6.8268 H   0  0  0  0  0  0  0  0  0  0  0  0
   19.0809   37.8107  -10.1193 H   0  0  0  0  0  0  0  0  0  0  0  0
   22.5326   38.5544   -8.7673 H   0  0  0  0  0  0  0  0  0  0  0  0
   21.7295   37.7495  -10.0713 H   0  0  0  0  0  0  0  0  0  0  0  0
   22.7193   40.0896  -10.3743 H   0  0  0  0  0  0  0  0  0  0  0  0
   21.6641   39.3680  -12.2495 H   0  0  0  0  0  0  0  0  0  0  0  0
   20.1758   39.0986  -11.4110 H   0  0  0  0  0  0  0  0  0  0  0  0
   19.0237   43.5789  -12.0386 H   0  0  0  0  0  0  0  0  0  0  0  0
   17.9207   42.3509  -12.5790 H   0  0  0  0  0  0  0  0  0  0  0  0
   16.1177   41.4876  -10.9020 H   0  0  0  0  0  0  0  0  0  0  0  0
   14.4443   42.2453   -9.2328 H   0  0  0  0  0  0  0  0  0  0  0  0
   14.7180   44.4359   -8.1054 H   0  0  0  0  0  0  0  0  0  0  0  0
   18.3002   45.1489  -10.4261 H   0  0  0  0  0  0  0  0  0  0  0  0
   18.5705   46.6398   -9.0036 H   0  0  0  0  0  0  0  0  0  0  0  0
   17.3218   47.7200   -9.6042 H   0  0  0  0  0  0  0  0  0  0  0  0
   18.4369   48.8347   -7.7424 H   0  0  0  0  0  0  0  0  0  0  0  0
   16.8601   48.3697   -7.1869 H   0  0  0  0  0  0  0  0  0  0  0  0
   18.0787   47.5479   -5.3923 H   0  0  0  0  0  0  0  0  0  0  0  0
   18.1471   46.1358   -6.3995 H   0  0  0  0  0  0  0  0  0  0  0  0
   20.4345   47.3136   -7.3168 H   0  0  0  0  0  0  0  0  0  0  0  0
   20.2797   48.2198   -5.8589 H   0  0  0  0  0  0  0  0  0  0  0  0
   21.3804   44.1554   -4.1878 H   0  0  0  0  0  0  0  0  0  0  0  0
   21.4166   41.3846   -7.4709 H   0  0  0  0  0  0  0  0  0  0  0  0
   20.1590   45.4134   -8.1369 H   0  0  0  0  0  0  0  0  0  0  0  0
   19.4559   41.4551   -8.9266 H   0  0  0  0  0  0  0  0  0  0  0  0
   21.6407   40.5868   -5.0826 H   0  0  0  0  0  0  0  0  0  0  0  0
   23.0654   41.5735   -4.8945 H   0  0  0  0  0  0  0  0  0  0  0  0
   20.2209   41.6475   -1.9757 H   0  0  0  0  0  0  0  0  0  0  0  0
   20.0672   40.4916   -3.2950 H   0  0  0  0  0  0  0  0  0  0  0  0
   19.6644   42.1982   -3.5508 H   0  0  0  0  0  0  0  0  0  0  0  0
   19.4478   40.2319  -13.2365 H   0  0  0  0  0  0  0  0  0  0  0  0
  1  2  1  0  0  0  0
  1 43  1  0  0  0  0
  1 44  1  0  0  0  0
  1 45  1  0  0  0  0
  2  3  1  0  0  0  0
  2  4  1  0  0  0  0
  2 46  1  0  0  0  0
  3 47  1  0  0  0  0
  3 48  1  0  0  0  0
  3 49  1  0  0  0  0
  4  9  1  0  0  0  0
  4  5  2  0  0  0  0
  5  6  1  0  0  0  0
  5 50  1  0  0  0  0
  6  7  2  0  0  0  0
  6 51  1  0  0  0  0
  7  8  1  0  0  0  0
  7 52  1  0  0  0  0
  8  9  2  0  0  0  0
  8 10  1  0  0  0  0
  9 53  1  0  0  0  0
 10 11  1  0  0  0  0
 10 54  1  0  0  0  0
 10 55  1  0  0  0  0
 11 12  1  0  0  0  0
 11 56  1  0  0  0  0
 12 13  1  0  0  0  0
 12 57  1  0  0  0  0
 12 58  1  0  0  0  0
 13 41  1  1  0  0  0
 13 14  1  0  0  0  0
 13 40  1  0  0  0  0
 14 42  1  1  0  0  0
 14 36  1  0  0  0  0
 14 15  1  0  0  0  0
 15 16  1  0  0  0  0
 15 59  1  0  0  0  0
 15 60  1  0  0  0  0
 16 21  1  0  0  0  0
 16 17  2  0  0  0  0
 17 18  1  0  0  0  0
 17 61  1  0  0  0  0
 18 19  2  0  0  0  0
 18 62  1  0  0  0  0
 19 20  1  0  0  0  0
 19 63  1  0  0  0  0
 20 21  2  0  0  0  0
 20 22  1  0  0  0  0
 21 64  1  0  0  0  0
 22 23  1  0  0  0  0
 23 24  1  0  0  0  0
 23 65  1  0  0  0  0
 23 66  1  0  0  0  0
 24 25  1  0  0  0  0
 24 67  1  0  0  0  0
 24 68  1  0  0  0  0
 25 26  1  0  0  0  0
 25 69  1  0  0  0  0
 25 70  1  0  0  0  0
 26 27  1  0  0  0  0
 26 71  1  0  0  0  0
 26 72  1  0  0  0  0
 27 28  1  0  0  0  0
 28 33  1  0  0  0  0
 28 29  2  0  0  0  0
 29 30  1  0  0  0  0
 29 73  1  0  0  0  0
 30 31  2  0  0  0  0
 30 37  1  0  0  0  0
 31 32  1  0  0  0  0
 31 74  1  0  0  0  0
 32 33  2  0  0  0  0
 32 34  1  0  0  0  0
 33 75  1  0  0  0  0
 34 35  2  0  0  0  0
 34 36  1  0  0  0  0
 36 76  1  0  0  0  0
 37 38  1  0  0  0  0
 37 77  1  0  0  0  0
 37 78  1  0  0  0  0
 38 39  1  0  0  0  0
 39 79  1  0  0  0  0
 39 80  1  0  0  0  0
 39 81  1  0  0  0  0
 40 82  1  0  0  0  0
M  END
