BACE_14.smi:1
 OpenBabel09281823033D
Structure written by MMmdl.
 86 90  0  0  1  0  0  0  0  0999 V2000
   21.9346   39.5962   -6.7319 C   0  0  0  0  0  0  0  0  0  0  0  0
   20.9383   40.5158   -7.4601 C   0  0  0  0  0  0  0  0  0  0  0  0
   21.6530   41.5148   -8.3875 C   0  0  0  0  0  0  0  0  0  0  0  0
   19.8575   39.7239   -8.1940 C   0  0  0  0  0  0  0  0  0  0  0  0
   20.1836   38.8878   -9.2855 C   0  0  0  0  0  0  0  0  0  0  0  0
   19.1763   38.1644   -9.9510 C   0  0  0  0  0  0  0  0  0  0  0  0
   17.8366   38.2704   -9.5322 C   0  0  0  0  0  0  0  0  0  0  0  0
   17.4892   39.1005   -8.4440 C   0  0  0  0  0  0  0  0  0  0  0  0
   18.5085   39.8221   -7.7829 C   0  0  0  0  0  0  0  0  0  0  0  0
   16.0429   39.2240   -7.9863 C   0  0  0  0  0  0  0  0  0  0  0  0
   15.1936   37.9757   -8.0080 C   0  0  0  0  0  0  0  0  0  0  0  0
   14.9632   39.0635   -9.0296 C   0  0  0  0  0  0  0  0  0  0  0  0
   15.8055   40.1908   -6.9034 N   0  3  0  0  0  0  0  0  0  0  0  0
   15.8499   41.6198   -7.2897 C   0  0  0  0  0  0  0  0  0  0  0  0
   16.4565   41.8000   -8.7007 C   0  0  2  0  0  0  0  0  0  0  0  0
   17.3471   43.0594   -8.9109 C   0  0  2  0  0  0  0  0  0  0  0  0
   17.9958   43.0719  -10.3228 C   0  0  0  0  0  0  0  0  0  0  0  0
   18.9901   44.2074  -10.5322 C   0  0  0  0  0  0  0  0  0  0  0  0
   18.5266   45.5155  -10.7760 C   0  0  0  0  0  0  0  0  0  0  0  0
   19.4460   46.5707  -10.9174 C   0  0  0  0  0  0  0  0  0  0  0  0
   20.8295   46.3264  -10.8176 C   0  0  0  0  0  0  0  0  0  0  0  0
   21.3121   45.0145  -10.5825 C   0  0  0  0  0  0  0  0  0  0  0  0
   20.3791   43.9653  -10.4492 C   0  0  0  0  0  0  0  0  0  0  0  0
   22.6457   44.6755  -10.4729 O   0  0  0  0  0  0  0  0  0  0  0  0
   23.6382   45.7011  -10.4574 C   0  0  0  0  0  0  0  0  0  0  0  0
   23.7257   46.3782   -9.0774 C   0  0  0  0  0  0  0  0  0  0  0  0
   24.2593   45.4334   -7.9843 C   0  0  0  0  0  0  0  0  0  0  0  0
   24.2850   46.0629   -6.5769 C   0  0  0  0  0  0  0  0  0  0  0  0
   22.9512   46.3816   -6.0726 N   0  0  0  0  0  0  0  0  0  0  0  0
   22.0821   45.2977   -5.9004 C   0  0  0  0  0  0  0  0  0  0  0  0
   20.8190   45.3349   -6.5209 C   0  0  0  0  0  0  0  0  0  0  0  0
   19.9471   44.2284   -6.4428 C   0  0  0  0  0  0  0  0  0  0  0  0
   20.3246   43.0955   -5.6872 C   0  0  0  0  0  0  0  0  0  0  0  0
   21.5751   43.0659   -5.0399 C   0  0  0  0  0  0  0  0  0  0  0  0
   22.4558   44.1591   -5.1534 C   0  0  0  0  0  0  0  0  0  0  0  0
   21.9677   41.8927   -4.2591 C   0  0  0  0  0  0  0  0  0  0  0  0
   23.1387   41.5825   -4.0402 O   0  0  0  0  0  0  0  0  0  0  0  0
   20.8641   41.0011   -3.6884 C   0  0  0  0  0  0  0  0  0  0  0  0
   18.6439   44.2705   -7.1790 C   0  0  0  0  0  0  0  0  0  0  0  0
   17.9808   45.2937   -7.2206 O   0  0  0  0  0  0  0  0  0  0  0  0
   18.3886   43.1609   -7.8800 N   0  0  0  0  0  0  0  0  0  0  0  0
   15.4196   41.8146   -9.6639 O   0  0  0  0  0  0  0  0  0  0  0  0
   17.0553   40.9184   -8.9338 H   0  0  0  0  0  0  0  0  0  0  0  0
   16.6925   43.9323   -8.8730 H   0  0  0  0  0  0  0  0  0  0  0  0
   22.6565   40.1779   -6.1578 H   0  0  0  0  0  0  0  0  0  0  0  0
   22.4974   38.9711   -7.4257 H   0  0  0  0  0  0  0  0  0  0  0  0
   21.4202   38.9367   -6.0321 H   0  0  0  0  0  0  0  0  0  0  0  0
   20.4443   41.1086   -6.6891 H   0  0  0  0  0  0  0  0  0  0  0  0
   22.3716   42.1188   -7.8326 H   0  0  0  0  0  0  0  0  0  0  0  0
   20.9411   42.2005   -8.8483 H   0  0  0  0  0  0  0  0  0  0  0  0
   22.1976   41.0132   -9.1878 H   0  0  0  0  0  0  0  0  0  0  0  0
   21.2061   38.7940   -9.6207 H   0  0  0  0  0  0  0  0  0  0  0  0
   19.4317   37.5265  -10.7844 H   0  0  0  0  0  0  0  0  0  0  0  0
   17.0748   37.7079  -10.0521 H   0  0  0  0  0  0  0  0  0  0  0  0
   18.2462   40.4576   -6.9493 H   0  0  0  0  0  0  0  0  0  0  0  0
   15.6614   37.0526   -8.3502 H   0  0  0  0  0  0  0  0  0  0  0  0
   14.4497   37.8575   -7.2200 H   0  0  0  0  0  0  0  0  0  0  0  0
   14.0653   39.6726   -8.9247 H   0  0  0  0  0  0  0  0  0  0  0  0
   15.2770   38.8677  -10.0549 H   0  0  0  0  0  0  0  0  0  0  0  0
   16.5119   40.0407   -6.1972 H   0  0  0  0  0  0  0  0  0  0  0  0
   16.4584   42.1526   -6.5591 H   0  0  0  0  0  0  0  0  0  0  0  0
   14.8449   42.0418   -7.2425 H   0  0  0  0  0  0  0  0  0  0  0  0
   18.5052   42.1241  -10.4965 H   0  0  0  0  0  0  0  0  0  0  0  0
   17.2175   43.1326  -11.0835 H   0  0  0  0  0  0  0  0  0  0  0  0
   17.4676   45.7173  -10.8400 H   0  0  0  0  0  0  0  0  0  0  0  0
   19.0893   47.5743  -11.0962 H   0  0  0  0  0  0  0  0  0  0  0  0
   21.4954   47.1699  -10.9241 H   0  0  0  0  0  0  0  0  0  0  0  0
   20.7391   42.9649  -10.2599 H   0  0  0  0  0  0  0  0  0  0  0  0
   24.5968   45.2365  -10.6883 H   0  0  0  0  0  0  0  0  0  0  0  0
   23.4807   46.4278  -11.2544 H   0  0  0  0  0  0  0  0  0  0  0  0
   24.3486   47.2703   -9.1434 H   0  0  0  0  0  0  0  0  0  0  0  0
   22.7332   46.7251   -8.7898 H   0  0  0  0  0  0  0  0  0  0  0  0
   23.6782   44.5112   -7.9751 H   0  0  0  0  0  0  0  0  0  0  0  0
   25.2736   45.1336   -8.2477 H   0  0  0  0  0  0  0  0  0  0  0  0
   24.7636   45.3750   -5.8799 H   0  0  0  0  0  0  0  0  0  0  0  0
   24.9073   46.9577   -6.5826 H   0  0  0  0  0  0  0  0  0  0  0  0
   22.5344   47.1859   -6.5193 H   0  0  0  0  0  0  0  0  0  0  0  0
   20.5266   46.1936   -7.1071 H   0  0  0  0  0  0  0  0  0  0  0  0
   19.6621   42.2470   -5.6000 H   0  0  0  0  0  0  0  0  0  0  0  0
   23.4148   44.1120   -4.6588 H   0  0  0  0  0  0  0  0  0  0  0  0
   20.2282   40.6152   -4.4856 H   0  0  0  0  0  0  0  0  0  0  0  0
   20.2477   41.5556   -2.9804 H   0  0  0  0  0  0  0  0  0  0  0  0
   21.2975   40.1500   -3.1624 H   0  0  0  0  0  0  0  0  0  0  0  0
   19.0469   42.4008   -7.7855 H   0  0  0  0  0  0  0  0  0  0  0  0
   14.8102   41.1221   -9.4588 H   0  0  0  0  0  0  0  0  0  0  0  0
   14.9021   39.9980   -6.4951 H   0  0  0  0  0  0  0  0  0  0  0  0
  1  2  1  0  0  0  0
  1 45  1  0  0  0  0
  1 46  1  0  0  0  0
  1 47  1  0  0  0  0
  2  3  1  0  0  0  0
  2  4  1  0  0  0  0
  2 48  1  0  0  0  0
  3 49  1  0  0  0  0
  3 50  1  0  0  0  0
  3 51  1  0  0  0  0
  4  9  1  0  0  0  0
  4  5  2  0  0  0  0
  5  6  1  0  0  0  0
  5 52  1  0  0  0  0
  6  7  2  0  0  0  0
  6 53  1  0  0  0  0
  7  8  1  0  0  0  0
  7 54  1  0  0  0  0
  8  9  2  0  0  0  0
  8 10  1  0  0  0  0
  9 55  1  0  0  0  0
 10 12  1  0  0  0  0
 10 11  1  0  0  0  0
 10 13  1  0  0  0  0
 11 12  1  0  0  0  0
 11 56  1  0  0  0  0
 11 57  1  0  0  0  0
 12 58  1  0  0  0  0
 12 59  1  0  0  0  0
 13 14  1  0  0  0  0
 13 60  1  0  0  0  0
 13 86  1  0  0  0  0
 14 15  1  0  0  0  0
 14 61  1  0  0  0  0
 14 62  1  0  0  0  0
 15 43  1  6  0  0  0
 15 16  1  0  0  0  0
 15 42  1  0  0  0  0
 16 44  1  1  0  0  0
 16 41  1  0  0  0  0
 16 17  1  0  0  0  0
 17 18  1  0  0  0  0
 17 63  1  0  0  0  0
 17 64  1  0  0  0  0
 18 23  1  0  0  0  0
 18 19  2  0  0  0  0
 19 20  1  0  0  0  0
 19 65  1  0  0  0  0
 20 21  2  0  0  0  0
 20 66  1  0  0  0  0
 21 22  1  0  0  0  0
 21 67  1  0  0  0  0
 22 23  2  0  0  0  0
 22 24  1  0  0  0  0
 23 68  1  0  0  0  0
 24 25  1  0  0  0  0
 25 26  1  0  0  0  0
 25 69  1  0  0  0  0
 25 70  1  0  0  0  0
 26 27  1  0  0  0  0
 26 71  1  0  0  0  0
 26 72  1  0  0  0  0
 27 28  1  0  0  0  0
 27 73  1  0  0  0  0
 27 74  1  0  0  0  0
 28 29  1  0  0  0  0
 28 75  1  0  0  0  0
 28 76  1  0  0  0  0
 29 30  1  0  0  0  0
 29 77  1  0  0  0  0
 30 35  1  0  0  0  0
 30 31  2  0  0  0  0
 31 32  1  0  0  0  0
 31 78  1  0  0  0  0
 32 33  2  0  0  0  0
 32 39  1  0  0  0  0
 33 34  1  0  0  0  0
 33 79  1  0  0  0  0
 34 35  2  0  0  0  0
 34 36  1  0  0  0  0
 35 80  1  0  0  0  0
 36 37  2  0  0  0  0
 36 38  1  0  0  0  0
 38 81  1  0  0  0  0
 38 82  1  0  0  0  0
 38 83  1  0  0  0  0
 39 40  2  0  0  0  0
 39 41  1  0  0  0  0
 41 84  1  0  0  0  0
 42 85  1  0  0  0  0
M  CHG  1  13   1
M  END
