BACE_17.smi:1
 OpenBabel09281823033D
Structure written by MMmdl.
 62 64  0  0  1  0  0  0  0  0999 V2000
   20.3784   48.2936   -8.4402 C   0  0  0  0  0  0  0  0  0  0  0  0
   19.5700   48.0720   -7.2373 N   0  0  0  0  0  0  0  0  0  0  0  0
   18.7953   49.2310   -6.7891 C   0  0  0  0  0  0  0  0  0  0  0  0
   19.4444   46.8831   -6.5995 C   0  0  0  0  0  0  0  0  0  0  0  0
   18.7214   46.7320   -5.6106 O   0  0  0  0  0  0  0  0  0  0  0  0
   20.2393   45.7069   -7.1024 C   0  0  0  0  0  0  0  0  0  0  0  0
   21.0711   44.9690   -6.2283 C   0  0  0  0  0  0  0  0  0  0  0  0
   20.0609   45.2572   -8.4299 C   0  0  0  0  0  0  0  0  0  0  0  0
   20.6623   44.0601   -8.8688 C   0  0  0  0  0  0  0  0  0  0  0  0
   21.5159   43.3567   -7.9964 C   0  0  0  0  0  0  0  0  0  0  0  0
   21.7123   43.7887   -6.6729 C   0  0  0  0  0  0  0  0  0  0  0  0
   20.3630   43.5041  -10.2271 C   0  0  0  0  0  0  0  0  0  0  0  0
   20.5130   44.1732  -11.2484 O   0  0  0  0  0  0  0  0  0  0  0  0
   19.9165   42.2382  -10.2011 N   0  0  0  0  0  0  0  0  0  0  0  0
   19.6237   41.3696  -11.3428 C   0  0  2  0  0  0  0  0  0  0  0  0
   18.0969   41.3688  -11.6433 C   0  0  1  0  0  0  0  0  0  0  0  0
   17.3935   40.9636  -10.4847 O   0  0  0  0  0  0  0  0  0  0  0  0
   17.5146   42.7527  -12.0072 C   0  0  0  0  0  0  0  0  0  0  0  0
   18.0601   43.2087  -13.2300 O   0  0  0  0  0  0  0  0  0  0  0  0
   20.1952   39.9625  -11.0160 C   0  0  0  0  0  0  0  0  0  0  0  0
   19.6059   39.3186   -9.7637 C   0  0  0  0  0  0  0  0  0  0  0  0
   20.1731   39.5757   -8.4950 C   0  0  0  0  0  0  0  0  0  0  0  0
   19.5913   39.0398   -7.3175 C   0  0  0  0  0  0  0  0  0  0  0  0
   18.4601   38.2092   -7.4383 C   0  0  0  0  0  0  0  0  0  0  0  0
   17.9117   37.9179   -8.7010 C   0  0  0  0  0  0  0  0  0  0  0  0
   18.4810   38.4730   -9.8612 C   0  0  0  0  0  0  0  0  0  0  0  0
   20.0497   39.2821   -6.0400 O   0  0  0  0  0  0  0  0  0  0  0  0
   21.0989   40.2246   -5.8663 C   0  0  0  0  0  0  0  0  0  0  0  0
   21.2135   40.5754   -4.3776 C   0  0  0  0  0  0  0  0  0  0  0  0
   22.4015   41.4914   -4.0171 C   0  0  0  0  0  0  0  0  0  0  0  0
   22.2366   42.9449   -4.4882 C   0  0  0  0  0  0  0  0  0  0  0  0
   22.5123   42.9988   -5.8813 O   0  0  0  0  0  0  0  0  0  0  0  0
   20.1498   41.7459  -12.2223 H   0  0  0  0  0  0  0  0  0  0  0  0
   17.8877   40.6528  -12.4399 H   0  0  0  0  0  0  0  0  0  0  0  0
   21.3831   48.6175   -8.1676 H   0  0  0  0  0  0  0  0  0  0  0  0
   19.9402   49.0665   -9.0730 H   0  0  0  0  0  0  0  0  0  0  0  0
   20.4567   47.3992   -9.0598 H   0  0  0  0  0  0  0  0  0  0  0  0
   17.7440   49.1112   -7.0589 H   0  0  0  0  0  0  0  0  0  0  0  0
   19.1545   50.1614   -7.2315 H   0  0  0  0  0  0  0  0  0  0  0  0
   18.8598   49.3502   -5.7057 H   0  0  0  0  0  0  0  0  0  0  0  0
   21.1933   45.3044   -5.2090 H   0  0  0  0  0  0  0  0  0  0  0  0
   19.3947   45.7925   -9.0921 H   0  0  0  0  0  0  0  0  0  0  0  0
   21.9969   42.4471   -8.3260 H   0  0  0  0  0  0  0  0  0  0  0  0
   19.7728   41.8325   -9.2881 H   0  0  0  0  0  0  0  0  0  0  0  0
   17.6713   41.5339   -9.7775 H   0  0  0  0  0  0  0  0  0  0  0  0
   16.4274   42.7099  -12.0809 H   0  0  0  0  0  0  0  0  0  0  0  0
   17.7500   43.5051  -11.2573 H   0  0  0  0  0  0  0  0  0  0  0  0
   18.9867   43.3928  -13.0865 H   0  0  0  0  0  0  0  0  0  0  0  0
   20.0735   39.2853  -11.8604 H   0  0  0  0  0  0  0  0  0  0  0  0
   21.2746   40.0417  -10.8788 H   0  0  0  0  0  0  0  0  0  0  0  0
   21.0482   40.2049   -8.4442 H   0  0  0  0  0  0  0  0  0  0  0  0
   18.0051   37.7975   -6.5493 H   0  0  0  0  0  0  0  0  0  0  0  0
   17.0439   37.2786   -8.7796 H   0  0  0  0  0  0  0  0  0  0  0  0
   18.0349   38.2555  -10.8204 H   0  0  0  0  0  0  0  0  0  0  0  0
   22.0368   39.8122   -6.2406 H   0  0  0  0  0  0  0  0  0  0  0  0
   20.8697   41.1315   -6.4215 H   0  0  0  0  0  0  0  0  0  0  0  0
   20.2811   41.0377   -4.0549 H   0  0  0  0  0  0  0  0  0  0  0  0
   21.2995   39.6547   -3.8041 H   0  0  0  0  0  0  0  0  0  0  0  0
   22.5038   41.4982   -2.9313 H   0  0  0  0  0  0  0  0  0  0  0  0
   23.3351   41.0739   -4.3954 H   0  0  0  0  0  0  0  0  0  0  0  0
   21.2336   43.2860   -4.2295 H   0  0  0  0  0  0  0  0  0  0  0  0
   22.9453   43.5935   -3.9723 H   0  0  0  0  0  0  0  0  0  0  0  0
  1  2  1  0  0  0  0
  1 35  1  0  0  0  0
  1 36  1  0  0  0  0
  1 37  1  0  0  0  0
  2  3  1  0  0  0  0
  2  4  1  0  0  0  0
  3 38  1  0  0  0  0
  3 39  1  0  0  0  0
  3 40  1  0  0  0  0
  4  5  2  0  0  0  0
  4  6  1  0  0  0  0
  6  7  1  0  0  0  0
  6  8  2  0  0  0  0
  7 11  2  0  0  0  0
  7 41  1  0  0  0  0
  8  9  1  0  0  0  0
  8 42  1  0  0  0  0
  9 10  2  0  0  0  0
  9 12  1  0  0  0  0
 10 11  1  0  0  0  0
 10 43  1  0  0  0  0
 11 32  1  0  0  0  0
 12 13  2  0  0  0  0
 12 14  1  0  0  0  0
 14 15  1  0  0  0  0
 14 44  1  0  0  0  0
 15 33  1  6  0  0  0
 15 16  1  0  0  0  0
 15 20  1  0  0  0  0
 16 34  1  6  0  0  0
 16 17  1  0  0  0  0
 16 18  1  0  0  0  0
 17 45  1  0  0  0  0
 18 19  1  0  0  0  0
 18 46  1  0  0  0  0
 18 47  1  0  0  0  0
 19 48  1  0  0  0  0
 20 21  1  0  0  0  0
 20 49  1  0  0  0  0
 20 50  1  0  0  0  0
 21 26  1  0  0  0  0
 21 22  2  0  0  0  0
 22 23  1  0  0  0  0
 22 51  1  0  0  0  0
 23 24  2  0  0  0  0
 23 27  1  0  0  0  0
 24 25  1  0  0  0  0
 24 52  1  0  0  0  0
 25 26  2  0  0  0  0
 25 53  1  0  0  0  0
 26 54  1  0  0  0  0
 27 28  1  0  0  0  0
 28 29  1  0  0  0  0
 28 55  1  0  0  0  0
 28 56  1  0  0  0  0
 29 30  1  0  0  0  0
 29 57  1  0  0  0  0
 29 58  1  0  0  0  0
 30 31  1  0  0  0  0
 30 59  1  0  0  0  0
 30 60  1  0  0  0  0
 31 32  1  0  0  0  0
 31 61  1  0  0  0  0
 31 62  1  0  0  0  0
M  END
