BACE_13.smi:1
 OpenBabel09281823033D
Structure written by MMmdl.
 76 79  0  0  1  0  0  0  0  0999 V2000
   20.2737   42.9081   -1.0942 C   0  0  0  0  0  0  0  0  0  0  0  0
   20.0673   42.9477   -2.4966 O   0  0  0  0  0  0  0  0  0  0  0  0
   21.1886   42.4866   -3.2348 C   0  0  0  0  0  0  0  0  0  0  0  0
   20.8203   42.1582   -4.6746 C   0  0  0  0  0  0  0  0  0  0  0  0
   20.0609   43.0695   -5.4324 C   0  0  0  0  0  0  0  0  0  0  0  0
   19.7130   42.7687   -6.7672 C   0  0  0  0  0  0  0  0  0  0  0  0
   20.1526   41.5517   -7.3377 C   0  0  0  0  0  0  0  0  0  0  0  0
   20.9176   40.6300   -6.5824 C   0  0  0  0  0  0  0  0  0  0  0  0
   21.2457   40.9452   -5.2482 C   0  0  0  0  0  0  0  0  0  0  0  0
   21.3741   39.4100   -7.1075 N   0  0  0  0  0  0  0  0  0  0  0  0
   20.7304   38.8394   -8.2844 C   0  0  0  0  0  0  0  0  0  0  0  0
   21.3735   39.3236   -9.5955 C   0  0  0  0  0  0  0  0  0  0  0  0
   20.3975   39.2013  -10.7748 C   0  0  0  0  0  0  0  0  0  0  0  0
   20.9383   39.7426  -12.1149 C   0  0  0  0  0  0  0  0  0  0  0  0
   21.6703   40.9641  -12.0051 O   0  0  0  0  0  0  0  0  0  0  0  0
   21.0260   42.1474  -11.7118 C   0  0  0  0  0  0  0  0  0  0  0  0
   21.8427   43.2868  -11.5670 C   0  0  0  0  0  0  0  0  0  0  0  0
   21.2869   44.5373  -11.2384 C   0  0  0  0  0  0  0  0  0  0  0  0
   19.9015   44.6580  -11.0303 C   0  0  0  0  0  0  0  0  0  0  0  0
   19.0689   43.5275  -11.1602 C   0  0  0  0  0  0  0  0  0  0  0  0
   19.6277   42.2851  -11.5325 C   0  0  0  0  0  0  0  0  0  0  0  0
   17.6054   43.6114  -10.8671 C   0  0  0  0  0  0  0  0  0  0  0  0
   17.2539   44.0233   -9.4071 C   0  0  2  0  0  0  0  0  0  0  0  0
   18.0481   43.2542   -8.4402 N   0  0  0  0  0  0  0  0  0  0  0  0
   18.9409   43.7656   -7.5829 C   0  0  0  0  0  0  0  0  0  0  0  0
   19.1118   44.9627   -7.4205 O   0  0  0  0  0  0  0  0  0  0  0  0
   15.7416   43.9222   -9.0352 C   0  0  1  0  0  0  0  0  0  0  0  0
   15.2851   42.5592   -8.5227 C   0  0  1  0  0  0  0  0  0  0  0  0
   14.8576   41.6694   -9.7076 C   0  0  0  0  0  0  0  0  0  0  0  0
   14.4582   40.3866   -9.2253 O   0  0  0  0  0  0  0  0  0  0  0  0
   15.5303   39.7241   -8.5549 C   0  0  2  0  0  0  0  0  0  0  0  0
   15.9765   40.5598   -7.3379 C   0  0  0  0  0  0  0  0  0  0  0  0
   16.3576   41.9164   -7.7522 N   0  0  0  0  0  0  0  0  0  0  0  0
   16.6932   39.4910   -9.5150 C   0  0  0  0  0  0  0  0  0  0  0  0
   17.1994   38.1789   -9.3242 O   0  0  0  0  0  0  0  0  0  0  0  0
   16.4815   37.4466   -8.3449 C   0  0  0  0  0  0  0  0  0  0  0  0
   15.4626   44.8908   -8.0388 O   0  0  0  0  0  0  0  0  0  0  0  0
   17.5376   45.0708   -9.3088 H   0  0  0  0  0  0  0  0  0  0  0  0
   15.1464   44.1914   -9.9085 H   0  0  0  0  0  0  0  0  0  0  0  0
   14.4229   42.7470   -7.8829 H   0  0  0  0  0  0  0  0  0  0  0  0
   15.1908   38.7412   -8.2280 H   0  0  0  0  0  0  0  0  0  0  0  0
   19.3823   43.2740   -0.5844 H   0  0  0  0  0  0  0  0  0  0  0  0
   21.1113   43.5407   -0.7972 H   0  0  0  0  0  0  0  0  0  0  0  0
   20.4622   41.8910   -0.7481 H   0  0  0  0  0  0  0  0  0  0  0  0
   21.6109   41.6050   -2.7496 H   0  0  0  0  0  0  0  0  0  0  0  0
   21.9680   43.2503   -3.2468 H   0  0  0  0  0  0  0  0  0  0  0  0
   19.7468   44.0021   -4.9874 H   0  0  0  0  0  0  0  0  0  0  0  0
   19.9117   41.3483   -8.3706 H   0  0  0  0  0  0  0  0  0  0  0  0
   21.8303   40.2616   -4.6503 H   0  0  0  0  0  0  0  0  0  0  0  0
   21.8148   38.7632   -6.4692 H   0  0  0  0  0  0  0  0  0  0  0  0
   19.6734   39.1054   -8.2770 H   0  0  0  0  0  0  0  0  0  0  0  0
   20.7561   37.7517   -8.2174 H   0  0  0  0  0  0  0  0  0  0  0  0
   22.2875   38.7648   -9.7968 H   0  0  0  0  0  0  0  0  0  0  0  0
   21.6748   40.3668   -9.5001 H   0  0  0  0  0  0  0  0  0  0  0  0
   19.4691   39.7202  -10.5365 H   0  0  0  0  0  0  0  0  0  0  0  0
   20.1161   38.1535  -10.8805 H   0  0  0  0  0  0  0  0  0  0  0  0
   20.1392   39.8348  -12.8505 H   0  0  0  0  0  0  0  0  0  0  0  0
   21.6305   39.0082  -12.5268 H   0  0  0  0  0  0  0  0  0  0  0  0
   22.9104   43.2007  -11.7051 H   0  0  0  0  0  0  0  0  0  0  0  0
   21.9269   45.4005  -11.1306 H   0  0  0  0  0  0  0  0  0  0  0  0
   19.4857   45.6158  -10.7542 H   0  0  0  0  0  0  0  0  0  0  0  0
   18.9634   41.4428  -11.6578 H   0  0  0  0  0  0  0  0  0  0  0  0
   17.1315   42.6557  -11.0911 H   0  0  0  0  0  0  0  0  0  0  0  0
   17.1731   44.3272  -11.5663 H   0  0  0  0  0  0  0  0  0  0  0  0
   17.9491   42.2492   -8.4595 H   0  0  0  0  0  0  0  0  0  0  0  0
   15.6660   41.5672  -10.4316 H   0  0  0  0  0  0  0  0  0  0  0  0
   14.0201   42.1268  -10.2343 H   0  0  0  0  0  0  0  0  0  0  0  0
   16.8094   40.0678   -6.8354 H   0  0  0  0  0  0  0  0  0  0  0  0
   15.1645   40.6024   -6.6120 H   0  0  0  0  0  0  0  0  0  0  0  0
   16.5485   42.4700   -6.9293 H   0  0  0  0  0  0  0  0  0  0  0  0
   16.3734   39.6401  -10.5478 H   0  0  0  0  0  0  0  0  0  0  0  0
   17.4887   40.2099   -9.3114 H   0  0  0  0  0  0  0  0  0  0  0  0
   16.9160   36.4522   -8.2425 H   0  0  0  0  0  0  0  0  0  0  0  0
   15.4344   37.3260   -8.6259 H   0  0  0  0  0  0  0  0  0  0  0  0
   16.5292   37.9338   -7.3700 H   0  0  0  0  0  0  0  0  0  0  0  0
   15.6564   44.5157   -7.1934 H   0  0  0  0  0  0  0  0  0  0  0  0
  1  2  1  0  0  0  0
  1 42  1  0  0  0  0
  1 43  1  0  0  0  0
  1 44  1  0  0  0  0
  2  3  1  0  0  0  0
  3  4  1  0  0  0  0
  3 45  1  0  0  0  0
  3 46  1  0  0  0  0
  4  9  1  0  0  0  0
  4  5  2  0  0  0  0
  5  6  1  0  0  0  0
  5 47  1  0  0  0  0
  6 25  1  0  0  0  0
  6  7  2  0  0  0  0
  7  8  1  0  0  0  0
  7 48  1  0  0  0  0
  8  9  2  0  0  0  0
  8 10  1  0  0  0  0
  9 49  1  0  0  0  0
 10 11  1  0  0  0  0
 10 50  1  0  0  0  0
 11 12  1  0  0  0  0
 11 51  1  0  0  0  0
 11 52  1  0  0  0  0
 12 13  1  0  0  0  0
 12 53  1  0  0  0  0
 12 54  1  0  0  0  0
 13 14  1  0  0  0  0
 13 55  1  0  0  0  0
 13 56  1  0  0  0  0
 14 15  1  0  0  0  0
 14 57  1  0  0  0  0
 14 58  1  0  0  0  0
 15 16  1  0  0  0  0
 16 21  1  0  0  0  0
 16 17  2  0  0  0  0
 17 18  1  0  0  0  0
 17 59  1  0  0  0  0
 18 19  2  0  0  0  0
 18 60  1  0  0  0  0
 19 20  1  0  0  0  0
 19 61  1  0  0  0  0
 20 21  2  0  0  0  0
 20 22  1  0  0  0  0
 21 62  1  0  0  0  0
 22 23  1  0  0  0  0
 22 63  1  0  0  0  0
 22 64  1  0  0  0  0
 23 38  1  1  0  0  0
 23 24  1  0  0  0  0
 23 27  1  0  0  0  0
 24 25  1  0  0  0  0
 24 65  1  0  0  0  0
 25 26  2  0  0  0  0
 27 39  1  6  0  0  0
 27 28  1  0  0  0  0
 27 37  1  0  0  0  0
 28 40  1  1  0  0  0
 28 33  1  0  0  0  0
 28 29  1  0  0  0  0
 29 30  1  0  0  0  0
 29 66  1  0  0  0  0
 29 67  1  0  0  0  0
 30 31  1  0  0  0  0
 31 41  1  1  0  0  0
 31 32  1  0  0  0  0
 31 34  1  0  0  0  0
 32 33  1  0  0  0  0
 32 68  1  0  0  0  0
 32 69  1  0  0  0  0
 33 70  1  0  0  0  0
 34 35  1  0  0  0  0
 34 71  1  0  0  0  0
 34 72  1  0  0  0  0
 35 36  1  0  0  0  0
 36 73  1  0  0  0  0
 36 74  1  0  0  0  0
 36 75  1  0  0  0  0
 37 76  1  0  0  0  0
M  END
