BACE_18.smi:1
 OpenBabel09281823033D
Structure written by MMmdl.
 66 67  0  0  1  0  0  0  0  0999 V2000
   17.5030   44.3376   -8.6180 O   0  0  0  0  0  0  0  0  0  0  0  0
   16.3603   44.4280   -7.7947 C   0  0  0  0  0  0  0  0  0  0  0  0
   15.1526   43.7301   -8.4525 C   0  0  2  0  0  0  0  0  0  0  0  0
   13.9218   44.2900   -8.0394 O   0  0  0  0  0  0  0  0  0  0  0  0
   15.0824   42.1627   -8.3560 C   0  0  1  0  0  0  0  0  0  0  0  0
   14.4995   41.5657   -9.5637 N   0  0  0  0  0  0  0  0  0  0  0  0
   14.9635   41.4993  -10.8241 C   0  0  0  0  0  0  0  0  0  0  0  0
   14.4619   40.7359  -11.6400 O   0  0  0  0  0  0  0  0  0  0  0  0
   16.3422   41.3692   -7.8795 C   0  0  0  0  0  0  0  0  0  0  0  0
   16.2053   39.8094   -7.8176 C   0  0  2  0  0  0  0  0  0  0  0  0
   14.9049   39.3534   -7.1278 C   0  0  0  0  0  0  0  0  0  0  0  0
   17.3733   39.0910   -7.0919 C   0  0  0  0  0  0  0  0  0  0  0  0
   18.7865   39.2646   -7.6711 C   0  0  0  0  0  0  0  0  0  0  0  0
   19.0738   38.3051   -8.8412 C   0  0  0  0  0  0  0  0  0  0  0  0
   20.5241   38.3737   -9.3605 C   0  0  0  0  0  0  0  0  0  0  0  0
   20.6464   39.0575  -10.7305 C   0  0  0  0  0  0  0  0  0  0  0  0
   20.3204   40.5544  -10.6987 C   0  0  0  0  0  0  0  0  0  0  0  0
   20.0604   41.1077  -12.1031 C   0  0  0  0  0  0  0  0  0  0  0  0
   19.7131   42.4815  -12.0399 O   0  0  0  0  0  0  0  0  0  0  0  0
   18.3939   42.8350  -11.8784 C   0  0  0  0  0  0  0  0  0  0  0  0
   17.3796   41.9630  -11.4123 C   0  0  0  0  0  0  0  0  0  0  0  0
   16.0586   42.4272  -11.2644 C   0  0  0  0  0  0  0  0  0  0  0  0
   18.0698   44.1716  -12.1881 C   0  0  0  0  0  0  0  0  0  0  0  0
   16.7541   44.6575  -12.0388 C   0  0  0  0  0  0  0  0  0  0  0  0
   15.7487   43.7499  -11.6523 C   0  0  0  0  0  0  0  0  0  0  0  0
   16.3773   46.0900  -12.3240 C   0  0  0  0  0  0  0  0  0  0  0  0
   15.2843   46.3157  -12.8517 O   0  0  0  0  0  0  0  0  0  0  0  0
   17.2070   47.1000  -11.9537 N   0  0  0  0  0  0  0  0  0  0  0  0
   18.3412   46.9841  -11.0332 C   0  0  0  0  0  0  0  0  0  0  0  0
   16.9153   48.4774  -12.3614 C   0  0  0  0  0  0  0  0  0  0  0  0
   15.1480   44.0910   -9.4532 H   0  0  0  0  0  0  0  0  0  0  0  0
   14.3594   41.9608   -7.5674 H   0  0  0  0  0  0  0  0  0  0  0  0
   16.1734   39.4343   -8.8408 H   0  0  0  0  0  0  0  0  0  0  0  0
   17.7448   43.4278   -8.7022 H   0  0  0  0  0  0  0  0  0  0  0  0
   16.6198   43.9979   -6.8400 H   0  0  0  0  0  0  0  0  0  0  0  0
   16.1500   45.4858   -7.6386 H   0  0  0  0  0  0  0  0  0  0  0  0
   13.5194   43.6707   -7.4417 H   0  0  0  0  0  0  0  0  0  0  0  0
   13.7021   40.9716   -9.3754 H   0  0  0  0  0  0  0  0  0  0  0  0
   17.1883   41.6180   -8.5178 H   0  0  0  0  0  0  0  0  0  0  0  0
   16.5964   41.7192   -6.8790 H   0  0  0  0  0  0  0  0  0  0  0  0
   14.8288   39.7498   -6.1133 H   0  0  0  0  0  0  0  0  0  0  0  0
   14.8542   38.2661   -7.0521 H   0  0  0  0  0  0  0  0  0  0  0  0
   14.0212   39.6608   -7.6806 H   0  0  0  0  0  0  0  0  0  0  0  0
   17.3774   39.3559   -6.0379 H   0  0  0  0  0  0  0  0  0  0  0  0
   17.1672   38.0218   -7.0792 H   0  0  0  0  0  0  0  0  0  0  0  0
   18.9697   40.3015   -7.9420 H   0  0  0  0  0  0  0  0  0  0  0  0
   19.4993   39.0430   -6.8768 H   0  0  0  0  0  0  0  0  0  0  0  0
   18.8808   37.2866   -8.5023 H   0  0  0  0  0  0  0  0  0  0  0  0
   18.3657   38.4800   -9.6537 H   0  0  0  0  0  0  0  0  0  0  0  0
   21.1776   38.8596   -8.6335 H   0  0  0  0  0  0  0  0  0  0  0  0
   20.9045   37.3533   -9.4553 H   0  0  0  0  0  0  0  0  0  0  0  0
   21.6593   38.9365  -11.1140 H   0  0  0  0  0  0  0  0  0  0  0  0
   19.9917   38.5464  -11.4388 H   0  0  0  0  0  0  0  0  0  0  0  0
   19.4489   40.7366  -10.0736 H   0  0  0  0  0  0  0  0  0  0  0  0
   21.1414   41.0992  -10.2295 H   0  0  0  0  0  0  0  0  0  0  0  0
   20.9706   41.0202  -12.6978 H   0  0  0  0  0  0  0  0  0  0  0  0
   19.2994   40.5332  -12.6344 H   0  0  0  0  0  0  0  0  0  0  0  0
   17.5837   40.9309  -11.1645 H   0  0  0  0  0  0  0  0  0  0  0  0
   18.8555   44.8237  -12.5427 H   0  0  0  0  0  0  0  0  0  0  0  0
   14.7217   44.0883  -11.6002 H   0  0  0  0  0  0  0  0  0  0  0  0
   18.2298   46.1521  -10.3403 H   0  0  0  0  0  0  0  0  0  0  0  0
   18.4396   47.8811  -10.4212 H   0  0  0  0  0  0  0  0  0  0  0  0
   19.2708   46.8542  -11.5875 H   0  0  0  0  0  0  0  0  0  0  0  0
   16.5522   48.5250  -13.3884 H   0  0  0  0  0  0  0  0  0  0  0  0
   17.8069   49.1056  -12.3115 H   0  0  0  0  0  0  0  0  0  0  0  0
   16.1564   48.9099  -11.7089 H   0  0  0  0  0  0  0  0  0  0  0  0
  1  2  1  0  0  0  0
  1 34  1  0  0  0  0
  2  3  1  0  0  0  0
  2 35  1  0  0  0  0
  2 36  1  0  0  0  0
  3 31  1  6  0  0  0
  3  4  1  0  0  0  0
  3  5  1  0  0  0  0
  4 37  1  0  0  0  0
  5 32  1  1  0  0  0
  5  6  1  0  0  0  0
  5  9  1  0  0  0  0
  6  7  1  0  0  0  0
  6 38  1  0  0  0  0
  7 22  1  0  0  0  0
  7  8  2  0  0  0  0
  9 10  1  0  0  0  0
  9 39  1  0  0  0  0
  9 40  1  0  0  0  0
 10 33  1  6  0  0  0
 10 11  1  0  0  0  0
 10 12  1  0  0  0  0
 11 41  1  0  0  0  0
 11 42  1  0  0  0  0
 11 43  1  0  0  0  0
 12 13  1  0  0  0  0
 12 44  1  0  0  0  0
 12 45  1  0  0  0  0
 13 14  1  0  0  0  0
 13 46  1  0  0  0  0
 13 47  1  0  0  0  0
 14 15  1  0  0  0  0
 14 48  1  0  0  0  0
 14 49  1  0  0  0  0
 15 16  1  0  0  0  0
 15 50  1  0  0  0  0
 15 51  1  0  0  0  0
 16 17  1  0  0  0  0
 16 52  1  0  0  0  0
 16 53  1  0  0  0  0
 17 18  1  0  0  0  0
 17 54  1  0  0  0  0
 17 55  1  0  0  0  0
 18 19  1  0  0  0  0
 18 56  1  0  0  0  0
 18 57  1  0  0  0  0
 19 20  1  0  0  0  0
 20 21  1  0  0  0  0
 20 23  2  0  0  0  0
 21 22  2  0  0  0  0
 21 58  1  0  0  0  0
 22 25  1  0  0  0  0
 23 24  1  0  0  0  0
 23 59  1  0  0  0  0
 24 25  2  0  0  0  0
 24 26  1  0  0  0  0
 25 60  1  0  0  0  0
 26 27  2  0  0  0  0
 26 28  1  0  0  0  0
 28 29  1  0  0  0  0
 28 30  1  0  0  0  0
 29 61  1  0  0  0  0
 29 62  1  0  0  0  0
 29 63  1  0  0  0  0
 30 64  1  0  0  0  0
 30 65  1  0  0  0  0
 30 66  1  0  0  0  0
M  END
