BACE_5.smi:1
 OpenBabel09281823033D
Structure written by MMmdl.
 79 80  0  0  1  0  0  0  0  0999 V2000
   28.8702   44.4685  -14.1273 C   0  0  0  0  0  0  0  0  0  0  0  0
   27.6110   45.1334  -13.5557 C   0  0  0  0  0  0  0  0  0  0  0  0
   27.5002   45.0371  -12.0249 C   0  0  0  0  0  0  0  0  0  0  0  0
   27.0760   43.6808  -11.5337 C   0  0  0  0  0  0  0  0  0  0  0  0
   25.7922   43.3042  -11.0442 C   0  0  0  0  0  0  0  0  0  0  0  0
   25.9351   41.9927  -10.6839 C   0  0  0  0  0  0  0  0  0  0  0  0
   27.2347   41.6541  -10.9833 N   0  0  0  0  0  0  0  0  0  0  0  0
   27.9445   42.6806  -11.4901 N   0  0  0  0  0  0  0  0  0  0  0  0
   24.9759   41.0191  -10.0777 C   0  0  0  0  0  0  0  0  0  0  0  0
   23.8405   41.6702   -9.4212 N   0  0  0  0  0  0  0  0  0  0  0  0
   23.0668   40.7682   -8.5676 C   0  0  0  0  0  0  0  0  0  0  0  0
   22.1793   39.7635   -9.3519 C   0  0  2  0  0  0  0  0  0  0  0  0
   20.6645   40.0856   -9.2349 C   0  0  2  0  0  0  0  0  0  0  0  0
   19.7145   38.8706   -9.4329 C   0  0  0  0  0  0  0  0  0  0  0  0
   18.2446   39.1252   -9.0147 C   0  0  1  0  0  0  0  0  0  0  0  0
   17.3705   39.5839  -10.1981 C   0  0  0  0  0  0  0  0  0  0  0  0
   16.0572   40.2605   -9.7744 C   0  0  0  0  0  0  0  0  0  0  0  0
   15.3020   40.8392  -10.9806 C   0  0  0  0  0  0  0  0  0  0  0  0
   14.0249   41.6228  -10.6238 C   0  0  0  0  0  0  0  0  0  0  0  0
   14.2126   42.8517   -9.7105 C   0  0  0  0  0  0  0  0  0  0  0  0
   15.3794   43.7755  -10.0855 C   0  0  0  0  0  0  0  0  0  0  0  0
   15.2918   44.1917  -11.4445 O   0  0  0  0  0  0  0  0  0  0  0  0
   16.3863   44.9921  -11.8898 C   0  0  0  0  0  0  0  0  0  0  0  0
   17.6628   44.1355  -12.0407 C   0  0  0  0  0  0  0  0  0  0  0  0
   17.6959   43.3499  -12.9906 O   0  0  0  0  0  0  0  0  0  0  0  0
   18.6677   44.2367  -11.1285 N   0  0  0  0  0  0  0  0  0  0  0  0
   19.8307   43.3152  -11.1630 C   0  0  2  0  0  0  0  0  0  0  0  0
   19.8938   42.3551   -9.9576 C   0  0  0  0  0  0  0  0  0  0  0  0
   19.5711   42.7248   -8.8303 O   0  0  0  0  0  0  0  0  0  0  0  0
   20.3699   41.1277  -10.2174 N   0  0  0  0  0  0  0  0  0  0  0  0
   21.1494   44.1067  -11.2843 C   0  0  0  0  0  0  0  0  0  0  0  0
   18.6370   45.2579  -10.0693 C   0  0  0  0  0  0  0  0  0  0  0  0
   17.6421   37.8759   -8.3441 C   0  0  0  0  0  0  0  0  0  0  0  0
   22.4598   38.4831   -8.8402 O   0  0  0  0  0  0  0  0  0  0  0  0
   27.6504   40.7371  -10.8459 H   0  0  0  0  0  0  0  0  0  0  0  0
   22.4619   39.7214  -10.4063 H   0  0  0  0  0  0  0  0  0  0  0  0
   20.4841   40.4460   -8.2195 H   0  0  0  0  0  0  0  0  0  0  0  0
   18.2406   39.9145   -8.2627 H   0  0  0  0  0  0  0  0  0  0  0  0
   19.7838   42.6860  -12.0512 H   0  0  0  0  0  0  0  0  0  0  0  0
   28.9499   44.6387  -15.2015 H   0  0  0  0  0  0  0  0  0  0  0  0
   28.8615   43.3901  -13.9682 H   0  0  0  0  0  0  0  0  0  0  0  0
   29.7725   44.8648  -13.6598 H   0  0  0  0  0  0  0  0  0  0  0  0
   26.7189   44.7200  -14.0264 H   0  0  0  0  0  0  0  0  0  0  0  0
   27.6394   46.1884  -13.8334 H   0  0  0  0  0  0  0  0  0  0  0  0
   26.7696   45.7715  -11.6872 H   0  0  0  0  0  0  0  0  0  0  0  0
   28.4432   45.3314  -11.5625 H   0  0  0  0  0  0  0  0  0  0  0  0
   24.9041   43.9085  -10.9534 H   0  0  0  0  0  0  0  0  0  0  0  0
   25.5232   40.4192   -9.3454 H   0  0  0  0  0  0  0  0  0  0  0  0
   24.6215   40.3282  -10.8404 H   0  0  0  0  0  0  0  0  0  0  0  0
   23.2221   42.0400  -10.1406 H   0  0  0  0  0  0  0  0  0  0  0  0
   22.4419   41.3678   -7.9058 H   0  0  0  0  0  0  0  0  0  0  0  0
   23.7479   40.2398   -7.8986 H   0  0  0  0  0  0  0  0  0  0  0  0
   19.7687   38.4950  -10.4552 H   0  0  0  0  0  0  0  0  0  0  0  0
   20.0763   38.0498   -8.8134 H   0  0  0  0  0  0  0  0  0  0  0  0
   17.9262   40.2856  -10.8187 H   0  0  0  0  0  0  0  0  0  0  0  0
   17.1560   38.7293  -10.8395 H   0  0  0  0  0  0  0  0  0  0  0  0
   16.2839   41.0554   -9.0650 H   0  0  0  0  0  0  0  0  0  0  0  0
   15.4146   39.5554   -9.2475 H   0  0  0  0  0  0  0  0  0  0  0  0
   15.9715   41.4747  -11.5621 H   0  0  0  0  0  0  0  0  0  0  0  0
   15.0261   40.0158  -11.6391 H   0  0  0  0  0  0  0  0  0  0  0  0
   13.3117   40.9519  -10.1419 H   0  0  0  0  0  0  0  0  0  0  0  0
   13.5529   41.9495  -11.5506 H   0  0  0  0  0  0  0  0  0  0  0  0
   13.2845   43.4269   -9.7056 H   0  0  0  0  0  0  0  0  0  0  0  0
   14.3563   42.5145   -8.6816 H   0  0  0  0  0  0  0  0  0  0  0  0
   16.3144   43.2547   -9.8864 H   0  0  0  0  0  0  0  0  0  0  0  0
   15.3706   44.6509   -9.4365 H   0  0  0  0  0  0  0  0  0  0  0  0
   16.5019   45.8664  -11.2524 H   0  0  0  0  0  0  0  0  0  0  0  0
   16.1330   45.3794  -12.8760 H   0  0  0  0  0  0  0  0  0  0  0  0
   20.5948   40.9097  -11.1749 H   0  0  0  0  0  0  0  0  0  0  0  0
   21.9700   43.4507  -11.5766 H   0  0  0  0  0  0  0  0  0  0  0  0
   21.4426   44.5822  -10.3474 H   0  0  0  0  0  0  0  0  0  0  0  0
   21.0782   44.8899  -12.0400 H   0  0  0  0  0  0  0  0  0  0  0  0
   19.5228   45.2419   -9.4337 H   0  0  0  0  0  0  0  0  0  0  0  0
   17.7858   45.1124   -9.4037 H   0  0  0  0  0  0  0  0  0  0  0  0
   18.5743   46.2616  -10.4980 H   0  0  0  0  0  0  0  0  0  0  0  0
   16.6247   38.0490   -7.9950 H   0  0  0  0  0  0  0  0  0  0  0  0
   18.2207   37.5785   -7.4690 H   0  0  0  0  0  0  0  0  0  0  0  0
   17.6201   37.0282   -9.0282 H   0  0  0  0  0  0  0  0  0  0  0  0
   23.3473   38.2543   -9.1177 H   0  0  0  0  0  0  0  0  0  0  0  0
  1  2  1  0  0  0  0
  1 40  1  0  0  0  0
  1 41  1  0  0  0  0
  1 42  1  0  0  0  0
  2  3  1  0  0  0  0
  2 43  1  0  0  0  0
  2 44  1  0  0  0  0
  3 45  1  0  0  0  0
  3 46  1  0  0  0  0
  3  4  1  0  0  0  0
  4  8  2  0  0  0  0
  4  5  1  0  0  0  0
  5  6  2  0  0  0  0
  5 47  1  0  0  0  0
  6  7  1  0  0  0  0
  6  9  1  0  0  0  0
  7  8  1  0  0  0  0
  7 35  1  0  0  0  0
  9 10  1  0  0  0  0
  9 48  1  0  0  0  0
  9 49  1  0  0  0  0
 10 11  1  0  0  0  0
 10 50  1  0  0  0  0
 11 12  1  0  0  0  0
 11 51  1  0  0  0  0
 11 52  1  0  0  0  0
 12 36  1  6  0  0  0
 12 13  1  0  0  0  0
 12 34  1  0  0  0  0
 13 37  1  1  0  0  0
 13 30  1  0  0  0  0
 13 14  1  0  0  0  0
 14 15  1  0  0  0  0
 14 53  1  0  0  0  0
 14 54  1  0  0  0  0
 15 38  1  1  0  0  0
 15 16  1  0  0  0  0
 15 33  1  0  0  0  0
 16 17  1  0  0  0  0
 16 55  1  0  0  0  0
 16 56  1  0  0  0  0
 17 18  1  0  0  0  0
 17 57  1  0  0  0  0
 17 58  1  0  0  0  0
 18 19  1  0  0  0  0
 18 59  1  0  0  0  0
 18 60  1  0  0  0  0
 19 20  1  0  0  0  0
 19 61  1  0  0  0  0
 19 62  1  0  0  0  0
 20 21  1  0  0  0  0
 20 63  1  0  0  0  0
 20 64  1  0  0  0  0
 21 22  1  0  0  0  0
 21 65  1  0  0  0  0
 21 66  1  0  0  0  0
 22 23  1  0  0  0  0
 23 24  1  0  0  0  0
 23 67  1  0  0  0  0
 23 68  1  0  0  0  0
 24 25  2  0  0  0  0
 24 26  1  0  0  0  0
 26 27  1  0  0  0  0
 26 32  1  0  0  0  0
 27 39  1  6  0  0  0
 27 28  1  0  0  0  0
 27 31  1  0  0  0  0
 28 29  2  0  0  0  0
 28 30  1  0  0  0  0
 30 69  1  0  0  0  0
 31 70  1  0  0  0  0
 31 71  1  0  0  0  0
 31 72  1  0  0  0  0
 32 73  1  0  0  0  0
 32 74  1  0  0  0  0
 32 75  1  0  0  0  0
 33 76  1  0  0  0  0
 33 77  1  0  0  0  0
 33 78  1  0  0  0  0
 34 79  1  0  0  0  0
M  END
