BACE_9.smi:1
 OpenBabel09281823033D
Structure written by MMmdl.
 88 90  0  0  1  0  0  0  0  0999 V2000
   20.5568   42.5947   -6.1708 C   0  0  0  0  0  0  0  0  0  0  0  0
   21.9008   43.1096   -6.7175 C   0  0  2  0  0  0  0  0  0  0  0  0
   22.3169   44.4017   -5.9818 C   0  0  0  0  0  0  0  0  0  0  0  0
   23.7238   44.9047   -6.3432 C   0  0  0  0  0  0  0  0  0  0  0  0
   24.1749   46.0920   -5.4821 C   0  0  0  0  0  0  0  0  0  0  0  0
   25.5829   46.6010   -5.8395 C   0  0  0  0  0  0  0  0  0  0  0  0
   26.7247   45.6751   -5.3657 C   0  0  0  0  0  0  0  0  0  0  0  0
   28.0989   46.0017   -5.9864 C   0  0  0  0  0  0  0  0  0  0  0  0
   28.3963   45.2213   -7.2798 C   0  0  0  0  0  0  0  0  0  0  0  0
   27.4875   45.5938   -8.3532 N   0  0  0  0  0  0  0  0  0  0  0  0
   27.1554   44.6227   -9.3042 C   0  0  0  0  0  0  0  0  0  0  0  0
   28.1016   43.6980   -9.7972 C   0  0  0  0  0  0  0  0  0  0  0  0
   27.7296   42.7582  -10.7802 C   0  0  0  0  0  0  0  0  0  0  0  0
   26.4015   42.7263  -11.2552 C   0  0  0  0  0  0  0  0  0  0  0  0
   25.4430   43.6239  -10.7418 C   0  0  0  0  0  0  0  0  0  0  0  0
   25.8322   44.5848   -9.7849 C   0  0  0  0  0  0  0  0  0  0  0  0
   24.0340   43.5892  -11.2525 C   0  0  0  0  0  0  0  0  0  0  0  0
   23.8082   43.7648  -12.4461 O   0  0  0  0  0  0  0  0  0  0  0  0
   23.0310   43.3852  -10.3805 N   0  0  0  0  0  0  0  0  0  0  0  0
   23.0920   42.8198   -9.0264 C   0  0  1  0  0  0  0  0  0  0  0  0
   21.8344   43.2882   -8.2566 C   0  0  0  0  0  0  0  0  0  0  0  0
   23.1948   41.2680   -9.0784 C   0  0  1  0  0  0  0  0  0  0  0  0
   22.3427   40.6136  -10.1897 C   0  0  0  0  0  0  0  0  0  0  0  0
   22.0596   39.1715   -9.9754 N   0  3  0  0  0  0  0  0  0  0  0  0
   20.9778   38.8358   -9.0211 C   0  0  0  0  0  0  0  0  0  0  0  0
   19.5567   39.1680   -9.4833 C   0  0  0  0  0  0  0  0  0  0  0  0
   19.2703   39.7820  -10.7258 C   0  0  0  0  0  0  0  0  0  0  0  0
   17.9554   40.1463  -11.0524 C   0  0  0  0  0  0  0  0  0  0  0  0
   16.8944   39.8331  -10.1836 C   0  0  0  0  0  0  0  0  0  0  0  0
   17.1488   39.1520   -8.9739 C   0  0  0  0  0  0  0  0  0  0  0  0
   18.4823   38.8407   -8.6275 C   0  0  0  0  0  0  0  0  0  0  0  0
   16.0212   38.7345   -8.0314 C   0  0  0  0  0  0  0  0  0  0  0  0
   14.6612   38.5459   -8.7226 C   0  0  0  0  0  0  0  0  0  0  0  0
   15.8998   39.6967   -6.8436 C   0  0  0  0  0  0  0  0  0  0  0  0
   24.5589   40.9503   -9.2546 O   0  0  0  0  0  0  0  0  0  0  0  0
   28.7586   41.7771  -11.3115 C   0  0  0  0  0  0  0  0  0  0  0  0
   29.7329   42.3845  -12.1467 O   0  0  0  0  0  0  0  0  0  0  0  0
   29.2447   42.6931  -13.4421 C   0  0  0  0  0  0  0  0  0  0  0  0
   22.6410   42.3468   -6.4738 H   0  0  0  0  0  0  0  0  0  0  0  0
   23.9601   43.2113   -8.5004 H   0  0  0  0  0  0  0  0  0  0  0  0
   22.9072   40.8549   -8.1109 H   0  0  0  0  0  0  0  0  0  0  0  0
   19.7475   43.2992   -6.3713 H   0  0  0  0  0  0  0  0  0  0  0  0
   20.5977   42.4425   -5.0924 H   0  0  0  0  0  0  0  0  0  0  0  0
   20.2837   41.6418   -6.6217 H   0  0  0  0  0  0  0  0  0  0  0  0
   21.5874   45.1909   -6.1721 H   0  0  0  0  0  0  0  0  0  0  0  0
   22.2829   44.2183   -4.9074 H   0  0  0  0  0  0  0  0  0  0  0  0
   24.4293   44.0803   -6.2375 H   0  0  0  0  0  0  0  0  0  0  0  0
   23.7459   45.2059   -7.3904 H   0  0  0  0  0  0  0  0  0  0  0  0
   23.4642   46.9082   -5.6129 H   0  0  0  0  0  0  0  0  0  0  0  0
   24.1346   45.8237   -4.4273 H   0  0  0  0  0  0  0  0  0  0  0  0
   25.6257   46.7650   -6.9135 H   0  0  0  0  0  0  0  0  0  0  0  0
   25.7291   47.5845   -5.3887 H   0  0  0  0  0  0  0  0  0  0  0  0
   26.8024   45.7604   -4.2810 H   0  0  0  0  0  0  0  0  0  0  0  0
   26.4876   44.6280   -5.5543 H   0  0  0  0  0  0  0  0  0  0  0  0
   28.2028   47.0745   -6.1477 H   0  0  0  0  0  0  0  0  0  0  0  0
   28.8704   45.7377   -5.2617 H   0  0  0  0  0  0  0  0  0  0  0  0
   29.4162   45.4282   -7.6056 H   0  0  0  0  0  0  0  0  0  0  0  0
   28.3353   44.1501   -7.0824 H   0  0  0  0  0  0  0  0  0  0  0  0
   26.7480   46.2240   -8.0852 H   0  0  0  0  0  0  0  0  0  0  0  0
   29.1229   43.7165   -9.4430 H   0  0  0  0  0  0  0  0  0  0  0  0
   26.1144   42.0062  -12.0073 H   0  0  0  0  0  0  0  0  0  0  0  0
   25.1080   45.2952   -9.4172 H   0  0  0  0  0  0  0  0  0  0  0  0
   22.1064   43.4875  -10.7691 H   0  0  0  0  0  0  0  0  0  0  0  0
   20.9672   42.7550   -8.6510 H   0  0  0  0  0  0  0  0  0  0  0  0
   21.6332   44.3367   -8.4753 H   0  0  0  0  0  0  0  0  0  0  0  0
   21.4074   41.1616  -10.2700 H   0  0  0  0  0  0  0  0  0  0  0  0
   22.8365   40.7269  -11.1565 H   0  0  0  0  0  0  0  0  0  0  0  0
   21.8033   38.7700  -10.8647 H   0  0  0  0  0  0  0  0  0  0  0  0
   21.0199   37.7614   -8.8430 H   0  0  0  0  0  0  0  0  0  0  0  0
   21.1628   39.3129   -8.0577 H   0  0  0  0  0  0  0  0  0  0  0  0
   20.0372   40.0021  -11.4490 H   0  0  0  0  0  0  0  0  0  0  0  0
   17.7511   40.6341  -11.9944 H   0  0  0  0  0  0  0  0  0  0  0  0
   15.8910   40.1015  -10.4753 H   0  0  0  0  0  0  0  0  0  0  0  0
   18.6744   38.3432   -7.6884 H   0  0  0  0  0  0  0  0  0  0  0  0
   16.2972   37.7534   -7.6406 H   0  0  0  0  0  0  0  0  0  0  0  0
   14.7296   37.8388   -9.5496 H   0  0  0  0  0  0  0  0  0  0  0  0
   14.2533   39.4830   -9.1017 H   0  0  0  0  0  0  0  0  0  0  0  0
   13.9379   38.1519   -8.0132 H   0  0  0  0  0  0  0  0  0  0  0  0
   16.8411   39.7483   -6.3009 H   0  0  0  0  0  0  0  0  0  0  0  0
   15.1378   39.3594   -6.1379 H   0  0  0  0  0  0  0  0  0  0  0  0
   15.6367   40.7076   -7.1586 H   0  0  0  0  0  0  0  0  0  0  0  0
   24.6810   40.0115   -9.3422 H   0  0  0  0  0  0  0  0  0  0  0  0
   29.2864   41.3498  -10.4614 H   0  0  0  0  0  0  0  0  0  0  0  0
   28.2706   40.9486  -11.8280 H   0  0  0  0  0  0  0  0  0  0  0  0
   30.0426   43.1280  -14.0413 H   0  0  0  0  0  0  0  0  0  0  0  0
   28.4316   43.4177  -13.3991 H   0  0  0  0  0  0  0  0  0  0  0  0
   28.8891   41.7982  -13.9550 H   0  0  0  0  0  0  0  0  0  0  0  0
   22.9266   38.7337   -9.6730 H   0  0  0  0  0  0  0  0  0  0  0  0
  1  2  1  0  0  0  0
  1 42  1  0  0  0  0
  1 43  1  0  0  0  0
  1 44  1  0  0  0  0
  2 39  1  1  0  0  0
  2 21  1  0  0  0  0
  2  3  1  0  0  0  0
  3  4  1  0  0  0  0
  3 45  1  0  0  0  0
  3 46  1  0  0  0  0
  4  5  1  0  0  0  0
  4 47  1  0  0  0  0
  4 48  1  0  0  0  0
  5  6  1  0  0  0  0
  5 49  1  0  0  0  0
  5 50  1  0  0  0  0
  6  7  1  0  0  0  0
  6 51  1  0  0  0  0
  6 52  1  0  0  0  0
  7  8  1  0  0  0  0
  7 53  1  0  0  0  0
  7 54  1  0  0  0  0
  8  9  1  0  0  0  0
  8 55  1  0  0  0  0
  8 56  1  0  0  0  0
  9 10  1  0  0  0  0
  9 57  1  0  0  0  0
  9 58  1  0  0  0  0
 10 11  1  0  0  0  0
 10 59  1  0  0  0  0
 11 16  1  0  0  0  0
 11 12  2  0  0  0  0
 12 13  1  0  0  0  0
 12 60  1  0  0  0  0
 13 14  2  0  0  0  0
 13 36  1  0  0  0  0
 14 15  1  0  0  0  0
 14 61  1  0  0  0  0
 15 16  2  0  0  0  0
 15 17  1  0  0  0  0
 16 62  1  0  0  0  0
 17 18  2  0  0  0  0
 17 19  1  0  0  0  0
 19 20  1  0  0  0  0
 19 63  1  0  0  0  0
 20 40  1  1  0  0  0
 20 21  1  0  0  0  0
 20 22  1  0  0  0  0
 21 64  1  0  0  0  0
 21 65  1  0  0  0  0
 22 41  1  1  0  0  0
 22 23  1  0  0  0  0
 22 35  1  0  0  0  0
 23 24  1  0  0  0  0
 23 66  1  0  0  0  0
 23 67  1  0  0  0  0
 24 25  1  0  0  0  0
 24 68  1  0  0  0  0
 24 88  1  0  0  0  0
 25 26  1  0  0  0  0
 25 69  1  0  0  0  0
 25 70  1  0  0  0  0
 26 31  1  0  0  0  0
 26 27  2  0  0  0  0
 27 28  1  0  0  0  0
 27 71  1  0  0  0  0
 28 29  2  0  0  0  0
 28 72  1  0  0  0  0
 29 30  1  0  0  0  0
 29 73  1  0  0  0  0
 30 31  2  0  0  0  0
 30 32  1  0  0  0  0
 31 74  1  0  0  0  0
 32 33  1  0  0  0  0
 32 34  1  0  0  0  0
 32 75  1  0  0  0  0
 33 76  1  0  0  0  0
 33 77  1  0  0  0  0
 33 78  1  0  0  0  0
 34 79  1  0  0  0  0
 34 80  1  0  0  0  0
 34 81  1  0  0  0  0
 35 82  1  0  0  0  0
 36 37  1  0  0  0  0
 36 83  1  0  0  0  0
 36 84  1  0  0  0  0
 37 38  1  0  0  0  0
 38 85  1  0  0  0  0
 38 86  1  0  0  0  0
 38 87  1  0  0  0  0
M  CHG  1  24   1
M  END
