BACE_11.smi:1
 OpenBabel09281823033D
Structure written by MMmdl.
 80 82  0  0  1  0  0  0  0  0999 V2000
   21.3593   41.7437   -4.6595 C   0  0  0  0  0  0  0  0  0  0  0  0
   21.2409   41.5566   -6.1813 C   0  0  1  0  0  0  0  0  0  0  0  0
   20.4211   40.3223   -6.6171 C   0  0  0  0  0  0  0  0  0  0  0  0
   20.5852   39.2446   -6.0424 O   0  0  0  0  0  0  0  0  0  0  0  0
   19.5852   40.4659   -7.6601 N   0  0  0  0  0  0  0  0  0  0  0  0
   18.9202   39.4209   -8.4427 C   0  0  1  0  0  0  0  0  0  0  0  0
   19.9341   38.7334   -9.3954 C   0  0  0  0  0  0  0  0  0  0  0  0
   20.5683   39.7063  -10.3795 C   0  0  0  0  0  0  0  0  0  0  0  0
   20.0613   39.8339  -11.6891 C   0  0  0  0  0  0  0  0  0  0  0  0
   20.6183   40.7794  -12.5727 C   0  0  0  0  0  0  0  0  0  0  0  0
   21.6695   41.6180  -12.1457 C   0  0  0  0  0  0  0  0  0  0  0  0
   22.1831   41.4949  -10.8327 C   0  0  0  0  0  0  0  0  0  0  0  0
   21.6450   40.5190   -9.9754 C   0  0  0  0  0  0  0  0  0  0  0  0
   23.1710   42.2844  -10.2991 O   0  0  0  0  0  0  0  0  0  0  0  0
   23.8334   43.2227  -11.1227 C   0  0  0  0  0  0  0  0  0  0  0  0
   24.8989   43.9345  -10.2735 C   0  0  0  0  0  0  0  0  0  0  0  0
   24.3239   44.9143   -9.2290 C   0  0  0  0  0  0  0  0  0  0  0  0
   24.3497   44.4255   -7.7599 C   0  0  0  0  0  0  0  0  0  0  0  0
   23.3582   43.3108   -7.3439 C   0  0  0  0  0  0  0  0  0  0  0  0
   21.8664   43.7031   -7.3478 C   0  0  0  0  0  0  0  0  0  0  0  0
   21.5479   44.7984   -7.8153 O   0  0  0  0  0  0  0  0  0  0  0  0
   20.9322   42.8557   -6.8365 N   0  0  0  0  0  0  0  0  0  0  0  0
   19.5322   43.3085   -6.7949 C   0  0  0  0  0  0  0  0  0  0  0  0
   18.0707   38.4127   -7.6200 C   0  0  1  0  0  0  0  0  0  0  0  0
   16.7838   39.0000   -6.9889 C   0  0  0  0  0  0  0  0  0  0  0  0
   16.6605   40.4408   -7.2427 N   0  0  0  0  0  0  0  0  0  0  0  0
   15.2957   40.9177   -7.4661 C   0  0  0  0  0  0  0  0  0  0  0  0
   15.2416   41.9524   -8.5683 C   0  0  0  0  0  0  0  0  0  0  0  0
   14.3552   41.7761   -9.6505 C   0  0  0  0  0  0  0  0  0  0  0  0
   14.3378   42.7133  -10.6989 C   0  0  0  0  0  0  0  0  0  0  0  0
   15.1981   43.8274  -10.6700 C   0  0  0  0  0  0  0  0  0  0  0  0
   16.0920   44.0107   -9.5930 C   0  0  0  0  0  0  0  0  0  0  0  0
   16.1014   43.0708   -8.5405 C   0  0  0  0  0  0  0  0  0  0  0  0
   17.0457   45.1973   -9.5622 C   0  0  0  0  0  0  0  0  0  0  0  0
   18.5014   44.7527   -9.7739 C   0  0  0  0  0  0  0  0  0  0  0  0
   16.8937   46.0274   -8.2759 C   0  0  0  0  0  0  0  0  0  0  0  0
   17.6981   37.3896   -8.5246 O   0  0  0  0  0  0  0  0  0  0  0  0
   22.2334   41.2387   -6.4983 H   0  0  0  0  0  0  0  0  0  0  0  0
   18.2188   39.9757   -9.0705 H   0  0  0  0  0  0  0  0  0  0  0  0
   18.6783   37.9851   -6.8256 H   0  0  0  0  0  0  0  0  0  0  0  0
   21.7589   40.8521   -4.1732 H   0  0  0  0  0  0  0  0  0  0  0  0
   20.3928   41.9716   -4.2079 H   0  0  0  0  0  0  0  0  0  0  0  0
   22.0308   42.5688   -4.4256 H   0  0  0  0  0  0  0  0  0  0  0  0
   19.5204   41.3994   -8.0411 H   0  0  0  0  0  0  0  0  0  0  0  0
   20.7219   38.2440   -8.8200 H   0  0  0  0  0  0  0  0  0  0  0  0
   19.4483   37.9391   -9.9632 H   0  0  0  0  0  0  0  0  0  0  0  0
   19.2381   39.2157  -12.0174 H   0  0  0  0  0  0  0  0  0  0  0  0
   20.2260   40.8779  -13.5755 H   0  0  0  0  0  0  0  0  0  0  0  0
   22.0575   42.3542  -12.8356 H   0  0  0  0  0  0  0  0  0  0  0  0
   22.0472   40.4291   -8.9763 H   0  0  0  0  0  0  0  0  0  0  0  0
   24.3144   42.7052  -11.9541 H   0  0  0  0  0  0  0  0  0  0  0  0
   23.1312   43.9487  -11.5391 H   0  0  0  0  0  0  0  0  0  0  0  0
   25.5668   43.2112   -9.8023 H   0  0  0  0  0  0  0  0  0  0  0  0
   25.5304   44.5063  -10.9558 H   0  0  0  0  0  0  0  0  0  0  0  0
   24.9384   45.8148   -9.2652 H   0  0  0  0  0  0  0  0  0  0  0  0
   23.3329   45.2508   -9.5244 H   0  0  0  0  0  0  0  0  0  0  0  0
   25.3609   44.0961   -7.5195 H   0  0  0  0  0  0  0  0  0  0  0  0
   24.1792   45.2876   -7.1133 H   0  0  0  0  0  0  0  0  0  0  0  0
   23.5140   42.4238   -7.9540 H   0  0  0  0  0  0  0  0  0  0  0  0
   23.6173   43.0110   -6.3311 H   0  0  0  0  0  0  0  0  0  0  0  0
   19.0910   43.2708   -7.7918 H   0  0  0  0  0  0  0  0  0  0  0  0
   19.4382   44.3337   -6.4397 H   0  0  0  0  0  0  0  0  0  0  0  0
   18.9188   42.6976   -6.1332 H   0  0  0  0  0  0  0  0  0  0  0  0
   15.9210   38.5198   -7.4501 H   0  0  0  0  0  0  0  0  0  0  0  0
   16.7108   38.7746   -5.9238 H   0  0  0  0  0  0  0  0  0  0  0  0
   17.0239   40.9414   -6.4334 H   0  0  0  0  0  0  0  0  0  0  0  0
   14.6545   40.0794   -7.7372 H   0  0  0  0  0  0  0  0  0  0  0  0
   14.8611   41.3421   -6.5644 H   0  0  0  0  0  0  0  0  0  0  0  0
   13.7115   40.9091   -9.6907 H   0  0  0  0  0  0  0  0  0  0  0  0
   13.6713   42.5649  -11.5348 H   0  0  0  0  0  0  0  0  0  0  0  0
   15.1747   44.5274  -11.4888 H   0  0  0  0  0  0  0  0  0  0  0  0
   16.7860   43.1976   -7.7147 H   0  0  0  0  0  0  0  0  0  0  0  0
   16.7845   45.8531  -10.3939 H   0  0  0  0  0  0  0  0  0  0  0  0
   18.6120   44.2064  -10.7113 H   0  0  0  0  0  0  0  0  0  0  0  0
   18.8454   44.1037   -8.9695 H   0  0  0  0  0  0  0  0  0  0  0  0
   19.1719   45.6120   -9.8140 H   0  0  0  0  0  0  0  0  0  0  0  0
   15.8611   46.3472   -8.1363 H   0  0  0  0  0  0  0  0  0  0  0  0
   17.5128   46.9240   -8.3128 H   0  0  0  0  0  0  0  0  0  0  0  0
   17.1860   45.4685   -7.3876 H   0  0  0  0  0  0  0  0  0  0  0  0
   16.9362   36.9473   -8.1803 H   0  0  0  0  0  0  0  0  0  0  0  0
  1  2  1  0  0  0  0
  1 41  1  0  0  0  0
  1 42  1  0  0  0  0
  1 43  1  0  0  0  0
  2 38  1  6  0  0  0
  2 22  1  0  0  0  0
  2  3  1  0  0  0  0
  3  4  2  0  0  0  0
  3  5  1  0  0  0  0
  5  6  1  0  0  0  0
  5 44  1  0  0  0  0
  6 39  1  6  0  0  0
  6  7  1  0  0  0  0
  6 24  1  0  0  0  0
  7  8  1  0  0  0  0
  7 45  1  0  0  0  0
  7 46  1  0  0  0  0
  8 13  1  0  0  0  0
  8  9  2  0  0  0  0
  9 10  1  0  0  0  0
  9 47  1  0  0  0  0
 10 11  2  0  0  0  0
 10 48  1  0  0  0  0
 11 12  1  0  0  0  0
 11 49  1  0  0  0  0
 12 13  2  0  0  0  0
 12 14  1  0  0  0  0
 13 50  1  0  0  0  0
 14 15  1  0  0  0  0
 15 16  1  0  0  0  0
 15 51  1  0  0  0  0
 15 52  1  0  0  0  0
 16 17  1  0  0  0  0
 16 53  1  0  0  0  0
 16 54  1  0  0  0  0
 17 18  1  0  0  0  0
 17 55  1  0  0  0  0
 17 56  1  0  0  0  0
 18 19  1  0  0  0  0
 18 57  1  0  0  0  0
 18 58  1  0  0  0  0
 19 20  1  0  0  0  0
 19 59  1  0  0  0  0
 19 60  1  0  0  0  0
 20 21  2  0  0  0  0
 20 22  1  0  0  0  0
 22 23  1  0  0  0  0
 23 61  1  0  0  0  0
 23 62  1  0  0  0  0
 23 63  1  0  0  0  0
 24 40  1  1  0  0  0
 24 25  1  0  0  0  0
 24 37  1  0  0  0  0
 25 26  1  0  0  0  0
 25 64  1  0  0  0  0
 25 65  1  0  0  0  0
 26 27  1  0  0  0  0
 26 66  1  0  0  0  0
 27 28  1  0  0  0  0
 27 67  1  0  0  0  0
 27 68  1  0  0  0  0
 28 33  1  0  0  0  0
 28 29  2  0  0  0  0
 29 30  1  0  0  0  0
 29 69  1  0  0  0  0
 30 31  2  0  0  0  0
 30 70  1  0  0  0  0
 31 32  1  0  0  0  0
 31 71  1  0  0  0  0
 32 33  2  0  0  0  0
 32 34  1  0  0  0  0
 33 72  1  0  0  0  0
 34 35  1  0  0  0  0
 34 36  1  0  0  0  0
 34 73  1  0  0  0  0
 35 74  1  0  0  0  0
 35 75  1  0  0  0  0
 35 76  1  0  0  0  0
 36 77  1  0  0  0  0
 36 78  1  0  0  0  0
 36 79  1  0  0  0  0
 37 80  1  0  0  0  0
M  END
