BACE_4.smi:1
 OpenBabel09281823033D
Structure written by MMmdl.
 90 92  0  0  1  0  0  0  0  0999 V2000
   19.9230   39.6633  -11.3769 C   0  0  0  0  0  0  0  0  0  0  0  0
   19.9053   39.1900   -9.9097 C   0  0  2  0  0  0  0  0  0  0  0  0
   18.6194   38.3954   -9.5621 C   0  0  0  0  0  0  0  0  0  0  0  0
   17.2873   38.9039  -10.1577 C   0  0  0  0  0  0  0  0  0  0  0  0
   16.7893   40.2663   -9.6611 C   0  0  0  0  0  0  0  0  0  0  0  0
   15.4549   40.6535  -10.3237 C   0  0  0  0  0  0  0  0  0  0  0  0
   14.8865   42.0020   -9.8510 C   0  0  0  0  0  0  0  0  0  0  0  0
   15.7529   43.2143  -10.2203 C   0  0  0  0  0  0  0  0  0  0  0  0
   15.8251   43.3641  -11.6351 O   0  0  0  0  0  0  0  0  0  0  0  0
   16.6661   44.4340  -12.0566 C   0  0  0  0  0  0  0  0  0  0  0  0
   18.1438   43.9939  -12.0394 C   0  0  0  0  0  0  0  0  0  0  0  0
   18.4600   43.1124  -12.8398 O   0  0  0  0  0  0  0  0  0  0  0  0
   19.0328   44.5694  -11.1827 N   0  0  0  0  0  0  0  0  0  0  0  0
   20.4696   44.1965  -11.2045 C   0  0  2  0  0  0  0  0  0  0  0  0
   20.9080   43.4349   -9.9429 C   0  0  0  0  0  0  0  0  0  0  0  0
   21.0370   44.0115   -8.8637 O   0  0  0  0  0  0  0  0  0  0  0  0
   21.1782   42.1312  -10.1077 N   0  0  0  0  0  0  0  0  0  0  0  0
   21.4675   41.1641   -9.0473 C   0  0  1  0  0  0  0  0  0  0  0  0
   20.2083   40.2807   -8.8455 C   0  0  0  0  0  0  0  0  0  0  0  0
   22.7797   40.3811   -9.3390 C   0  0  1  0  0  0  0  0  0  0  0  0
   24.0815   41.1875   -9.1352 C   0  0  0  0  0  0  0  0  0  0  0  0
   24.1814   42.3631  -10.0288 N   0  3  0  0  0  0  0  0  0  0  0  0
   25.3233   43.2788   -9.7852 C   0  0  0  0  0  0  0  0  0  0  0  0
   24.8437   44.6560   -9.3574 C   0  0  0  0  0  0  0  0  0  0  0  0
   25.5187   43.7551   -8.3552 C   0  0  0  0  0  0  0  0  0  0  0  0
   26.4733   43.1012  -10.7425 C   0  0  0  0  0  0  0  0  0  0  0  0
   27.2125   41.9007  -10.7644 C   0  0  0  0  0  0  0  0  0  0  0  0
   28.3021   41.7500  -11.6394 C   0  0  0  0  0  0  0  0  0  0  0  0
   28.6842   42.8013  -12.4893 C   0  0  0  0  0  0  0  0  0  0  0  0
   27.9739   44.0247  -12.4812 C   0  0  0  0  0  0  0  0  0  0  0  0
   26.8606   44.1448  -11.6151 C   0  0  0  0  0  0  0  0  0  0  0  0
   28.4094   45.2288  -13.3391 C   0  0  0  0  0  0  0  0  0  0  0  0
   28.8866   46.3633  -12.4109 C   0  0  0  0  0  0  0  0  0  0  0  0
   29.5653   44.8916  -14.3078 C   0  0  0  0  0  0  0  0  0  0  0  0
   27.2297   45.7389  -14.1886 C   0  0  0  0  0  0  0  0  0  0  0  0
   22.8599   39.2978   -8.4398 O   0  0  0  0  0  0  0  0  0  0  0  0
   21.3552   45.4393  -11.4425 C   0  0  0  0  0  0  0  0  0  0  0  0
   18.6053   45.5671  -10.1883 C   0  0  0  0  0  0  0  0  0  0  0  0
   20.7152   38.4653   -9.8273 H   0  0  0  0  0  0  0  0  0  0  0  0
   20.6761   43.5315  -12.0397 H   0  0  0  0  0  0  0  0  0  0  0  0
   21.6140   41.6975   -8.1057 H   0  0  0  0  0  0  0  0  0  0  0  0
   22.7611   39.9662  -10.3471 H   0  0  0  0  0  0  0  0  0  0  0  0
   19.6506   38.8449  -12.0396 H   0  0  0  0  0  0  0  0  0  0  0  0
   20.9107   39.9919  -11.6955 H   0  0  0  0  0  0  0  0  0  0  0  0
   19.2241   40.4809  -11.5530 H   0  0  0  0  0  0  0  0  0  0  0  0
   18.7552   37.3775   -9.9312 H   0  0  0  0  0  0  0  0  0  0  0  0
   18.5213   38.2907   -8.4800 H   0  0  0  0  0  0  0  0  0  0  0  0
   16.5190   38.1579   -9.9510 H   0  0  0  0  0  0  0  0  0  0  0  0
   17.3700   38.9502  -11.2400 H   0  0  0  0  0  0  0  0  0  0  0  0
   16.6797   40.2510   -8.5753 H   0  0  0  0  0  0  0  0  0  0  0  0
   17.5304   41.0241   -9.9027 H   0  0  0  0  0  0  0  0  0  0  0  0
   14.7171   39.8781  -10.1135 H   0  0  0  0  0  0  0  0  0  0  0  0
   15.5755   40.6685  -11.4073 H   0  0  0  0  0  0  0  0  0  0  0  0
   13.8887   42.1347  -10.2704 H   0  0  0  0  0  0  0  0  0  0  0  0
   14.7528   41.9702   -8.7694 H   0  0  0  0  0  0  0  0  0  0  0  0
   16.7424   43.1114   -9.7780 H   0  0  0  0  0  0  0  0  0  0  0  0
   15.3112   44.1141   -9.7894 H   0  0  0  0  0  0  0  0  0  0  0  0
   16.4502   45.3463  -11.5040 H   0  0  0  0  0  0  0  0  0  0  0  0
   16.4199   44.6582  -13.0930 H   0  0  0  0  0  0  0  0  0  0  0  0
   21.0175   41.7440  -11.0276 H   0  0  0  0  0  0  0  0  0  0  0  0
   20.3044   39.7800   -7.8811 H   0  0  0  0  0  0  0  0  0  0  0  0
   19.3500   40.9375   -8.7192 H   0  0  0  0  0  0  0  0  0  0  0  0
   24.9476   40.5500   -9.3077 H   0  0  0  0  0  0  0  0  0  0  0  0
   24.1282   41.4893   -8.0918 H   0  0  0  0  0  0  0  0  0  0  0  0
   23.3302   42.8933   -9.9102 H   0  0  0  0  0  0  0  0  0  0  0  0
   25.4093   45.5415   -9.6385 H   0  0  0  0  0  0  0  0  0  0  0  0
   23.7775   44.8220   -9.2134 H   0  0  0  0  0  0  0  0  0  0  0  0
   24.8762   43.4174   -7.5439 H   0  0  0  0  0  0  0  0  0  0  0  0
   26.5284   44.0251   -8.0514 H   0  0  0  0  0  0  0  0  0  0  0  0
   26.9627   41.0833  -10.1051 H   0  0  0  0  0  0  0  0  0  0  0  0
   28.8641   40.8286  -11.6466 H   0  0  0  0  0  0  0  0  0  0  0  0
   29.5416   42.6415  -13.1241 H   0  0  0  0  0  0  0  0  0  0  0  0
   26.3152   45.0754  -11.6007 H   0  0  0  0  0  0  0  0  0  0  0  0
   28.0969   46.7009  -11.7390 H   0  0  0  0  0  0  0  0  0  0  0  0
   29.2158   47.2319  -12.9815 H   0  0  0  0  0  0  0  0  0  0  0  0
   29.7263   46.0424  -11.7920 H   0  0  0  0  0  0  0  0  0  0  0  0
   29.2948   44.0863  -14.9911 H   0  0  0  0  0  0  0  0  0  0  0  0
   30.4695   44.5948  -13.7748 H   0  0  0  0  0  0  0  0  0  0  0  0
   29.8333   45.7543  -14.9185 H   0  0  0  0  0  0  0  0  0  0  0  0
   26.8603   44.9501  -14.8372 H   0  0  0  0  0  0  0  0  0  0  0  0
   27.5290   46.5752  -14.8217 H   0  0  0  0  0  0  0  0  0  0  0  0
   26.3930   46.0853  -13.5825 H   0  0  0  0  0  0  0  0  0  0  0  0
   23.5267   38.7004   -8.7668 H   0  0  0  0  0  0  0  0  0  0  0  0
   22.3911   45.1483  -11.6192 H   0  0  0  0  0  0  0  0  0  0  0  0
   21.3565   46.1245  -10.5938 H   0  0  0  0  0  0  0  0  0  0  0  0
   21.0233   46.0035  -12.3132 H   0  0  0  0  0  0  0  0  0  0  0  0
   19.4023   45.8650   -9.5095 H   0  0  0  0  0  0  0  0  0  0  0  0
   17.7991   45.1861   -9.5611 H   0  0  0  0  0  0  0  0  0  0  0  0
   18.2617   46.4764  -10.6812 H   0  0  0  0  0  0  0  0  0  0  0  0
   24.2275   42.0427  -10.9865 H   0  0  0  0  0  0  0  0  0  0  0  0
  1  2  1  0  0  0  0
  1 43  1  0  0  0  0
  1 44  1  0  0  0  0
  1 45  1  0  0  0  0
  2 39  1  1  0  0  0
  2 19  1  0  0  0  0
  2  3  1  0  0  0  0
  3  4  1  0  0  0  0
  3 46  1  0  0  0  0
  3 47  1  0  0  0  0
  4  5  1  0  0  0  0
  4 48  1  0  0  0  0
  4 49  1  0  0  0  0
  5  6  1  0  0  0  0
  5 50  1  0  0  0  0
  5 51  1  0  0  0  0
  6  7  1  0  0  0  0
  6 52  1  0  0  0  0
  6 53  1  0  0  0  0
  7  8  1  0  0  0  0
  7 54  1  0  0  0  0
  7 55  1  0  0  0  0
  8  9  1  0  0  0  0
  8 56  1  0  0  0  0
  8 57  1  0  0  0  0
  9 10  1  0  0  0  0
 10 11  1  0  0  0  0
 10 58  1  0  0  0  0
 10 59  1  0  0  0  0
 11 12  2  0  0  0  0
 11 13  1  0  0  0  0
 13 14  1  0  0  0  0
 13 38  1  0  0  0  0
 14 40  1  6  0  0  0
 14 15  1  0  0  0  0
 14 37  1  0  0  0  0
 15 16  2  0  0  0  0
 15 17  1  0  0  0  0
 17 18  1  0  0  0  0
 17 60  1  0  0  0  0
 18 41  1  1  0  0  0
 18 19  1  0  0  0  0
 18 20  1  0  0  0  0
 19 61  1  0  0  0  0
 19 62  1  0  0  0  0
 20 42  1  6  0  0  0
 20 21  1  0  0  0  0
 20 36  1  0  0  0  0
 21 22  1  0  0  0  0
 21 63  1  0  0  0  0
 21 64  1  0  0  0  0
 22 23  1  0  0  0  0
 22 65  1  0  0  0  0
 22 90  1  0  0  0  0
 23 25  1  0  0  0  0
 23 24  1  0  0  0  0
 23 26  1  0  0  0  0
 24 25  1  0  0  0  0
 24 66  1  0  0  0  0
 24 67  1  0  0  0  0
 25 68  1  0  0  0  0
 25 69  1  0  0  0  0
 26 31  1  0  0  0  0
 26 27  2  0  0  0  0
 27 28  1  0  0  0  0
 27 70  1  0  0  0  0
 28 29  2  0  0  0  0
 28 71  1  0  0  0  0
 29 30  1  0  0  0  0
 29 72  1  0  0  0  0
 30 31  2  0  0  0  0
 30 32  1  0  0  0  0
 31 73  1  0  0  0  0
 32 33  1  0  0  0  0
 32 34  1  0  0  0  0
 32 35  1  0  0  0  0
 33 74  1  0  0  0  0
 33 75  1  0  0  0  0
 33 76  1  0  0  0  0
 34 77  1  0  0  0  0
 34 78  1  0  0  0  0
 34 79  1  0  0  0  0
 35 80  1  0  0  0  0
 35 81  1  0  0  0  0
 35 82  1  0  0  0  0
 36 83  1  0  0  0  0
 37 84  1  0  0  0  0
 37 85  1  0  0  0  0
 37 86  1  0  0  0  0
 38 87  1  0  0  0  0
 38 88  1  0  0  0  0
 38 89  1  0  0  0  0
M  CHG  1  22   1
M  END
