BACE_16.smi:1
 OpenBabel09281823033D
Structure written by MMmdl.
 84 87  0  0  1  0  0  0  0  0999 V2000
   22.8286   42.9633   -3.6328 C   0  0  0  0  0  0  0  0  0  0  0  0
   21.4288   42.4238   -3.9509 C   0  0  0  0  0  0  0  0  0  0  0  0
   21.1099   41.1623   -3.1307 C   0  0  0  0  0  0  0  0  0  0  0  0
   21.2293   42.1858   -5.4424 C   0  0  0  0  0  0  0  0  0  0  0  0
   20.2107   42.8787   -6.1302 C   0  0  0  0  0  0  0  0  0  0  0  0
   19.9601   42.6068   -7.4881 C   0  0  0  0  0  0  0  0  0  0  0  0
   20.7418   41.6594   -8.1734 C   0  0  0  0  0  0  0  0  0  0  0  0
   21.7981   40.9945   -7.5114 C   0  0  0  0  0  0  0  0  0  0  0  0
   22.0272   41.2537   -6.1418 C   0  0  0  0  0  0  0  0  0  0  0  0
   22.6749   39.9794   -8.2335 C   0  0  0  0  0  0  0  0  0  0  0  0
   22.8599   40.2085   -9.6729 N   0  0  0  0  0  0  0  0  0  0  0  0
   23.4204   41.5134  -10.0796 C   0  0  0  0  0  0  0  0  0  0  0  0
   24.7938   41.8374   -9.4544 C   0  0  2  0  0  0  0  0  0  0  0  0
   25.2270   43.3169   -9.6911 C   0  0  2  0  0  0  0  0  0  0  0  0
   26.1293   43.5807  -10.9335 C   0  0  0  0  0  0  0  0  0  0  0  0
   27.6349   43.4498  -10.6945 C   0  0  0  0  0  0  0  0  0  0  0  0
   28.3187   42.2802  -11.0863 C   0  0  0  0  0  0  0  0  0  0  0  0
   29.6966   42.1497  -10.8399 C   0  0  0  0  0  0  0  0  0  0  0  0
   30.4049   43.1839  -10.1962 C   0  0  0  0  0  0  0  0  0  0  0  0
   29.7416   44.3802   -9.8207 C   0  0  0  0  0  0  0  0  0  0  0  0
   28.3615   44.5016  -10.0930 C   0  0  0  0  0  0  0  0  0  0  0  0
   30.3512   45.4688   -9.2308 O   0  0  0  0  0  0  0  0  0  0  0  0
   31.5915   45.3060   -8.5474 C   0  0  0  0  0  0  0  0  0  0  0  0
   31.3548   44.8215   -7.1077 C   0  0  0  0  0  0  0  0  0  0  0  0
   30.7988   45.9347   -6.1990 C   0  0  0  0  0  0  0  0  0  0  0  0
   30.4353   45.4460   -4.7859 C   0  0  0  0  0  0  0  0  0  0  0  0
   29.3282   44.5501   -4.8382 O   0  0  0  0  0  0  0  0  0  0  0  0
   28.0934   45.1074   -5.0815 C   0  0  0  0  0  0  0  0  0  0  0  0
   27.2857   44.5151   -6.0696 C   0  0  0  0  0  0  0  0  0  0  0  0
   26.0093   45.0329   -6.3740 C   0  0  0  0  0  0  0  0  0  0  0  0
   25.5252   46.1375   -5.6407 C   0  0  0  0  0  0  0  0  0  0  0  0
   26.3064   46.7267   -4.6145 C   0  0  0  0  0  0  0  0  0  0  0  0
   27.5951   46.2152   -4.3571 C   0  0  0  0  0  0  0  0  0  0  0  0
   25.8674   47.7576   -3.8092 O   0  0  0  0  0  0  0  0  0  0  0  0
   24.5302   48.2070   -3.9859 C   0  0  0  0  0  0  0  0  0  0  0  0
   24.1354   49.1474   -2.8467 C   0  0  0  0  0  0  0  0  0  0  0  0
   24.4904   48.9503   -1.6848 O   0  0  0  0  0  0  0  0  0  0  0  0
   23.2062   50.3063   -3.1894 C   0  0  0  0  0  0  0  0  0  0  0  0
   25.1517   44.3979   -7.4327 C   0  0  0  0  0  0  0  0  0  0  0  0
   23.9242   44.4254   -7.3577 O   0  0  0  0  0  0  0  0  0  0  0  0
   25.8173   43.8843   -8.4786 N   0  0  0  0  0  0  0  0  0  0  0  0
   25.7197   40.9497  -10.0400 O   0  0  0  0  0  0  0  0  0  0  0  0
   24.7634   41.6465   -8.3837 H   0  0  0  0  0  0  0  0  0  0  0  0
   24.3103   43.8803   -9.8762 H   0  0  0  0  0  0  0  0  0  0  0  0
   23.0349   43.8787   -4.1914 H   0  0  0  0  0  0  0  0  0  0  0  0
   23.6115   42.2434   -3.8745 H   0  0  0  0  0  0  0  0  0  0  0  0
   22.9003   43.1991   -2.5715 H   0  0  0  0  0  0  0  0  0  0  0  0
   20.7180   43.1919   -3.6421 H   0  0  0  0  0  0  0  0  0  0  0  0
   20.0923   40.8198   -3.3270 H   0  0  0  0  0  0  0  0  0  0  0  0
   21.1943   41.3583   -2.0614 H   0  0  0  0  0  0  0  0  0  0  0  0
   21.7879   40.3428   -3.3724 H   0  0  0  0  0  0  0  0  0  0  0  0
   19.5885   43.5905   -5.6095 H   0  0  0  0  0  0  0  0  0  0  0  0
   19.1565   43.1161   -8.0036 H   0  0  0  0  0  0  0  0  0  0  0  0
   20.5364   41.4521   -9.2131 H   0  0  0  0  0  0  0  0  0  0  0  0
   22.8094   40.7213   -5.6230 H   0  0  0  0  0  0  0  0  0  0  0  0
   23.6407   39.9135   -7.7316 H   0  0  0  0  0  0  0  0  0  0  0  0
   22.2106   39.0020   -8.0929 H   0  0  0  0  0  0  0  0  0  0  0  0
   23.4484   39.4645  -10.0393 H   0  0  0  0  0  0  0  0  0  0  0  0
   23.4885   41.5611  -11.1660 H   0  0  0  0  0  0  0  0  0  0  0  0
   22.7185   42.3011   -9.8047 H   0  0  0  0  0  0  0  0  0  0  0  0
   25.8246   42.9460  -11.7687 H   0  0  0  0  0  0  0  0  0  0  0  0
   25.9574   44.6012  -11.2770 H   0  0  0  0  0  0  0  0  0  0  0  0
   27.7881   41.4686  -11.5637 H   0  0  0  0  0  0  0  0  0  0  0  0
   30.2071   41.2473  -11.1424 H   0  0  0  0  0  0  0  0  0  0  0  0
   31.4583   43.0352  -10.0262 H   0  0  0  0  0  0  0  0  0  0  0  0
   27.8535   45.4128   -9.8134 H   0  0  0  0  0  0  0  0  0  0  0  0
   32.2949   44.6641   -9.0738 H   0  0  0  0  0  0  0  0  0  0  0  0
   32.0807   46.2796   -8.5204 H   0  0  0  0  0  0  0  0  0  0  0  0
   30.6871   43.9595   -7.1146 H   0  0  0  0  0  0  0  0  0  0  0  0
   32.2983   44.4670   -6.6907 H   0  0  0  0  0  0  0  0  0  0  0  0
   31.5451   46.7259   -6.1151 H   0  0  0  0  0  0  0  0  0  0  0  0
   29.9281   46.3963   -6.6668 H   0  0  0  0  0  0  0  0  0  0  0  0
   31.2853   44.9189   -4.3532 H   0  0  0  0  0  0  0  0  0  0  0  0
   30.2514   46.2941   -4.1273 H   0  0  0  0  0  0  0  0  0  0  0  0
   27.6602   43.6529   -6.5989 H   0  0  0  0  0  0  0  0  0  0  0  0
   24.5376   46.5083   -5.8689 H   0  0  0  0  0  0  0  0  0  0  0  0
   28.1782   46.6568   -3.5637 H   0  0  0  0  0  0  0  0  0  0  0  0
   24.4350   48.7174   -4.9437 H   0  0  0  0  0  0  0  0  0  0  0  0
   23.8430   47.3615   -3.9718 H   0  0  0  0  0  0  0  0  0  0  0  0
   23.0607   50.3840   -4.2672 H   0  0  0  0  0  0  0  0  0  0  0  0
   23.6274   51.2449   -2.8276 H   0  0  0  0  0  0  0  0  0  0  0  0
   22.2321   50.1618   -2.7171 H   0  0  0  0  0  0  0  0  0  0  0  0
   26.8268   43.9235   -8.4630 H   0  0  0  0  0  0  0  0  0  0  0  0
   25.4161   40.0604   -9.9146 H   0  0  0  0  0  0  0  0  0  0  0  0
  1  2  1  0  0  0  0
  1 45  1  0  0  0  0
  1 46  1  0  0  0  0
  1 47  1  0  0  0  0
  2  3  1  0  0  0  0
  2  4  1  0  0  0  0
  2 48  1  0  0  0  0
  3 49  1  0  0  0  0
  3 50  1  0  0  0  0
  3 51  1  0  0  0  0
  4  9  1  0  0  0  0
  4  5  2  0  0  0  0
  5  6  1  0  0  0  0
  5 52  1  0  0  0  0
  6  7  2  0  0  0  0
  6 53  1  0  0  0  0
  7  8  1  0  0  0  0
  7 54  1  0  0  0  0
  8  9  2  0  0  0  0
  8 10  1  0  0  0  0
  9 55  1  0  0  0  0
 10 11  1  0  0  0  0
 10 56  1  0  0  0  0
 10 57  1  0  0  0  0
 11 12  1  0  0  0  0
 11 58  1  0  0  0  0
 12 13  1  0  0  0  0
 12 59  1  0  0  0  0
 12 60  1  0  0  0  0
 13 43  1  1  0  0  0
 13 14  1  0  0  0  0
 13 42  1  0  0  0  0
 14 44  1  6  0  0  0
 14 41  1  0  0  0  0
 14 15  1  0  0  0  0
 15 16  1  0  0  0  0
 15 61  1  0  0  0  0
 15 62  1  0  0  0  0
 16 21  1  0  0  0  0
 16 17  2  0  0  0  0
 17 18  1  0  0  0  0
 17 63  1  0  0  0  0
 18 19  2  0  0  0  0
 18 64  1  0  0  0  0
 19 20  1  0  0  0  0
 19 65  1  0  0  0  0
 20 21  2  0  0  0  0
 20 22  1  0  0  0  0
 21 66  1  0  0  0  0
 22 23  1  0  0  0  0
 23 24  1  0  0  0  0
 23 67  1  0  0  0  0
 23 68  1  0  0  0  0
 24 25  1  0  0  0  0
 24 69  1  0  0  0  0
 24 70  1  0  0  0  0
 25 26  1  0  0  0  0
 25 71  1  0  0  0  0
 25 72  1  0  0  0  0
 26 27  1  0  0  0  0
 26 73  1  0  0  0  0
 26 74  1  0  0  0  0
 27 28  1  0  0  0  0
 28 33  1  0  0  0  0
 28 29  2  0  0  0  0
 29 30  1  0  0  0  0
 29 75  1  0  0  0  0
 30 31  2  0  0  0  0
 30 39  1  0  0  0  0
 31 32  1  0  0  0  0
 31 76  1  0  0  0  0
 32 33  2  0  0  0  0
 32 34  1  0  0  0  0
 33 77  1  0  0  0  0
 34 35  1  0  0  0  0
 35 36  1  0  0  0  0
 35 78  1  0  0  0  0
 35 79  1  0  0  0  0
 36 37  2  0  0  0  0
 36 38  1  0  0  0  0
 38 80  1  0  0  0  0
 38 81  1  0  0  0  0
 38 82  1  0  0  0  0
 39 40  2  0  0  0  0
 39 41  1  0  0  0  0
 41 83  1  0  0  0  0
 42 84  1  0  0  0  0
M  END
