BACE_71.smi:1
                    3D
 Structure written by MMmdl.
 85 88  0  0  1  0            999 V2000
   20.3582   41.2481   -2.2765 C   0  0  0  0  0  0
   21.6494   41.5770   -3.0479 C   0  0  0  0  0  0
   22.2956   42.8928   -2.5924 C   0  0  0  0  0  0
   21.3622   41.5755   -4.5429 C   0  0  0  0  0  0
   21.8652   40.5486   -5.3708 C   0  0  0  0  0  0
   21.4771   40.4754   -6.7275 C   0  0  0  0  0  0
   22.0147   39.3673   -7.6206 C   0  0  0  0  0  0
   23.1645   39.8185   -8.4399 N   0  3  0  0  0  0
   22.7996   40.7287   -9.5487 C   0  0  0  0  0  0
   23.9960   41.3267  -10.3120 C   0  0  1  0  0  0
   23.3677   42.1804  -11.2400 O   0  0  0  0  0  0
   24.9960   42.1316   -9.4385 C   0  0  2  0  0  0
   24.4587   43.4726   -8.8720 C   0  0  0  0  0  0
   25.0543   43.8768   -7.5067 C   0  0  2  0  0  0
   24.3630   45.1056   -6.8874 C   0  0  0  0  0  0
   25.4751   46.0247   -6.3626 C   0  0  0  0  0  0
   26.7457   45.1733   -6.3418 C   0  0  2  0  0  0
   28.0414   45.9972   -6.4337 C   0  0  0  0  0  0
   29.2988   45.1797   -6.0942 C   0  0  0  0  0  0
   30.5918   45.7886   -6.6664 C   0  0  0  0  0  0
   30.8159   45.4891   -8.1625 C   0  0  0  0  0  0
   31.2137   44.0272   -8.4206 C   0  0  0  0  0  0
   31.4738   43.7514   -9.8260 N   0  0  0  0  0  0
   30.4692   43.4546  -10.7614 C   0  0  0  0  0  0
   30.8695   43.3535  -12.1088 C   0  0  0  0  0  0
   29.9300   43.0998  -13.1269 C   0  0  0  0  0  0
   28.5742   42.9334  -12.7846 C   0  0  0  0  0  0
   28.1479   43.0154  -11.4437 C   0  0  0  0  0  0
   29.1021   43.2773  -10.4284 C   0  0  0  0  0  0
   26.6781   42.9298  -11.1465 C   0  0  0  0  0  0
   25.8684   43.4475  -11.9140 O   0  0  0  0  0  0
   26.3350   42.2494  -10.0401 N   0  0  0  0  0  0
   30.3585   43.0632  -14.5864 C   0  0  0  0  0  0
   29.6603   42.1500  -15.2574 F   0  0  0  0  0  0
   30.1280   44.2568  -15.1355 F   0  0  0  0  0  0
   31.6566   42.7765  -14.7057 F   0  0  0  0  0  0
   26.5457   44.2291   -7.5294 C   0  0  0  0  0  0
   20.5692   41.4293   -7.2411 C   0  0  0  0  0  0
   20.1273   42.4962   -6.4406 C   0  0  0  0  0  0
   20.5258   42.5712   -5.0951 C   0  0  0  0  0  0
   24.5215   40.5334  -10.8400 H   0  0  0  0  0  0
   25.1715   41.4925   -8.5803 H   0  0  0  0  0  0
   24.9174   43.0494   -6.8095 H   0  0  0  0  0  0
   26.7440   44.5915   -5.4185 H   0  0  0  0  0  0
   20.0495   40.2318   -2.5178 H   0  0  0  0  0  0
   19.5450   41.9254   -2.5404 H   0  0  0  0  0  0
   20.4615   41.2997   -1.1956 H   0  0  0  0  0  0
   22.3640   40.7806   -2.8402 H   0  0  0  0  0  0
   23.2596   43.0350   -3.0827 H   0  0  0  0  0  0
   22.4602   42.9107   -1.5157 H   0  0  0  0  0  0
   21.6719   43.7482   -2.8342 H   0  0  0  0  0  0
   22.5171   39.7945   -4.9541 H   0  0  0  0  0  0
   22.3442   38.5442   -6.9882 H   0  0  0  0  0  0
   21.2205   38.9713   -8.2549 H   0  0  0  0  0  0
   23.8174   40.2846   -7.8279 H   0  0  0  0  0  0
   22.1593   40.1819  -10.2432 H   0  0  0  0  0  0
   22.2050   41.5537   -9.1729 H   0  0  0  0  0  0
   23.6622   41.9197  -12.1087 H   0  0  0  0  0  0
   24.5882   44.2759   -9.5989 H   0  0  0  0  0  0
   23.3814   43.3954   -8.7329 H   0  0  0  0  0  0
   23.7455   45.6380   -7.6131 H   0  0  0  0  0  0
   23.7028   44.7932   -6.0765 H   0  0  0  0  0  0
   25.5982   46.8634   -7.0491 H   0  0  0  0  0  0
   25.2394   46.4369   -5.3804 H   0  0  0  0  0  0
   28.1201   46.4245   -7.4328 H   0  0  0  0  0  0
   27.9884   46.8483   -5.7529 H   0  0  0  0  0  0
   29.3817   45.1184   -5.0077 H   0  0  0  0  0  0
   29.1914   44.1506   -6.4333 H   0  0  0  0  0  0
   30.5828   46.8674   -6.5017 H   0  0  0  0  0  0
   31.4465   45.4157   -6.1015 H   0  0  0  0  0  0
   29.9264   45.7465   -8.7386 H   0  0  0  0  0  0
   31.6129   46.1376   -8.5292 H   0  0  0  0  0  0
   32.1240   43.7980   -7.8650 H   0  0  0  0  0  0
   30.4600   43.3495   -8.0399 H   0  0  0  0  0  0
   32.4048   43.9454  -10.1653 H   0  0  0  0  0  0
   31.9080   43.4949  -12.3717 H   0  0  0  0  0  0
   27.8503   42.7586  -13.5658 H   0  0  0  0  0  0
   28.7737   43.3799   -9.4053 H   0  0  0  0  0  0
   27.0921   41.8183   -9.5334 H   0  0  0  0  0  0
   27.1844   43.3503   -7.4623 H   0  0  0  0  0  0
   26.7884   44.7446   -8.4596 H   0  0  0  0  0  0
   20.2106   41.3603   -8.2572 H   0  0  0  0  0  0
   19.4440   43.2296   -6.8440 H   0  0  0  0  0  0
   20.1286   43.3599   -4.4747 H   0  0  0  0  0  0
   23.6250   39.0131   -8.8560 H   0  0  0  0  0  0
  1  2  1  0  0  0
  1 45  1  0  0  0
  1 46  1  0  0  0
  1 47  1  0  0  0
  2  3  1  0  0  0
  2  4  1  0  0  0
  2 48  1  0  0  0
  3 49  1  0  0  0
  3 50  1  0  0  0
  3 51  1  0  0  0
  4 40  1  0  0  0
  4  5  2  0  0  0
  5  6  1  0  0  0
  5 52  1  0  0  0
  6  7  1  0  0  0
  6 38  2  0  0  0
  7  8  1  0  0  0
  7 53  1  0  0  0
  7 54  1  0  0  0
  8  9  1  0  0  0
  8 55  1  0  0  0
  8 85  1  0  0  0
  9 10  1  0  0  0
  9 56  1  0  0  0
  9 57  1  0  0  0
 10 41  1  0  0  0
 10 11  1  0  0  0
 10 12  1  0  0  0
 11 58  1  0  0  0
 12 42  1  0  0  0
 12 32  1  0  0  0
 12 13  1  0  0  0
 13 14  1  0  0  0
 13 59  1  0  0  0
 13 60  1  0  0  0
 14 43  1  0  0  0
 14 37  1  0  0  0
 14 15  1  0  0  0
 15 16  1  0  0  0
 15 61  1  0  0  0
 15 62  1  0  0  0
 16 17  1  0  0  0
 16 63  1  0  0  0
 16 64  1  0  0  0
 17 44  1  0  0  0
 17 18  1  0  0  0
 17 37  1  0  0  0
 18 19  1  0  0  0
 18 65  1  0  0  0
 18 66  1  0  0  0
 19 20  1  0  0  0
 19 67  1  0  0  0
 19 68  1  0  0  0
 20 21  1  0  0  0
 20 69  1  0  0  0
 20 70  1  0  0  0
 21 22  1  0  0  0
 21 71  1  0  0  0
 21 72  1  0  0  0
 22 23  1  0  0  0
 22 73  1  0  0  0
 22 74  1  0  0  0
 23 24  1  0  0  0
 23 75  1  0  0  0
 24 29  1  0  0  0
 24 25  2  0  0  0
 25 26  1  0  0  0
 25 76  1  0  0  0
 26 27  2  0  0  0
 26 33  1  0  0  0
 27 28  1  0  0  0
 27 77  1  0  0  0
 28 29  2  0  0  0
 28 30  1  0  0  0
 29 78  1  0  0  0
 30 31  2  0  0  0
 30 32  1  0  0  0
 32 79  1  0  0  0
 33 34  1  0  0  0
 33 35  1  0  0  0
 33 36  1  0  0  0
 37 80  1  0  0  0
 37 81  1  0  0  0
 38 39  1  0  0  0
 38 82  1  0  0  0
 39 40  2  0  0  0
 39 83  1  0  0  0
 40 84  1  0  0  0
M  CHG  1   8   1
M  END
> <s_m_source_file>
BACE_71.smi

> <i_m_source_file_index>
1

> <i_lp_mmshare_version>
42013

> <i_f3d_flags>
0

> <s_epik_input>
W0NIM11bQ0hdKFtDSDNdKWMxW2NIXWMoW2NIXVtjSF1bY0hdMSlbQ0gyXVtOSF1bQ0gyXVtDQEBIXShbT0hdKVtDQEhdKFtDSDJdW0NASF0yMylbTkhdQyg9TyljNFtjSF1jKEMoRikoRilGKVtjSF1jKFtjSF00KVtOSF1bQ0gyXVtDSDJdW0NIMl1bQ0gyXVtDSDJdW0NASF0oW0NIMl0zKVtDSDJdW0NIMl0y

> <s_epik_cmdline>
J2VwaWtfcHl0aG9uJywgJy1waCcsICc3LjAnLCAnLXRuJywgJzgnLCAnLW1hJywgJzIwMCcsICctaW1hZScsICc8aW5maWxlLm1hZT4nLCAnLW9tYWUnLCAnPG91dGZpbGUubWFlPic=

> <r_epik_Ionization_Penalty>
  0.0165

> <r_epik_Ionization_Penalty_Charging>
  0.0164

> <r_epik_Ionization_Penalty_Neutral>
  0.0000

> <r_epik_State_Penalty>
  0.0130

> <r_epik_Charging_Adjusted_Penalty>
0.0294306

> <i_epik_Tot_Q>
1

> <i_epik_Tot_abs_Q>
1

> <s_lp_Force_Field>
OPLS_2005

> <r_lp_Energy>
43.612

> <b_lp_Chiralities_Consistent>
1

> <s_lp_Variant>
BACE_71.smi:1-1

> <chiral flag>
1

> <version>
0

> <s_i_glide_gridfile>
second_dock_grid_2

> <i_i_glide_lignum>
142

> <i_i_glide_rotatable_bonds>
8

> <r_i_docking_score>
-3.47591

> <r_i_glide_ligand_efficiency>
-0.0868978

> <r_i_glide_ligand_efficiency_sa>
-0.297186

> <r_i_glide_ligand_efficiency_ln>
-0.74131

> <r_glide_XP_GScore>
-3.48891

> <r_i_glide_gscore>
-3.48891

> <r_i_glide_evdw>
-35.0059

> <r_i_glide_ecoul>
-8.97421

> <r_i_glide_energy>
-43.9801

> <r_i_glide_einternal>
6.66861

> <r_i_glide_emodel>
-56.8372

> <r_glide_XP_HBond>
-0.544923

> <i_i_glide_confnum>
1

> <i_i_glide_posenum>
2

> <r_i_glide_eff_state_penalty>
0.013

> <i_glide_XP_PoseRank>
1

$$$$
BACE_71.smi:1
                    3D
 Structure written by MMmdl.
 84 87  0  0  1  0            999 V2000
   21.7418   38.7633   -9.3299 C   0  0  0  0  0  0
   22.0217   40.2425   -9.0025 C   0  0  0  0  0  0
   23.4342   40.6662   -9.4235 C   0  0  0  0  0  0
   21.7796   40.5873   -7.5362 C   0  0  0  0  0  0
   21.0529   41.7472   -7.1951 C   0  0  0  0  0  0
   20.8639   42.0995   -5.8424 C   0  0  0  0  0  0
   20.0714   43.3450   -5.4944 C   0  0  0  0  0  0
   20.8969   44.5242   -5.2397 N   0  0  0  0  0  0
   21.8620   44.9060   -6.2843 C   0  0  0  0  0  0
   22.2187   46.4069   -6.2124 C   0  0  1  0  0  0
   20.9769   47.0724   -6.0870 O   0  0  0  0  0  0
   23.2174   46.8398   -5.0946 C   0  0  2  0  0  0
   23.3282   48.3945   -4.9873 C   0  0  0  0  0  0
   23.8524   48.9622   -3.6527 C   0  0  2  0  0  0
   23.7361   50.5001   -3.5795 C   0  0  0  0  0  0
   25.1036   51.0272   -3.1290 C   0  0  0  0  0  0
   25.7705   49.8289   -2.4631 C   0  0  2  0  0  0
   27.2957   49.9332   -2.3435 C   0  0  0  0  0  0
   27.8425   48.9610   -1.2848 C   0  0  0  0  0  0
   29.3228   48.6063   -1.4583 C   0  0  0  0  0  0
   29.6276   47.6612   -2.6367 C   0  0  0  0  0  0
   29.1633   46.2049   -2.4371 C   0  0  0  0  0  0
   29.5489   45.3659   -3.5648 N   0  0  0  0  0  0
   28.8107   45.3826   -4.7617 C   0  0  0  0  0  0
   29.4862   44.9874   -5.9342 C   0  0  0  0  0  0
   28.8387   45.0085   -7.1871 C   0  0  0  0  0  0
   27.4939   45.4272   -7.2569 C   0  0  0  0  0  0
   26.7934   45.8308   -6.0991 C   0  0  0  0  0  0
   27.4558   45.7958   -4.8472 C   0  0  0  0  0  0
   25.4121   46.4070   -6.2483 C   0  0  0  0  0  0
   25.1200   47.0282   -7.2700 O   0  0  0  0  0  0
   24.5427   46.2063   -5.2395 N   0  0  0  0  0  0
   29.5834   44.6389   -8.4642 C   0  0  0  0  0  0
   28.8694   43.7723   -9.1852 F   0  0  0  0  0  0
   29.7673   45.7429   -9.1882 F   0  0  0  0  0  0
   30.7748   44.0954   -8.2108 F   0  0  0  0  0  0
   25.3189   48.6615   -3.3404 C   0  0  0  0  0  0
   21.3934   41.2888   -4.8158 C   0  0  0  0  0  0
   22.1107   40.1255   -5.1499 C   0  0  0  0  0  0
   22.3023   39.7804   -6.5043 C   0  0  0  0  0  0
   22.6189   46.7013   -7.1831 H   0  0  0  0  0  0
   22.8153   46.4749   -4.1519 H   0  0  0  0  0  0
   23.2582   48.5437   -2.8417 H   0  0  0  0  0  0
   25.3326   49.7212   -1.4679 H   0  0  0  0  0  0
   20.7333   38.4780   -9.0274 H   0  0  0  0  0  0
   22.4362   38.0883   -8.8299 H   0  0  0  0  0  0
   21.8250   38.5747  -10.4002 H   0  0  0  0  0  0
   21.3198   40.8275   -9.5980 H   0  0  0  0  0  0
   23.5721   41.7401   -9.2901 H   0  0  0  0  0  0
   23.6219   40.4383  -10.4725 H   0  0  0  0  0  0
   24.1948   40.1609   -8.8252 H   0  0  0  0  0  0
   20.6451   42.3738   -7.9749 H   0  0  0  0  0  0
   19.3701   43.5492   -6.3030 H   0  0  0  0  0  0
   19.4662   43.1297   -4.6136 H   0  0  0  0  0  0
   21.3214   44.4781   -4.3184 H   0  0  0  0  0  0
   22.7594   44.2870   -6.2319 H   0  0  0  0  0  0
   21.4267   44.7179   -7.2640 H   0  0  0  0  0  0
   20.3232   46.3866   -6.1019 H   0  0  0  0  0  0
   23.9045   48.7978   -5.8189 H   0  0  0  0  0  0
   22.3357   48.8291   -5.1072 H   0  0  0  0  0  0
   23.4569   50.9422   -4.5362 H   0  0  0  0  0  0
   22.9678   50.7829   -2.8577 H   0  0  0  0  0  0
   25.6857   51.3371   -4.0004 H   0  0  0  0  0  0
   25.0239   51.8856   -2.4609 H   0  0  0  0  0  0
   27.7497   49.7565   -3.3177 H   0  0  0  0  0  0
   27.5792   50.9484   -2.0688 H   0  0  0  0  0  0
   27.6958   49.4097   -0.2982 H   0  0  0  0  0  0
   27.2614   48.0457   -1.2699 H   0  0  0  0  0  0
   29.9049   49.5243   -1.5707 H   0  0  0  0  0  0
   29.6642   48.1514   -0.5339 H   0  0  0  0  0  0
   29.2091   48.0642   -3.5581 H   0  0  0  0  0  0
   30.7072   47.6450   -2.7873 H   0  0  0  0  0  0
   29.6469   45.7853   -1.5530 H   0  0  0  0  0  0
   28.0948   46.1471   -2.2364 H   0  0  0  0  0  0
   30.5527   45.3329   -3.6851 H   0  0  0  0  0  0
   30.5221   44.6831   -5.8768 H   0  0  0  0  0  0
   27.0108   45.4758   -8.2215 H   0  0  0  0  0  0
   26.9229   46.1204   -3.9686 H   0  0  0  0  0  0
   24.8561   45.6221   -4.4733 H   0  0  0  0  0  0
   25.4490   47.7017   -2.8475 H   0  0  0  0  0  0
   25.9020   48.6473   -4.2617 H   0  0  0  0  0  0
   21.2458   41.5530   -3.7790 H   0  0  0  0  0  0
   22.5150   39.4946   -4.3710 H   0  0  0  0  0  0
   22.8595   38.8922   -6.7482 H   0  0  0  0  0  0
  1  2  1  0  0  0
  1 45  1  0  0  0
  1 46  1  0  0  0
  1 47  1  0  0  0
  2  3  1  0  0  0
  2  4  1  0  0  0
  2 48  1  0  0  0
  3 49  1  0  0  0
  3 50  1  0  0  0
  3 51  1  0  0  0
  4 40  1  0  0  0
  4  5  2  0  0  0
  5  6  1  0  0  0
  5 52  1  0  0  0
  6  7  1  0  0  0
  6 38  2  0  0  0
  7  8  1  0  0  0
  7 53  1  0  0  0
  7 54  1  0  0  0
  8  9  1  0  0  0
  8 55  1  0  0  0
  9 10  1  0  0  0
  9 56  1  0  0  0
  9 57  1  0  0  0
 10 41  1  0  0  0
 10 11  1  0  0  0
 10 12  1  0  0  0
 11 58  1  0  0  0
 12 42  1  0  0  0
 12 32  1  0  0  0
 12 13  1  0  0  0
 13 14  1  0  0  0
 13 59  1  0  0  0
 13 60  1  0  0  0
 14 43  1  0  0  0
 14 37  1  0  0  0
 14 15  1  0  0  0
 15 16  1  0  0  0
 15 61  1  0  0  0
 15 62  1  0  0  0
 16 17  1  0  0  0
 16 63  1  0  0  0
 16 64  1  0  0  0
 17 44  1  0  0  0
 17 18  1  0  0  0
 17 37  1  0  0  0
 18 19  1  0  0  0
 18 65  1  0  0  0
 18 66  1  0  0  0
 19 20  1  0  0  0
 19 67  1  0  0  0
 19 68  1  0  0  0
 20 21  1  0  0  0
 20 69  1  0  0  0
 20 70  1  0  0  0
 21 22  1  0  0  0
 21 71  1  0  0  0
 21 72  1  0  0  0
 22 23  1  0  0  0
 22 73  1  0  0  0
 22 74  1  0  0  0
 23 24  1  0  0  0
 23 75  1  0  0  0
 24 29  1  0  0  0
 24 25  2  0  0  0
 25 26  1  0  0  0
 25 76  1  0  0  0
 26 27  2  0  0  0
 26 33  1  0  0  0
 27 28  1  0  0  0
 27 77  1  0  0  0
 28 29  2  0  0  0
 28 30  1  0  0  0
 29 78  1  0  0  0
 30 31  2  0  0  0
 30 32  1  0  0  0
 32 79  1  0  0  0
 33 34  1  0  0  0
 33 35  1  0  0  0
 33 36  1  0  0  0
 37 80  1  0  0  0
 37 81  1  0  0  0
 38 39  1  0  0  0
 38 82  1  0  0  0
 39 40  2  0  0  0
 39 83  1  0  0  0
 40 84  1  0  0  0
M  END
> <s_m_source_file>
BACE_71.smi

> <i_m_source_file_index>
1

> <i_lp_mmshare_version>
42013

> <i_f3d_flags>
0

> <s_epik_input>
W0NIM11bQ0hdKFtDSDNdKWMxW2NIXWMoW2NIXVtjSF1bY0hdMSlbQ0gyXVtOSF1bQ0gyXVtDQEBIXShbT0hdKVtDQEhdKFtDSDJdW0NASF0yMylbTkhdQyg9TyljNFtjSF1jKEMoRikoRilGKVtjSF1jKFtjSF00KVtOSF1bQ0gyXVtDSDJdW0NIMl1bQ0gyXVtDSDJdW0NASF0oW0NIMl0zKVtDSDJdW0NIMl0y

> <s_epik_cmdline>
J2VwaWtfcHl0aG9uJywgJy1waCcsICc3LjAnLCAnLXRuJywgJzgnLCAnLW1hJywgJzIwMCcsICctaW1hZScsICc8aW5maWxlLm1hZT4nLCAnLW9tYWUnLCAnPG91dGZpbGUubWFlPic=

> <r_epik_Ionization_Penalty>
  2.1318

> <r_epik_Ionization_Penalty_Charging>
  0.0000

> <r_epik_Ionization_Penalty_Neutral>
  2.1318

> <r_epik_State_Penalty>
  2.2702

> <r_epik_Charging_Adjusted_Penalty>
2.27019

> <i_epik_Tot_Q>
0

> <i_epik_Tot_abs_Q>
0

> <s_lp_Force_Field>
OPLS_2005

> <r_lp_Energy>
53.0594

> <b_lp_Chiralities_Consistent>
1

> <s_lp_Variant>
BACE_71.smi:1-2

> <chiral flag>
1

> <version>
0

> <s_i_glide_gridfile>
second_dock_grid_2

> <i_i_glide_lignum>
143

> <i_i_glide_rotatable_bonds>
8

> <r_i_docking_score>
-1.70909

> <r_i_glide_ligand_efficiency>
-0.0427271

> <r_i_glide_ligand_efficiency_sa>
-0.146125

> <r_i_glide_ligand_efficiency_ln>
-0.364498

> <r_glide_XP_GScore>
-3.97929

> <r_i_glide_gscore>
-3.97929

> <r_i_glide_evdw>
-38.9791

> <r_i_glide_ecoul>
-5.06223

> <r_i_glide_energy>
-44.0413

> <r_i_glide_einternal>
4.74134

> <r_i_glide_emodel>
-61.0429

> <r_glide_XP_HBond>
-0.365854

> <i_i_glide_confnum>
1

> <i_i_glide_posenum>
2

> <r_i_glide_eff_state_penalty>
2.2702

> <i_glide_XP_PoseRank>
1

$$$$
BACE_72.smi:1
                    3D
 Structure written by MMmdl.
 80 82  0  0  1  0            999 V2000
   30.5934   41.6158  -13.6408 C   0  0  0  0  0  0
   30.5764   41.9396  -12.1380 C   0  0  0  0  0  0
   29.3934   41.4884  -11.4875 O   0  0  0  0  0  0
   28.2259   42.2143  -11.6081 C   0  0  0  0  0  0
   27.1307   41.7987  -10.8263 C   0  0  0  0  0  0
   25.8970   42.4840  -10.8609 C   0  0  0  0  0  0
   24.7974   42.0516   -9.9014 C   0  0  0  0  0  0
   23.9751   40.9500  -10.4400 N   0  3  0  0  0  0
   22.5402   41.0412  -10.0941 C   0  0  0  0  0  0
   21.8482   39.6698   -9.9524 C   0  0  1  0  0  0
   22.4600   39.0432   -8.8418 O   0  0  0  0  0  0
   20.3167   39.7773   -9.6895 C   0  0  2  0  0  0
   19.6715   38.3897   -9.3998 C   0  0  0  0  0  0
   18.3033   38.3578   -8.6688 C   0  0  2  0  0  0
   17.1054   38.6252   -9.5907 C   0  0  0  0  0  0
   18.2232   39.1991   -7.3732 C   0  0  0  0  0  0
   19.2544   38.8138   -6.2950 C   0  0  0  0  0  0
   20.4853   39.5227   -6.4096 O   0  0  0  0  0  0
   20.4609   40.7883   -5.7637 C   0  0  0  0  0  0
   21.7766   41.5424   -5.9840 C   0  0  0  0  0  0
   21.8222   42.9332   -5.3152 C   0  0  0  0  0  0
   20.6598   43.8850   -5.6709 C   0  0  0  0  0  0
   20.5914   44.1843   -7.0996 N   0  0  0  0  0  0
   19.4962   43.6636   -7.8052 C   0  0  0  0  0  0
   19.7254   42.9585   -9.0030 C   0  0  0  0  0  0
   18.6629   42.3298   -9.6898 C   0  0  0  0  0  0
   17.3444   42.4907   -9.2131 C   0  0  0  0  0  0
   17.1011   43.2301   -8.0406 C   0  0  0  0  0  0
   18.1724   43.8113   -7.3383 C   0  0  0  0  0  0
   18.9104   41.5192  -10.9297 C   0  0  0  0  0  0
   18.3912   41.8564  -11.9921 O   0  0  0  0  0  0
   19.6666   40.4057  -10.8493 N   0  0  0  0  0  0
   25.7298   43.5813  -11.7490 C   0  0  0  0  0  0
   26.8307   44.0054  -12.5225 C   0  0  0  0  0  0
   28.0697   43.3464  -12.4410 C   0  0  0  0  0  0
   24.4036   44.3311  -11.8720 C   0  0  0  0  0  0
   24.4018   45.1604  -12.9163 F   0  0  0  0  0  0
   23.3963   43.4747  -12.0383 F   0  0  0  0  0  0
   24.1846   45.0497  -10.7707 F   0  0  0  0  0  0
   22.0221   39.0586  -10.8388 H   0  0  0  0  0  0
   20.1992   40.3914   -8.8011 H   0  0  0  0  0  0
   18.1724   37.3208   -8.3535 H   0  0  0  0  0  0
   31.5462   41.9001  -14.0861 H   0  0  0  0  0  0
   29.8092   42.1252  -14.1988 H   0  0  0  0  0  0
   30.4570   40.5507  -13.8127 H   0  0  0  0  0  0
   31.4038   41.4111  -11.6611 H   0  0  0  0  0  0
   30.7492   43.0008  -11.9536 H   0  0  0  0  0  0
   27.2587   40.9507  -10.1684 H   0  0  0  0  0  0
   25.2418   41.7177   -8.9624 H   0  0  0  0  0  0
   24.1816   42.9111   -9.6395 H   0  0  0  0  0  0
   24.0600   40.9420  -11.4542 H   0  0  0  0  0  0
   22.4375   41.5747   -9.1533 H   0  0  0  0  0  0
   22.0537   41.6454  -10.8579 H   0  0  0  0  0  0
   23.2080   38.5418   -9.1409 H   0  0  0  0  0  0
   19.6051   37.8164  -10.3250 H   0  0  0  0  0  0
   20.3431   37.8047   -8.7730 H   0  0  0  0  0  0
   17.0899   39.6434   -9.9701 H   0  0  0  0  0  0
   16.1647   38.4610   -9.0629 H   0  0  0  0  0  0
   17.1176   37.9459  -10.4399 H   0  0  0  0  0  0
   18.2562   40.2654   -7.5867 H   0  0  0  0  0  0
   17.2363   39.0323   -6.9382 H   0  0  0  0  0  0
   18.8271   38.9503   -5.2998 H   0  0  0  0  0  0
   19.4711   37.7501   -6.3763 H   0  0  0  0  0  0
   19.6600   41.3828   -6.1854 H   0  0  0  0  0  0
   20.2691   40.6666   -4.6965 H   0  0  0  0  0  0
   22.6038   40.9355   -5.6130 H   0  0  0  0  0  0
   21.9405   41.6522   -7.0515 H   0  0  0  0  0  0
   21.8320   42.7970   -4.2336 H   0  0  0  0  0  0
   22.7709   43.4124   -5.5587 H   0  0  0  0  0  0
   19.7257   43.4674   -5.2963 H   0  0  0  0  0  0
   20.7965   44.8273   -5.1390 H   0  0  0  0  0  0
   21.4807   44.1119   -7.5698 H   0  0  0  0  0  0
   20.7274   42.8835   -9.3852 H   0  0  0  0  0  0
   16.5155   42.0319   -9.7337 H   0  0  0  0  0  0
   16.0922   43.3361   -7.6644 H   0  0  0  0  0  0
   17.9686   44.3726   -6.4403 H   0  0  0  0  0  0
   19.7430   39.8901  -11.7134 H   0  0  0  0  0  0
   26.7415   44.8538  -13.1853 H   0  0  0  0  0  0
   28.8799   43.7294  -13.0395 H   0  0  0  0  0  0
   24.3454   40.0733  -10.0858 H   0  0  0  0  0  0
  1  2  1  0  0  0
  1 43  1  0  0  0
  1 44  1  0  0  0
  1 45  1  0  0  0
  2  3  1  0  0  0
  2 46  1  0  0  0
  2 47  1  0  0  0
  3  4  1  0  0  0
  4 35  1  0  0  0
  4  5  2  0  0  0
  5  6  1  0  0  0
  5 48  1  0  0  0
  6  7  1  0  0  0
  6 33  2  0  0  0
  7  8  1  0  0  0
  7 49  1  0  0  0
  7 50  1  0  0  0
  8  9  1  0  0  0
  8 51  1  0  0  0
  8 80  1  0  0  0
  9 10  1  0  0  0
  9 52  1  0  0  0
  9 53  1  0  0  0
 10 40  1  0  0  0
 10 11  1  0  0  0
 10 12  1  0  0  0
 11 54  1  0  0  0
 12 41  1  0  0  0
 12 32  1  0  0  0
 12 13  1  0  0  0
 13 14  1  0  0  0
 13 55  1  0  0  0
 13 56  1  0  0  0
 14 42  1  0  0  0
 14 15  1  0  0  0
 14 16  1  0  0  0
 15 57  1  0  0  0
 15 58  1  0  0  0
 15 59  1  0  0  0
 16 17  1  0  0  0
 16 60  1  0  0  0
 16 61  1  0  0  0
 17 18  1  0  0  0
 17 62  1  0  0  0
 17 63  1  0  0  0
 18 19  1  0  0  0
 19 20  1  0  0  0
 19 64  1  0  0  0
 19 65  1  0  0  0
 20 21  1  0  0  0
 20 66  1  0  0  0
 20 67  1  0  0  0
 21 22  1  0  0  0
 21 68  1  0  0  0
 21 69  1  0  0  0
 22 23  1  0  0  0
 22 70  1  0  0  0
 22 71  1  0  0  0
 23 24  1  0  0  0
 23 72  1  0  0  0
 24 29  1  0  0  0
 24 25  2  0  0  0
 25 26  1  0  0  0
 25 73  1  0  0  0
 26 27  2  0  0  0
 26 30  1  0  0  0
 27 28  1  0  0  0
 27 74  1  0  0  0
 28 29  2  0  0  0
 28 75  1  0  0  0
 29 76  1  0  0  0
 30 31  2  0  0  0
 30 32  1  0  0  0
 32 77  1  0  0  0
 33 34  1  0  0  0
 33 36  1  0  0  0
 34 35  2  0  0  0
 34 78  1  0  0  0
 35 79  1  0  0  0
 36 37  1  0  0  0
 36 38  1  0  0  0
 36 39  1  0  0  0
M  CHG  1   8   1
M  END
> <s_m_source_file>
BACE_72.smi

> <i_m_source_file_index>
1

> <i_lp_mmshare_version>
42013

> <i_f3d_flags>
0

> <s_epik_input>
W0NIM11bQ0gyXU9jMVtjSF1jKGMoQyhGKShGKUYpW2NIXVtjSF0xKVtDSDJdW05IXVtDSDJdW0NAQEhdKFtPSF0pW0NAQEhdKFtOSF1DKD1PKWMoW2NIXWMyMylbY0hdW2NIXVtjSF0zKVtDSDJdW0NASF0oW0NIM10pW0NIMl1bQ0gyXU9bQ0gyXVtDSDJdW0NIMl1bQ0gyXVtOSF0y

> <s_epik_cmdline>
J2VwaWtfcHl0aG9uJywgJy1waCcsICc3LjAnLCAnLXRuJywgJzgnLCAnLW1hJywgJzIwMCcsICctaW1hZScsICc8aW5maWxlLm1hZT4nLCAnLW9tYWUnLCAnPG91dGZpbGUubWFlPic=

> <r_lp_tautomer_probability>
1

> <r_epik_Ionization_Penalty>
  0.0285

> <r_epik_Ionization_Penalty_Charging>
  0.0280

> <r_epik_Ionization_Penalty_Neutral>
  0.0005

> <r_epik_State_Penalty>
  0.0229

> <r_epik_Charging_Adjusted_Penalty>
0.0509349

> <i_epik_Tot_Q>
1

> <i_epik_Tot_abs_Q>
1

> <s_lp_Force_Field>
OPLS_2005

> <r_lp_Energy>
40.8093

> <b_lp_Chiralities_Consistent>
1

> <s_lp_Variant>
BACE_72.smi:1-1

> <chiral flag>
1

> <version>
0

> <s_i_glide_gridfile>
second_dock_grid_2

> <i_i_glide_lignum>
144

> <i_i_glide_rotatable_bonds>
9

> <r_i_docking_score>
-5.44643

> <r_i_glide_ligand_efficiency>
-0.139652

> <r_i_glide_ligand_efficiency_sa>
-0.473589

> <r_i_glide_ligand_efficiency_ln>
-1.16787

> <r_glide_XP_GScore>
-5.46933

> <r_i_glide_gscore>
-5.46933

> <r_i_glide_evdw>
-39.7448

> <r_i_glide_ecoul>
-13.7289

> <r_i_glide_energy>
-53.4737

> <r_i_glide_einternal>
7.22774

> <r_i_glide_emodel>
-72.7526

> <r_glide_XP_HBond>
-0.96

> <i_i_glide_confnum>
1

> <i_i_glide_posenum>
1

> <r_i_glide_eff_state_penalty>
0.0229

> <i_glide_XP_PoseRank>
1

$$$$
BACE_72.smi:1
                    3D
 Structure written by MMmdl.
 79 81  0  0  1  0            999 V2000
   31.6264   42.4607  -12.0064 C   0  0  0  0  0  0
   31.0950   42.2689  -13.4286 C   0  0  0  0  0  0
   29.7050   41.9815  -13.3606 O   0  0  0  0  0  0
   28.9750   42.5303  -12.3278 C   0  0  0  0  0  0
   27.8592   41.8012  -11.8746 C   0  0  0  0  0  0
   27.0484   42.2666  -10.8126 C   0  0  0  0  0  0
   25.8518   41.4324  -10.3586 C   0  0  0  0  0  0
   24.5558   42.0090  -10.7117 N   0  0  0  0  0  0
   23.5813   41.9444   -9.6269 C   0  0  0  0  0  0
   23.0887   40.4980   -9.4040 C   0  0  1  0  0  0
   23.5686   40.1067   -8.1318 O   0  0  0  0  0  0
   21.5442   40.3153   -9.4275 C   0  0  2  0  0  0
   21.1678   38.8126   -9.3076 C   0  0  0  0  0  0
   19.6865   38.4299   -9.0522 C   0  0  2  0  0  0
   18.7947   38.5503  -10.2994 C   0  0  0  0  0  0
   19.0337   39.1009   -7.8217 C   0  0  0  0  0  0
   19.7187   38.7923   -6.4751 C   0  0  0  0  0  0
   20.8367   39.6394   -6.2466 O   0  0  0  0  0  0
   20.5023   40.8544   -5.5902 C   0  0  0  0  0  0
   21.7212   41.7880   -5.5984 C   0  0  0  0  0  0
   21.5244   43.0954   -4.8058 C   0  0  0  0  0  0
   20.3522   43.9816   -5.2691 C   0  0  0  0  0  0
   20.5037   44.4281   -6.6495 N   0  0  0  0  0  0
   19.6691   43.8106   -7.5895 C   0  0  0  0  0  0
   20.2512   43.2262   -8.7312 C   0  0  0  0  0  0
   19.4600   42.5207   -9.6635 C   0  0  0  0  0  0
   18.0603   42.4806   -9.4895 C   0  0  0  0  0  0
   17.4671   43.0888   -8.3671 C   0  0  0  0  0  0
   18.2692   43.7431   -7.4132 C   0  0  0  0  0  0
   20.0779   41.8488  -10.8555 C   0  0  0  0  0  0
   19.6980   42.1521  -11.9842 O   0  0  0  0  0  0
   21.0008   40.8832  -10.6674 N   0  0  0  0  0  0
   27.3455   43.5193  -10.2101 C   0  0  0  0  0  0
   28.4678   44.2489  -10.6635 C   0  0  0  0  0  0
   29.2771   43.7636  -11.7060 C   0  0  0  0  0  0
   26.4848   44.0954   -9.0853 C   0  0  0  0  0  0
   26.0793   45.3360   -9.3596 F   0  0  0  0  0  0
   25.3953   43.3495   -8.8998 F   0  0  0  0  0  0
   27.1873   44.1363   -7.9533 F   0  0  0  0  0  0
   23.5274   39.8460  -10.1611 H   0  0  0  0  0  0
   21.1399   40.8272   -8.5598 H   0  0  0  0  0  0
   19.7079   37.3611   -8.8352 H   0  0  0  0  0  0
   32.6943   42.6802  -12.0165 H   0  0  0  0  0  0
   31.4747   41.5626  -11.4072 H   0  0  0  0  0  0
   31.1198   43.2872  -11.5073 H   0  0  0  0  0  0
   31.2677   43.1775  -14.0074 H   0  0  0  0  0  0
   31.6300   41.4493  -13.9107 H   0  0  0  0  0  0
   27.6314   40.8638  -12.3604 H   0  0  0  0  0  0
   25.9149   40.4341  -10.7873 H   0  0  0  0  0  0
   25.9212   41.3102   -9.2771 H   0  0  0  0  0  0
   24.1838   41.5265  -11.5235 H   0  0  0  0  0  0
   24.0103   42.3426   -8.7067 H   0  0  0  0  0  0
   22.7459   42.5952   -9.8834 H   0  0  0  0  0  0
   24.3123   39.5372   -8.2543 H   0  0  0  0  0  0
   21.5202   38.2869  -10.1961 H   0  0  0  0  0  0
   21.7413   38.3767   -8.4897 H   0  0  0  0  0  0
   18.5373   39.5827  -10.5234 H   0  0  0  0  0  0
   17.8555   38.0162  -10.1540 H   0  0  0  0  0  0
   19.2782   38.1227  -11.1781 H   0  0  0  0  0  0
   18.9413   40.1754   -7.9697 H   0  0  0  0  0  0
   18.0092   38.7335   -7.7538 H   0  0  0  0  0  0
   19.0043   38.8787   -5.6544 H   0  0  0  0  0  0
   20.0600   37.7569   -6.4652 H   0  0  0  0  0  0
   19.6609   41.3338   -6.0898 H   0  0  0  0  0  0
   20.1956   40.6413   -4.5652 H   0  0  0  0  0  0
   22.5744   41.2546   -5.1783 H   0  0  0  0  0  0
   21.9949   42.0201   -6.6270 H   0  0  0  0  0  0
   21.3776   42.8486   -3.7539 H   0  0  0  0  0  0
   22.4476   43.6745   -4.8481 H   0  0  0  0  0  0
   19.4115   43.4551   -5.1097 H   0  0  0  0  0  0
   20.3060   44.8703   -4.6392 H   0  0  0  0  0  0
   21.4652   44.5247   -6.9429 H   0  0  0  0  0  0
   21.3183   43.2916   -8.8720 H   0  0  0  0  0  0
   17.4368   41.9679  -10.2077 H   0  0  0  0  0  0
   16.3965   43.0449   -8.2332 H   0  0  0  0  0  0
   17.8021   44.1974   -6.5517 H   0  0  0  0  0  0
   21.3655   40.4671  -11.5120 H   0  0  0  0  0  0
   28.7231   45.1977  -10.2160 H   0  0  0  0  0  0
   30.1214   44.3613  -12.0140 H   0  0  0  0  0  0
  1  2  1  0  0  0
  1 43  1  0  0  0
  1 44  1  0  0  0
  1 45  1  0  0  0
  2  3  1  0  0  0
  2 46  1  0  0  0
  2 47  1  0  0  0
  3  4  1  0  0  0
  4 35  1  0  0  0
  4  5  2  0  0  0
  5  6  1  0  0  0
  5 48  1  0  0  0
  6  7  1  0  0  0
  6 33  2  0  0  0
  7  8  1  0  0  0
  7 49  1  0  0  0
  7 50  1  0  0  0
  8  9  1  0  0  0
  8 51  1  0  0  0
  9 10  1  0  0  0
  9 52  1  0  0  0
  9 53  1  0  0  0
 10 40  1  0  0  0
 10 11  1  0  0  0
 10 12  1  0  0  0
 11 54  1  0  0  0
 12 41  1  0  0  0
 12 32  1  0  0  0
 12 13  1  0  0  0
 13 14  1  0  0  0
 13 55  1  0  0  0
 13 56  1  0  0  0
 14 42  1  0  0  0
 14 15  1  0  0  0
 14 16  1  0  0  0
 15 57  1  0  0  0
 15 58  1  0  0  0
 15 59  1  0  0  0
 16 17  1  0  0  0
 16 60  1  0  0  0
 16 61  1  0  0  0
 17 18  1  0  0  0
 17 62  1  0  0  0
 17 63  1  0  0  0
 18 19  1  0  0  0
 19 20  1  0  0  0
 19 64  1  0  0  0
 19 65  1  0  0  0
 20 21  1  0  0  0
 20 66  1  0  0  0
 20 67  1  0  0  0
 21 22  1  0  0  0
 21 68  1  0  0  0
 21 69  1  0  0  0
 22 23  1  0  0  0
 22 70  1  0  0  0
 22 71  1  0  0  0
 23 24  1  0  0  0
 23 72  1  0  0  0
 24 29  1  0  0  0
 24 25  2  0  0  0
 25 26  1  0  0  0
 25 73  1  0  0  0
 26 27  2  0  0  0
 26 30  1  0  0  0
 27 28  1  0  0  0
 27 74  1  0  0  0
 28 29  2  0  0  0
 28 75  1  0  0  0
 29 76  1  0  0  0
 30 31  2  0  0  0
 30 32  1  0  0  0
 32 77  1  0  0  0
 33 34  1  0  0  0
 33 36  1  0  0  0
 34 35  2  0  0  0
 34 78  1  0  0  0
 35 79  1  0  0  0
 36 37  1  0  0  0
 36 38  1  0  0  0
 36 39  1  0  0  0
M  END
> <s_m_source_file>
BACE_72.smi

> <i_m_source_file_index>
1

> <i_lp_mmshare_version>
42013

> <i_f3d_flags>
0

> <s_epik_input>
W0NIM11bQ0gyXU9jMVtjSF1jKGMoQyhGKShGKUYpW2NIXVtjSF0xKVtDSDJdW05IXVtDSDJdW0NAQEhdKFtPSF0pW0NAQEhdKFtOSF1DKD1PKWMoW2NIXWMyMylbY0hdW2NIXVtjSF0zKVtDSDJdW0NASF0oW0NIM10pW0NIMl1bQ0gyXU9bQ0gyXVtDSDJdW0NIMl1bQ0gyXVtOSF0y

> <s_epik_cmdline>
J2VwaWtfcHl0aG9uJywgJy1waCcsICc3LjAnLCAnLXRuJywgJzgnLCAnLW1hJywgJzIwMCcsICctaW1hZScsICc8aW5maWxlLm1hZT4nLCAnLW9tYWUnLCAnPG91dGZpbGUubWFlPic=

> <r_lp_tautomer_probability>
1

> <r_epik_Ionization_Penalty>
  1.8231

> <r_epik_Ionization_Penalty_Charging>
  0.0000

> <r_epik_Ionization_Penalty_Neutral>
  1.8231

> <r_epik_State_Penalty>
  1.9378

> <r_epik_Charging_Adjusted_Penalty>
1.93778

> <i_epik_Tot_Q>
0

> <i_epik_Tot_abs_Q>
0

> <s_lp_Force_Field>
OPLS_2005

> <r_lp_Energy>
49.0297

> <b_lp_Chiralities_Consistent>
1

> <s_lp_Variant>
BACE_72.smi:1-2

> <chiral flag>
1

> <version>
0

> <s_i_glide_gridfile>
second_dock_grid_2

> <i_i_glide_lignum>
145

> <i_i_glide_rotatable_bonds>
9

> <r_i_docking_score>
-2.31932

> <r_i_glide_ligand_efficiency>
-0.0594696

> <r_i_glide_ligand_efficiency_sa>
-0.201674

> <r_i_glide_ligand_efficiency_ln>
-0.497327

> <r_glide_XP_GScore>
-4.25712

> <r_i_glide_gscore>
-4.25712

> <r_i_glide_evdw>
-36.8392

> <r_i_glide_ecoul>
-7.85406

> <r_i_glide_energy>
-44.6933

> <r_i_glide_einternal>
7.47103

> <r_i_glide_emodel>
-61.4096

> <r_glide_XP_HBond>
-0.96

> <i_i_glide_confnum>
1

> <i_i_glide_posenum>
40

> <r_i_glide_eff_state_penalty>
1.9378

> <i_glide_XP_PoseRank>
1

$$$$
BACE_73.smi:1
                    3D
 Structure written by MMmdl.
 80 82  0  0  1  0            999 V2000
   30.0542   41.3518  -11.8466 C   0  0  0  0  0  0
   29.9037   42.7707  -12.4189 C   0  0  0  0  0  0
   28.7522   42.9507  -13.2399 O   0  0  0  0  0  0
   27.5776   43.2582  -12.6008 C   0  0  0  0  0  0
   27.0042   42.4035  -11.6388 C   0  0  0  0  0  0
   25.7986   42.7470  -11.0026 C   0  0  0  0  0  0
   25.2590   41.8296   -9.9307 C   0  0  0  0  0  0
   24.1955   40.9502  -10.4400 N   0  3  0  0  0  0
   22.8158   41.3083  -10.0589 C   0  0  0  0  0  0
   21.9351   40.0465   -9.9477 C   0  0  1  0  0  0
   22.4602   39.3429   -8.8422 O   0  0  0  0  0  0
   20.4212   40.2908   -9.6911 C   0  0  2  0  0  0
   19.6539   38.9384   -9.6260 C   0  0  0  0  0  0
   18.2262   38.9228   -9.0215 C   0  0  2  0  0  0
   17.1616   39.5084   -9.9618 C   0  0  0  0  0  0
   18.1038   39.5104   -7.5953 C   0  0  0  0  0  0
   18.9817   38.8303   -6.5208 C   0  0  0  0  0  0
   20.3113   39.3430   -6.5080 O   0  0  0  0  0  0
   20.4591   40.5230   -5.7290 C   0  0  0  0  0  0
   21.8674   41.1081   -5.9056 C   0  0  0  0  0  0
   22.1593   42.3263   -5.0041 C   0  0  0  0  0  0
   21.2041   43.5243   -5.1761 C   0  0  0  0  0  0
   21.2674   44.1032   -6.5170 N   0  0  0  0  0  0
   20.1263   43.9209   -7.3117 C   0  0  0  0  0  0
   20.2598   43.3500   -8.5917 C   0  0  0  0  0  0
   19.1248   43.0257   -9.3669 C   0  0  0  0  0  0
   17.8462   43.3828   -8.8899 C   0  0  0  0  0  0
   17.7070   44.0132   -7.6386 C   0  0  0  0  0  0
   18.8437   44.2759   -6.8497 C   0  0  0  0  0  0
   19.2590   42.3348  -10.6954 C   0  0  0  0  0  0
   18.7697   42.8424  -11.7044 O   0  0  0  0  0  0
   19.8738   41.1369  -10.7578 N   0  0  0  0  0  0
   25.1269   43.9347  -11.3605 C   0  0  0  0  0  0
   25.6675   44.7787  -12.3573 C   0  0  0  0  0  0
   26.8916   44.4323  -12.9696 C   0  0  0  0  0  0
   24.9404   46.0427  -12.7906 C   0  0  0  0  0  0
   25.8045   47.0498  -12.9180 F   0  0  0  0  0  0
   24.3606   45.8262  -13.9730 F   0  0  0  0  0  0
   24.0025   46.3982  -11.9088 F   0  0  0  0  0  0
   22.0479   39.4339  -10.8433 H   0  0  0  0  0  0
   20.3245   40.7717   -8.7207 H   0  0  0  0  0  0
   17.9687   37.8656   -8.9317 H   0  0  0  0  0  0
   31.1023   41.1400  -11.6383 H   0  0  0  0  0  0
   29.6696   40.6012  -12.5396 H   0  0  0  0  0  0
   29.5294   41.2392  -10.8979 H   0  0  0  0  0  0
   29.9373   43.5138  -11.6214 H   0  0  0  0  0  0
   30.7630   42.9748  -13.0571 H   0  0  0  0  0  0
   27.4733   41.4649  -11.3954 H   0  0  0  0  0  0
   26.0739   41.1672   -9.6367 H   0  0  0  0  0  0
   24.9670   42.3879   -9.0405 H   0  0  0  0  0  0
   24.2613   40.8874  -11.4533 H   0  0  0  0  0  0
   22.8356   41.8072   -9.0927 H   0  0  0  0  0  0
   22.4293   42.0153  -10.7936 H   0  0  0  0  0  0
   23.0258   38.6442   -9.1483 H   0  0  0  0  0  0
   19.6258   38.4902  -10.6202 H   0  0  0  0  0  0
   20.2328   38.2333   -9.0306 H   0  0  0  0  0  0
   17.2060   40.5932  -10.0041 H   0  0  0  0  0  0
   16.1612   39.2468   -9.6172 H   0  0  0  0  0  0
   17.2702   39.1204  -10.9724 H   0  0  0  0  0  0
   18.2624   40.5883   -7.6068 H   0  0  0  0  0  0
   17.0681   39.3853   -7.2783 H   0  0  0  0  0  0
   18.5266   38.9498   -5.5365 H   0  0  0  0  0  0
   19.0195   37.7533   -6.7004 H   0  0  0  0  0  0
   19.7238   41.2629   -6.0400 H   0  0  0  0  0  0
   20.2732   40.2924   -4.6784 H   0  0  0  0  0  0
   22.6014   40.3282   -5.6929 H   0  0  0  0  0  0
   22.0120   41.3786   -6.9495 H   0  0  0  0  0  0
   22.1206   42.0054   -3.9629 H   0  0  0  0  0  0
   23.1859   42.6574   -5.1703 H   0  0  0  0  0  0
   20.1902   43.2199   -4.9091 H   0  0  0  0  0  0
   21.4758   44.3002   -4.4592 H   0  0  0  0  0  0
   22.1462   43.9424   -6.9868 H   0  0  0  0  0  0
   21.2390   43.1319   -8.9670 H   0  0  0  0  0  0
   16.9665   43.1603   -9.4762 H   0  0  0  0  0  0
   16.7247   44.2726   -7.2720 H   0  0  0  0  0  0
   18.7336   44.7521   -5.8893 H   0  0  0  0  0  0
   19.8812   40.7187  -11.6759 H   0  0  0  0  0  0
   24.1936   44.1902  -10.8798 H   0  0  0  0  0  0
   27.3094   45.0750  -13.7311 H   0  0  0  0  0  0
   24.3816   40.0268  -10.0605 H   0  0  0  0  0  0
  1  2  1  0  0  0
  1 43  1  0  0  0
  1 44  1  0  0  0
  1 45  1  0  0  0
  2  3  1  0  0  0
  2 46  1  0  0  0
  2 47  1  0  0  0
  3  4  1  0  0  0
  4 35  1  0  0  0
  4  5  2  0  0  0
  5  6  1  0  0  0
  5 48  1  0  0  0
  6  7  1  0  0  0
  6 33  2  0  0  0
  7  8  1  0  0  0
  7 49  1  0  0  0
  7 50  1  0  0  0
  8  9  1  0  0  0
  8 51  1  0  0  0
  8 80  1  0  0  0
  9 10  1  0  0  0
  9 52  1  0  0  0
  9 53  1  0  0  0
 10 40  1  0  0  0
 10 11  1  0  0  0
 10 12  1  0  0  0
 11 54  1  0  0  0
 12 41  1  0  0  0
 12 32  1  0  0  0
 12 13  1  0  0  0
 13 14  1  0  0  0
 13 55  1  0  0  0
 13 56  1  0  0  0
 14 42  1  0  0  0
 14 15  1  0  0  0
 14 16  1  0  0  0
 15 57  1  0  0  0
 15 58  1  0  0  0
 15 59  1  0  0  0
 16 17  1  0  0  0
 16 60  1  0  0  0
 16 61  1  0  0  0
 17 18  1  0  0  0
 17 62  1  0  0  0
 17 63  1  0  0  0
 18 19  1  0  0  0
 19 20  1  0  0  0
 19 64  1  0  0  0
 19 65  1  0  0  0
 20 21  1  0  0  0
 20 66  1  0  0  0
 20 67  1  0  0  0
 21 22  1  0  0  0
 21 68  1  0  0  0
 21 69  1  0  0  0
 22 23  1  0  0  0
 22 70  1  0  0  0
 22 71  1  0  0  0
 23 24  1  0  0  0
 23 72  1  0  0  0
 24 29  1  0  0  0
 24 25  2  0  0  0
 25 26  1  0  0  0
 25 73  1  0  0  0
 26 27  2  0  0  0
 26 30  1  0  0  0
 27 28  1  0  0  0
 27 74  1  0  0  0
 28 29  2  0  0  0
 28 75  1  0  0  0
 29 76  1  0  0  0
 30 31  2  0  0  0
 30 32  1  0  0  0
 32 77  1  0  0  0
 33 34  1  0  0  0
 33 78  1  0  0  0
 34 35  2  0  0  0
 34 36  1  0  0  0
 35 79  1  0  0  0
 36 37  1  0  0  0
 36 38  1  0  0  0
 36 39  1  0  0  0
M  CHG  1   8   1
M  END
> <s_m_source_file>
BACE_73.smi

> <i_m_source_file_index>
1

> <i_lp_mmshare_version>
42013

> <i_f3d_flags>
0

> <s_epik_input>
W0NIM11bQ0gyXU9jMVtjSF1jKFtjSF1jKFtjSF0xKUMoRikoRilGKVtDSDJdW05IXVtDSDJdW0NAQEhdKFtPSF0pW0NAQEhdKFtOSF1DKD1PKWMoW2NIXWMyMylbY0hdW2NIXVtjSF0zKVtDSDJdW0NASF0oW0NIM10pW0NIMl1bQ0gyXU9bQ0gyXVtDSDJdW0NIMl1bQ0gyXVtOSF0y

> <s_epik_cmdline>
J2VwaWtfcHl0aG9uJywgJy1waCcsICc3LjAnLCAnLXRuJywgJzgnLCAnLW1hJywgJzIwMCcsICctaW1hZScsICc8aW5maWxlLm1hZT4nLCAnLW9tYWUnLCAnPG91dGZpbGUubWFlPic=

> <r_lp_tautomer_probability>
1

> <r_epik_Ionization_Penalty>
  0.0232

> <r_epik_Ionization_Penalty_Charging>
  0.0227

> <r_epik_Ionization_Penalty_Neutral>
  0.0005

> <r_epik_State_Penalty>
  0.0183

> <r_epik_Charging_Adjusted_Penalty>
0.0409615

> <i_epik_Tot_Q>
1

> <i_epik_Tot_abs_Q>
1

> <s_lp_Force_Field>
OPLS_2005

> <r_lp_Energy>
39.9778

> <b_lp_Chiralities_Consistent>
1

> <s_lp_Variant>
BACE_73.smi:1-1

> <chiral flag>
1

> <version>
0

> <s_i_glide_gridfile>
second_dock_grid_2

> <i_i_glide_lignum>
146

> <i_i_glide_rotatable_bonds>
9

> <r_i_docking_score>
-5.02719

> <r_i_glide_ligand_efficiency>
-0.128902

> <r_i_glide_ligand_efficiency_sa>
-0.437135

> <r_i_glide_ligand_efficiency_ln>
-1.07797

> <r_glide_XP_GScore>
-5.04549

> <r_i_glide_gscore>
-5.04549

> <r_i_glide_evdw>
-36.6284

> <r_i_glide_ecoul>
-12.9109

> <r_i_glide_energy>
-49.5393

> <r_i_glide_einternal>
10.1347

> <r_i_glide_emodel>
-66.8302

> <r_glide_XP_HBond>
-0.48

> <i_i_glide_confnum>
1

> <i_i_glide_posenum>
12

> <r_i_glide_eff_state_penalty>
0.0183

> <i_glide_XP_PoseRank>
1

$$$$
BACE_73.smi:1
                    3D
 Structure written by MMmdl.
 79 81  0  0  1  0            999 V2000
   30.7161   43.4736  -14.2190 C   0  0  0  0  0  0
   30.7192   42.0287  -13.7162 C   0  0  0  0  0  0
   29.3982   41.6657  -13.3451 O   0  0  0  0  0  0
   28.9051   42.1349  -12.1463 C   0  0  0  0  0  0
   27.5818   41.9197  -11.6836 C   0  0  0  0  0  0
   27.1676   42.4318  -10.4341 C   0  0  0  0  0  0
   25.7532   42.2115   -9.9229 C   0  0  0  0  0  0
   24.7204   42.5516  -10.8989 N   0  0  0  0  0  0
   23.3670   42.2741  -10.4253 C   0  0  0  0  0  0
   23.1874   40.7820  -10.0748 C   0  0  1  0  0  0
   23.8956   40.5508   -8.8709 O   0  0  0  0  0  0
   21.7067   40.3347   -9.8986 C   0  0  2  0  0  0
   21.5482   38.8159   -9.5936 C   0  0  0  0  0  0
   20.1380   38.2474   -9.2820 C   0  0  2  0  0  0
   19.2271   38.1404  -10.5174 C   0  0  0  0  0  0
   19.4011   38.9061   -8.0957 C   0  0  0  0  0  0
   20.0940   38.7307   -6.7305 C   0  0  0  0  0  0
   21.0309   39.7686   -6.4836 O   0  0  0  0  0  0
   20.4514   40.9029   -5.8539 C   0  0  0  0  0  0
   21.4978   42.0201   -5.7896 C   0  0  0  0  0  0
   21.0168   43.3128   -5.1041 C   0  0  0  0  0  0
   19.7968   43.9804   -5.7632 C   0  0  0  0  0  0
   20.0334   44.3019   -7.1669 N   0  0  0  0  0  0
   19.2942   43.5763   -8.1093 C   0  0  0  0  0  0
   19.9678   43.0022   -9.2075 C   0  0  0  0  0  0
   19.2682   42.2029  -10.1400 C   0  0  0  0  0  0
   17.8726   42.0430  -10.0018 C   0  0  0  0  0  0
   17.1901   42.6376   -8.9254 C   0  0  0  0  0  0
   17.8988   43.3983   -7.9785 C   0  0  0  0  0  0
   19.9584   41.5693  -11.3135 C   0  0  0  0  0  0
   19.5199   41.7672  -12.4447 O   0  0  0  0  0  0
   20.9935   40.7291  -11.1172 N   0  0  0  0  0  0
   28.0729   43.1774   -9.6520 C   0  0  0  0  0  0
   29.3924   43.3986  -10.0983 C   0  0  0  0  0  0
   29.7960   42.8738  -11.3429 C   0  0  0  0  0  0
   30.3755   44.2075   -9.2653 C   0  0  0  0  0  0
   31.0846   45.0195  -10.0495 F   0  0  0  0  0  0
   29.7008   44.9439   -8.3833 F   0  0  0  0  0  0
   31.2243   43.4197   -8.6041 F   0  0  0  0  0  0
   23.6729   40.1773  -10.8435 H   0  0  0  0  0  0
   21.3118   40.8659   -9.0379 H   0  0  0  0  0  0
   20.3146   37.2117   -8.9882 H   0  0  0  0  0  0
   31.7170   43.7804  -14.5228 H   0  0  0  0  0  0
   30.3774   44.1584  -13.4412 H   0  0  0  0  0  0
   30.0552   43.5877  -15.0785 H   0  0  0  0  0  0
   31.0733   41.3702  -14.5091 H   0  0  0  0  0  0
   31.3959   41.9416  -12.8651 H   0  0  0  0  0  0
   26.8699   41.3612  -12.2722 H   0  0  0  0  0  0
   25.6565   41.1619   -9.6420 H   0  0  0  0  0  0
   25.6149   42.7855   -9.0075 H   0  0  0  0  0  0
   24.8905   42.0459  -11.7626 H   0  0  0  0  0  0
   23.1848   42.8785   -9.5350 H   0  0  0  0  0  0
   22.6295   42.5943  -11.1618 H   0  0  0  0  0  0
   24.2109   39.6602   -8.8737 H   0  0  0  0  0  0
   21.9528   38.2348  -10.4227 H   0  0  0  0  0  0
   22.1905   38.5748   -8.7465 H   0  0  0  0  0  0
   18.8052   39.1014  -10.8021 H   0  0  0  0  0  0
   18.3862   37.4754  -10.3184 H   0  0  0  0  0  0
   19.7637   37.7366  -11.3763 H   0  0  0  0  0  0
   19.1994   39.9566   -8.2994 H   0  0  0  0  0  0
   18.4198   38.4367   -8.0191 H   0  0  0  0  0  0
   19.3539   38.6885   -5.9294 H   0  0  0  0  0  0
   20.6178   37.7750   -6.6988 H   0  0  0  0  0  0
   19.5771   41.2365   -6.4121 H   0  0  0  0  0  0
   20.1184   40.6404   -4.8489 H   0  0  0  0  0  0
   22.3741   41.6489   -5.2584 H   0  0  0  0  0  0
   21.8288   42.2488   -6.8008 H   0  0  0  0  0  0
   20.7798   43.0973   -4.0618 H   0  0  0  0  0  0
   21.8429   44.0236   -5.0784 H   0  0  0  0  0  0
   18.9263   43.3388   -5.6305 H   0  0  0  0  0  0
   19.5676   44.9091   -5.2406 H   0  0  0  0  0  0
   21.0071   44.4294   -7.4029 H   0  0  0  0  0  0
   21.0323   43.1546   -9.3180 H   0  0  0  0  0  0
   17.3183   41.4550  -10.7195 H   0  0  0  0  0  0
   16.1229   42.5070   -8.8242 H   0  0  0  0  0  0
   17.3610   43.8477   -7.1565 H   0  0  0  0  0  0
   21.3619   40.3140  -11.9605 H   0  0  0  0  0  0
   27.7491   43.5815   -8.7041 H   0  0  0  0  0  0
   30.8039   43.0449  -11.6922 H   0  0  0  0  0  0
  1  2  1  0  0  0
  1 43  1  0  0  0
  1 44  1  0  0  0
  1 45  1  0  0  0
  2  3  1  0  0  0
  2 46  1  0  0  0
  2 47  1  0  0  0
  3  4  1  0  0  0
  4 35  1  0  0  0
  4  5  2  0  0  0
  5  6  1  0  0  0
  5 48  1  0  0  0
  6  7  1  0  0  0
  6 33  2  0  0  0
  7  8  1  0  0  0
  7 49  1  0  0  0
  7 50  1  0  0  0
  8  9  1  0  0  0
  8 51  1  0  0  0
  9 10  1  0  0  0
  9 52  1  0  0  0
  9 53  1  0  0  0
 10 40  1  0  0  0
 10 11  1  0  0  0
 10 12  1  0  0  0
 11 54  1  0  0  0
 12 41  1  0  0  0
 12 32  1  0  0  0
 12 13  1  0  0  0
 13 14  1  0  0  0
 13 55  1  0  0  0
 13 56  1  0  0  0
 14 42  1  0  0  0
 14 15  1  0  0  0
 14 16  1  0  0  0
 15 57  1  0  0  0
 15 58  1  0  0  0
 15 59  1  0  0  0
 16 17  1  0  0  0
 16 60  1  0  0  0
 16 61  1  0  0  0
 17 18  1  0  0  0
 17 62  1  0  0  0
 17 63  1  0  0  0
 18 19  1  0  0  0
 19 20  1  0  0  0
 19 64  1  0  0  0
 19 65  1  0  0  0
 20 21  1  0  0  0
 20 66  1  0  0  0
 20 67  1  0  0  0
 21 22  1  0  0  0
 21 68  1  0  0  0
 21 69  1  0  0  0
 22 23  1  0  0  0
 22 70  1  0  0  0
 22 71  1  0  0  0
 23 24  1  0  0  0
 23 72  1  0  0  0
 24 29  1  0  0  0
 24 25  2  0  0  0
 25 26  1  0  0  0
 25 73  1  0  0  0
 26 27  2  0  0  0
 26 30  1  0  0  0
 27 28  1  0  0  0
 27 74  1  0  0  0
 28 29  2  0  0  0
 28 75  1  0  0  0
 29 76  1  0  0  0
 30 31  2  0  0  0
 30 32  1  0  0  0
 32 77  1  0  0  0
 33 34  1  0  0  0
 33 78  1  0  0  0
 34 35  2  0  0  0
 34 36  1  0  0  0
 35 79  1  0  0  0
 36 37  1  0  0  0
 36 38  1  0  0  0
 36 39  1  0  0  0
M  END
> <s_m_source_file>
BACE_73.smi

> <i_m_source_file_index>
1

> <i_lp_mmshare_version>
42013

> <i_f3d_flags>
0

> <s_epik_input>
W0NIM11bQ0gyXU9jMVtjSF1jKFtjSF1jKFtjSF0xKUMoRikoRilGKVtDSDJdW05IXVtDSDJdW0NAQEhdKFtPSF0pW0NAQEhdKFtOSF1DKD1PKWMoW2NIXWMyMylbY0hdW2NIXVtjSF0zKVtDSDJdW0NASF0oW0NIM10pW0NIMl1bQ0gyXU9bQ0gyXVtDSDJdW0NIMl1bQ0gyXVtOSF0y

> <s_epik_cmdline>
J2VwaWtfcHl0aG9uJywgJy1waCcsICc3LjAnLCAnLXRuJywgJzgnLCAnLW1hJywgJzIwMCcsICctaW1hZScsICc8aW5maWxlLm1hZT4nLCAnLW9tYWUnLCAnPG91dGZpbGUubWFlPic=

> <r_lp_tautomer_probability>
1

> <r_epik_Ionization_Penalty>
  1.9455

> <r_epik_Ionization_Penalty_Charging>
  0.0000

> <r_epik_Ionization_Penalty_Neutral>
  1.9455

> <r_epik_State_Penalty>
  2.0695

> <r_epik_Charging_Adjusted_Penalty>
2.06951

> <i_epik_Tot_Q>
0

> <i_epik_Tot_abs_Q>
0

> <s_lp_Force_Field>
OPLS_2005

> <r_lp_Energy>
46.6473

> <b_lp_Chiralities_Consistent>
1

> <s_lp_Variant>
BACE_73.smi:1-2

> <chiral flag>
1

> <version>
0

> <s_i_glide_gridfile>
second_dock_grid_2

> <i_i_glide_lignum>
147

> <i_i_glide_rotatable_bonds>
9

> <r_i_docking_score>
-2.55969

> <r_i_glide_ligand_efficiency>
-0.065633

> <r_i_glide_ligand_efficiency_sa>
-0.222575

> <r_i_glide_ligand_efficiency_ln>
-0.548869

> <r_glide_XP_GScore>
-4.62919

> <r_i_glide_gscore>
-4.62919

> <r_i_glide_evdw>
-39.9471

> <r_i_glide_ecoul>
-7.57464

> <r_i_glide_energy>
-47.5218

> <r_i_glide_einternal>
7.28803

> <r_i_glide_emodel>
-65.988

> <r_glide_XP_HBond>
-1.33

> <i_i_glide_confnum>
1

> <i_i_glide_posenum>
3

> <r_i_glide_eff_state_penalty>
2.0695

> <i_glide_XP_PoseRank>
1

$$$$
BACE_74.smi:1
                    3D
 Structure written by MMmdl.
 81 83  0  0  1  0            999 V2000
   18.2194   37.3286   -8.9859 C   0  0  0  0  0  0
   17.8699   38.7577   -8.5169 C   0  0  2  0  0  0
   16.3527   38.9665   -8.7462 C   0  0  0  0  0  0
   15.7001   40.2042   -8.1083 C   0  0  0  0  0  0
   15.8868   41.3492   -8.9286 O   0  0  0  0  0  0
   14.8810   42.3349   -8.7304 C   0  0  0  0  0  0
   15.3230   43.6669   -9.3613 C   0  0  0  0  0  0
   16.2964   44.4869   -8.4928 C   0  0  0  0  0  0
   17.4847   43.6541   -8.0036 C   0  0  0  0  0  0
   18.5015   44.4338   -7.3170 N   0  0  0  0  0  0
   19.7130   43.7864   -7.0204 C   0  0  0  0  0  0
   19.8106   42.3740   -6.9724 C   0  0  0  0  0  0
   21.0377   41.7328   -6.7222 C   0  0  0  0  0  0
   22.1798   42.5189   -6.4644 C   0  0  0  0  0  0
   22.0954   43.9236   -6.4858 C   0  0  0  0  0  0
   20.8686   44.5587   -6.7628 C   0  0  0  0  0  0
   20.7976   46.2873   -6.7633 Cl  0  0  0  0  0  0
   21.1137   40.2376   -6.6046 C   0  0  0  0  0  0
   21.6207   39.7502   -5.5983 O   0  0  0  0  0  0
   20.6802   39.4408   -7.6051 N   0  0  0  0  0  0
   20.2931   39.6754   -9.0112 C   0  0  1  0  0  0
   18.7558   39.8293   -9.2119 C   0  0  0  0  0  0
   21.1823   40.6929   -9.7938 C   0  0  2  0  0  0
   20.8667   40.5748  -11.1720 O   0  0  0  0  0  0
   22.6939   40.3781   -9.6567 C   0  0  0  0  0  0
   23.5700   41.2783  -10.4400 N   0  3  0  0  0  0
   24.9519   41.3901   -9.9305 C   0  0  0  0  0  0
   25.7979   42.2606  -10.8386 C   0  0  0  0  0  0
   27.1151   41.8867  -11.1792 C   0  0  0  0  0  0
   27.8951   42.7482  -11.9869 C   0  0  0  0  0  0
   27.2707   43.9321  -12.4486 C   0  0  0  0  0  0
   25.9426   44.2048  -12.0703 C   0  0  0  0  0  0
   25.2142   43.3972  -11.2746 N   0  0  0  0  0  0
   29.3529   42.3973  -12.3475 C   0  0  0  0  0  0
   30.1524   43.6269  -12.8322 C   0  0  0  0  0  0
   29.3586   41.3506  -13.4723 C   0  0  0  0  0  0
   30.1005   41.8162  -11.1270 C   0  0  0  0  0  0
   18.0453   38.8089   -7.4415 H   0  0  0  0  0  0
   20.5403   38.7193   -9.4721 H   0  0  0  0  0  0
   20.9680   41.7138   -9.4770 H   0  0  0  0  0  0
   18.0124   37.2042  -10.0480 H   0  0  0  0  0  0
   17.6260   36.5883   -8.4466 H   0  0  0  0  0  0
   19.2617   37.0628   -8.8277 H   0  0  0  0  0  0
   16.1217   38.9428   -9.8118 H   0  0  0  0  0  0
   15.8381   38.1031   -8.3202 H   0  0  0  0  0  0
   14.6322   40.0007   -8.0039 H   0  0  0  0  0  0
   16.0836   40.3874   -7.1042 H   0  0  0  0  0  0
   13.9650   41.9875   -9.2115 H   0  0  0  0  0  0
   14.6633   42.4742   -7.6698 H   0  0  0  0  0  0
   15.7650   43.4708  -10.3376 H   0  0  0  0  0  0
   14.4399   44.2773   -9.5487 H   0  0  0  0  0  0
   16.6520   45.3419   -9.0687 H   0  0  0  0  0  0
   15.7639   44.8955   -7.6355 H   0  0  0  0  0  0
   17.1168   42.8927   -7.3144 H   0  0  0  0  0  0
   17.9393   43.1439   -8.8536 H   0  0  0  0  0  0
   18.5371   45.4295   -7.4879 H   0  0  0  0  0  0
   18.9334   41.7566   -7.0776 H   0  0  0  0  0  0
   23.1224   42.0471   -6.2274 H   0  0  0  0  0  0
   22.9738   44.5174   -6.2777 H   0  0  0  0  0  0
   20.7142   38.4614   -7.3606 H   0  0  0  0  0  0
   18.5391   39.7967  -10.2796 H   0  0  0  0  0  0
   18.4413   40.8209   -8.9007 H   0  0  0  0  0  0
   21.0288   41.3957  -11.6109 H   0  0  0  0  0  0
   22.9969   40.4344   -8.6132 H   0  0  0  0  0  0
   22.8614   39.3527   -9.9748 H   0  0  0  0  0  0
   23.6300   40.9511  -11.3997 H   0  0  0  0  0  0
   24.9362   41.8331   -8.9343 H   0  0  0  0  0  0
   25.4117   40.4100   -9.8377 H   0  0  0  0  0  0
   27.5176   40.9519  -10.8185 H   0  0  0  0  0  0
   27.7788   44.6393  -13.0841 H   0  0  0  0  0  0
   25.4528   45.1055  -12.4103 H   0  0  0  0  0  0
   31.1966   43.3695  -13.0147 H   0  0  0  0  0  0
   30.1395   44.4294  -12.0937 H   0  0  0  0  0  0
   29.7633   44.0262  -13.7692 H   0  0  0  0  0  0
   28.8600   41.7230  -14.3681 H   0  0  0  0  0  0
   28.8593   40.4305  -13.1676 H   0  0  0  0  0  0
   30.3752   41.0805  -13.7590 H   0  0  0  0  0  0
   31.1554   41.6540  -11.3513 H   0  0  0  0  0  0
   29.6998   40.8499  -10.8260 H   0  0  0  0  0  0
   30.0433   42.4880  -10.2682 H   0  0  0  0  0  0
   23.1942   42.2145  -10.4534 H   0  0  0  0  0  0
  1  2  1  0  0  0
  1 41  1  0  0  0
  1 42  1  0  0  0
  1 43  1  0  0  0
  2 38  1  0  0  0
  2 22  1  0  0  0
  2  3  1  0  0  0
  3  4  1  0  0  0
  3 44  1  0  0  0
  3 45  1  0  0  0
  4  5  1  0  0  0
  4 46  1  0  0  0
  4 47  1  0  0  0
  5  6  1  0  0  0
  6  7  1  0  0  0
  6 48  1  0  0  0
  6 49  1  0  0  0
  7  8  1  0  0  0
  7 50  1  0  0  0
  7 51  1  0  0  0
  8  9  1  0  0  0
  8 52  1  0  0  0
  8 53  1  0  0  0
  9 10  1  0  0  0
  9 54  1  0  0  0
  9 55  1  0  0  0
 10 11  1  0  0  0
 10 56  1  0  0  0
 11 16  1  0  0  0
 11 12  2  0  0  0
 12 13  1  0  0  0
 12 57  1  0  0  0
 13 14  2  0  0  0
 13 18  1  0  0  0
 14 15  1  0  0  0
 14 58  1  0  0  0
 15 16  2  0  0  0
 15 59  1  0  0  0
 16 17  1  0  0  0
 18 19  2  0  0  0
 18 20  1  0  0  0
 20 21  1  0  0  0
 20 60  1  0  0  0
 21 39  1  0  0  0
 21 22  1  0  0  0
 21 23  1  0  0  0
 22 61  1  0  0  0
 22 62  1  0  0  0
 23 40  1  0  0  0
 23 24  1  0  0  0
 23 25  1  0  0  0
 24 63  1  0  0  0
 25 26  1  0  0  0
 25 64  1  0  0  0
 25 65  1  0  0  0
 26 27  1  0  0  0
 26 66  1  0  0  0
 26 81  1  0  0  0
 27 28  1  0  0  0
 27 67  1  0  0  0
 27 68  1  0  0  0
 28 33  1  0  0  0
 28 29  2  0  0  0
 29 30  1  0  0  0
 29 69  1  0  0  0
 30 31  2  0  0  0
 30 34  1  0  0  0
 31 32  1  0  0  0
 31 70  1  0  0  0
 32 33  2  0  0  0
 32 71  1  0  0  0
 34 35  1  0  0  0
 34 36  1  0  0  0
 34 37  1  0  0  0
 35 72  1  0  0  0
 35 73  1  0  0  0
 35 74  1  0  0  0
 36 75  1  0  0  0
 36 76  1  0  0  0
 36 77  1  0  0  0
 37 78  1  0  0  0
 37 79  1  0  0  0
 37 80  1  0  0  0
M  CHG  1  26   1
M  END
> <s_m_source_file>
BACE_74.smi

> <i_m_source_file_index>
1

> <i_lp_mmshare_version>
42013

> <i_f3d_flags>
0

> <s_epik_input>
W05IXTFbQ0gyXVtDSDJdW0NIMl1bQ0gyXU9bQ0gyXVtDSDJdW0NAQEhdKFtDSDNdKVtDSDJdW0NASF0oW05IXUMoPU8pYyhbY0hdYzEyKVtjSF1bY0hdYzJDbClbQ0BIXShbT0hdKVtDSDJdW05IXVtDSDJdYzNbY0hdYyhbY0hdW2NIXW4zKUMoW0NIM10pKFtDSDNdKVtDSDNd

> <s_epik_cmdline>
J2VwaWtfcHl0aG9uJywgJy1waCcsICc3LjAnLCAnLXRuJywgJzgnLCAnLW1hJywgJzIwMCcsICctaW1hZScsICc8aW5maWxlLm1hZT4nLCAnLW9tYWUnLCAnPG91dGZpbGUubWFlPic=

> <r_epik_Ionization_Penalty>
  0.0335

> <r_epik_Ionization_Penalty_Charging>
  0.0332

> <r_epik_Ionization_Penalty_Neutral>
  0.0003

> <r_epik_State_Penalty>
  0.0276

> <r_epik_Charging_Adjusted_Penalty>
0.0607889

> <i_epik_Tot_Q>
1

> <i_epik_Tot_abs_Q>
1

> <s_lp_Force_Field>
OPLS_2005

> <r_lp_Energy>
32.9586

> <b_lp_Chiralities_Consistent>
1

> <s_lp_Variant>
BACE_74.smi:1-1

> <chiral flag>
1

> <version>
0

> <s_i_glide_gridfile>
second_dock_grid_2

> <i_i_glide_lignum>
148

> <i_i_glide_rotatable_bonds>
7

> <r_i_docking_score>
-3.51847

> <r_i_glide_ligand_efficiency>
-0.0950939

> <r_i_glide_ligand_efficiency_sa>
-0.316874

> <r_i_glide_ligand_efficiency_ln>
-0.763075

> <r_glide_XP_GScore>
-3.54607

> <r_i_glide_gscore>
-3.54607

> <r_i_glide_evdw>
-40.9838

> <r_i_glide_ecoul>
-8.28298

> <r_i_glide_energy>
-49.2668

> <r_i_glide_einternal>
2.31672

> <r_i_glide_emodel>
-64.4615

> <r_glide_XP_HBond>
0

> <i_i_glide_confnum>
1

> <i_i_glide_posenum>
8

> <r_i_glide_eff_state_penalty>
0.0276

> <i_glide_XP_PoseRank>
1

$$$$
BACE_74.smi:1
                    3D
 Structure written by MMmdl.
 80 82  0  0  1  0            999 V2000
   14.8568   39.1931   -7.6309 C   0  0  0  0  0  0
   16.0824   39.3429   -8.5641 C   0  0  2  0  0  0
   16.9116   38.0353   -8.5217 C   0  0  0  0  0  0
   17.9971   37.8684   -9.6010 C   0  0  0  0  0  0
   19.1681   38.6248   -9.3137 O   0  0  0  0  0  0
   20.3042   38.1509  -10.0263 C   0  0  0  0  0  0
   21.5013   39.1057   -9.9000 C   0  0  0  0  0  0
   21.4805   40.2594  -10.9138 C   0  0  0  0  0  0
   20.1561   41.0183  -10.8637 C   0  0  0  0  0  0
   20.1702   42.2388  -11.6498 N   0  0  0  0  0  0
   19.0806   43.0913  -11.4204 C   0  0  0  0  0  0
   17.7744   42.5707  -11.2555 C   0  0  0  0  0  0
   16.7364   43.4010  -10.7906 C   0  0  0  0  0  0
   16.9497   44.7907  -10.6800 C   0  0  0  0  0  0
   18.2322   45.3249  -10.9002 C   0  0  0  0  0  0
   19.3068   44.4736  -11.2187 C   0  0  0  0  0  0
   20.9055   45.1333  -11.2414 Cl  0  0  0  0  0  0
   15.4264   42.8140  -10.3761 C   0  0  0  0  0  0
   14.4699   42.8947  -11.1431 O   0  0  0  0  0  0
   15.3121   42.2315   -9.1629 N   0  0  0  0  0  0
   16.2546   41.9306   -8.0611 C   0  0  1  0  0  0
   16.9700   40.5696   -8.2264 C   0  0  0  0  0  0
   17.1615   43.0814   -7.5045 C   0  0  2  0  0  0
   16.5083   44.3264   -7.6402 O   0  0  0  0  0  0
   18.6169   43.1753   -8.0211 C   0  0  0  0  0  0
   19.6242   42.4278   -7.2498 N   0  0  0  0  0  0
   20.0120   42.9533   -5.9310 C   0  0  0  0  0  0
   20.6732   44.3204   -5.9489 C   0  0  0  0  0  0
   19.9047   45.4911   -6.1267 C   0  0  0  0  0  0
   20.5530   46.7445   -6.1909 C   0  0  0  0  0  0
   21.9601   46.7507   -6.0320 C   0  0  0  0  0  0
   22.6320   45.5324   -5.8211 C   0  0  0  0  0  0
   22.0103   44.3390   -5.7803 N   0  0  0  0  0  0
   19.7665   48.0318   -6.4917 C   0  0  0  0  0  0
   18.3369   47.9811   -5.9080 C   0  0  0  0  0  0
   19.6654   48.1907   -8.0190 C   0  0  0  0  0  0
   20.4583   49.2809   -5.9027 C   0  0  0  0  0  0
   15.7004   39.4597   -9.5791 H   0  0  0  0  0  0
   15.5514   41.7697   -7.2410 H   0  0  0  0  0  0
   17.2307   42.9482   -6.4400 H   0  0  0  0  0  0
   15.1417   39.2599   -6.5797 H   0  0  0  0  0  0
   14.3778   38.2226   -7.7611 H   0  0  0  0  0  0
   14.0691   39.9288   -7.8192 H   0  0  0  0  0  0
   17.3567   37.9002   -7.5339 H   0  0  0  0  0  0
   16.2227   37.1968   -8.6393 H   0  0  0  0  0  0
   18.2533   36.8085   -9.6511 H   0  0  0  0  0  0
   17.6137   38.1512  -10.5813 H   0  0  0  0  0  0
   20.5901   37.1984   -9.5977 H   0  0  0  0  0  0
   20.0601   37.9718  -11.0734 H   0  0  0  0  0  0
   21.5455   39.4972   -8.8842 H   0  0  0  0  0  0
   22.4243   38.5452  -10.0441 H   0  0  0  0  0  0
   22.3125   40.9322  -10.6977 H   0  0  0  0  0  0
   21.6477   39.8776  -11.9227 H   0  0  0  0  0  0
   19.3624   40.3663  -11.2286 H   0  0  0  0  0  0
   19.9345   41.2600   -9.8247 H   0  0  0  0  0  0
   21.0653   42.7107  -11.6617 H   0  0  0  0  0  0
   17.5799   41.5151  -11.3679 H   0  0  0  0  0  0
   16.1488   45.4404  -10.3575 H   0  0  0  0  0  0
   18.4069   46.3803  -10.7499 H   0  0  0  0  0  0
   14.3835   41.8730   -8.9879 H   0  0  0  0  0  0
   17.5063   40.3593   -7.2995 H   0  0  0  0  0  0
   17.7296   40.6658   -8.9981 H   0  0  0  0  0  0
   15.7718   44.2846   -7.0388 H   0  0  0  0  0  0
   18.6315   42.7679   -9.0125 H   0  0  0  0  0  0
   18.9214   44.2114   -8.1407 H   0  0  0  0  0  0
   19.3143   41.4677   -7.1275 H   0  0  0  0  0  0
   19.1718   42.9778   -5.2499 H   0  0  0  0  0  0
   20.7139   42.2538   -5.4728 H   0  0  0  0  0  0
   18.8405   45.3973   -6.2607 H   0  0  0  0  0  0
   22.5403   47.6578   -6.0847 H   0  0  0  0  0  0
   23.7046   45.5187   -5.6930 H   0  0  0  0  0  0
   17.8218   48.9331   -6.0426 H   0  0  0  0  0  0
   18.3572   47.7649   -4.8417 H   0  0  0  0  0  0
   17.7122   47.2338   -6.3953 H   0  0  0  0  0  0
   19.1511   47.3426   -8.4716 H   0  0  0  0  0  0
   20.6543   48.2516   -8.4744 H   0  0  0  0  0  0
   19.1178   49.0920   -8.2956 H   0  0  0  0  0  0
   19.8523   50.1715   -6.0632 H   0  0  0  0  0  0
   21.4222   49.4795   -6.3705 H   0  0  0  0  0  0
   20.6151   49.1782   -4.8287 H   0  0  0  0  0  0
  1  2  1  0  0  0
  1 41  1  0  0  0
  1 42  1  0  0  0
  1 43  1  0  0  0
  2 38  1  0  0  0
  2 22  1  0  0  0
  2  3  1  0  0  0
  3  4  1  0  0  0
  3 44  1  0  0  0
  3 45  1  0  0  0
  4  5  1  0  0  0
  4 46  1  0  0  0
  4 47  1  0  0  0
  5  6  1  0  0  0
  6  7  1  0  0  0
  6 48  1  0  0  0
  6 49  1  0  0  0
  7  8  1  0  0  0
  7 50  1  0  0  0
  7 51  1  0  0  0
  8  9  1  0  0  0
  8 52  1  0  0  0
  8 53  1  0  0  0
  9 10  1  0  0  0
  9 54  1  0  0  0
  9 55  1  0  0  0
 10 11  1  0  0  0
 10 56  1  0  0  0
 11 16  1  0  0  0
 11 12  2  0  0  0
 12 13  1  0  0  0
 12 57  1  0  0  0
 13 14  2  0  0  0
 13 18  1  0  0  0
 14 15  1  0  0  0
 14 58  1  0  0  0
 15 16  2  0  0  0
 15 59  1  0  0  0
 16 17  1  0  0  0
 18 19  2  0  0  0
 18 20  1  0  0  0
 20 21  1  0  0  0
 20 60  1  0  0  0
 21 39  1  0  0  0
 21 22  1  0  0  0
 21 23  1  0  0  0
 22 61  1  0  0  0
 22 62  1  0  0  0
 23 40  1  0  0  0
 23 24  1  0  0  0
 23 25  1  0  0  0
 24 63  1  0  0  0
 25 26  1  0  0  0
 25 64  1  0  0  0
 25 65  1  0  0  0
 26 27  1  0  0  0
 26 66  1  0  0  0
 27 28  1  0  0  0
 27 67  1  0  0  0
 27 68  1  0  0  0
 28 33  1  0  0  0
 28 29  2  0  0  0
 29 30  1  0  0  0
 29 69  1  0  0  0
 30 31  2  0  0  0
 30 34  1  0  0  0
 31 32  1  0  0  0
 31 70  1  0  0  0
 32 33  2  0  0  0
 32 71  1  0  0  0
 34 35  1  0  0  0
 34 36  1  0  0  0
 34 37  1  0  0  0
 35 72  1  0  0  0
 35 73  1  0  0  0
 35 74  1  0  0  0
 36 75  1  0  0  0
 36 76  1  0  0  0
 36 77  1  0  0  0
 37 78  1  0  0  0
 37 79  1  0  0  0
 37 80  1  0  0  0
M  END
> <s_m_source_file>
BACE_74.smi

> <i_m_source_file_index>
1

> <i_lp_mmshare_version>
42013

> <i_f3d_flags>
0

> <s_epik_input>
W05IXTFbQ0gyXVtDSDJdW0NIMl1bQ0gyXU9bQ0gyXVtDSDJdW0NAQEhdKFtDSDNdKVtDSDJdW0NASF0oW05IXUMoPU8pYyhbY0hdYzEyKVtjSF1bY0hdYzJDbClbQ0BIXShbT0hdKVtDSDJdW05IXVtDSDJdYzNbY0hdYyhbY0hdW2NIXW4zKUMoW0NIM10pKFtDSDNdKVtDSDNd

> <s_epik_cmdline>
J2VwaWtfcHl0aG9uJywgJy1waCcsICc3LjAnLCAnLXRuJywgJzgnLCAnLW1hJywgJzIwMCcsICctaW1hZScsICc8aW5maWxlLm1hZT4nLCAnLW9tYWUnLCAnPG91dGZpbGUubWFlPic=

> <r_epik_Ionization_Penalty>
  1.7253

> <r_epik_Ionization_Penalty_Charging>
  0.0000

> <r_epik_Ionization_Penalty_Neutral>
  1.7253

> <r_epik_State_Penalty>
  1.8313

> <r_epik_Charging_Adjusted_Penalty>
1.83129

> <i_epik_Tot_Q>
0

> <i_epik_Tot_abs_Q>
0

> <s_lp_Force_Field>
OPLS_2005

> <r_lp_Energy>
41.5136

> <b_lp_Chiralities_Consistent>
1

> <s_lp_Variant>
BACE_74.smi:1-2

> <chiral flag>
1

> <version>
0

> <s_i_glide_gridfile>
second_dock_grid_2

> <i_i_glide_lignum>
149

> <i_i_glide_rotatable_bonds>
7

> <r_i_docking_score>
-0.132694

> <r_i_glide_ligand_efficiency>
-0.00358633

> <r_i_glide_ligand_efficiency_sa>
-0.0119505

> <r_i_glide_ligand_efficiency_ln>
-0.0287783

> <r_glide_XP_GScore>
-1.96399

> <r_i_glide_gscore>
-1.96399

> <r_i_glide_evdw>
-37.2133

> <r_i_glide_ecoul>
-10.1112

> <r_i_glide_energy>
-47.3245

> <r_i_glide_einternal>
2.56831

> <r_i_glide_emodel>
-61.1904

> <r_glide_XP_HBond>
-0.7

> <i_i_glide_confnum>
1

> <i_i_glide_posenum>
12

> <r_i_glide_eff_state_penalty>
1.8313

> <i_glide_XP_PoseRank>
1

$$$$
BACE_75.smi:1
                    3D
 Structure written by MMmdl.
 90 93  0  0  1  0            999 V2000
   13.5255   45.4259  -12.3727 C   0  0  0  0  0  0
   12.8151   44.9500  -11.2400 O   0  0  0  0  0  0
   13.6451   44.5481  -10.1535 C   0  0  0  0  0  0
   14.5834   43.4143  -10.4671 C   0  0  0  0  0  0
   14.0975   42.1031  -10.4351 C   0  0  0  0  0  0
   14.9777   41.0333  -10.6395 C   0  0  0  0  0  0
   16.3460   41.2630  -10.8904 C   0  0  0  0  0  0
   16.8409   42.5832  -10.9169 C   0  0  0  0  0  0
   15.9486   43.6595  -10.7225 C   0  0  0  0  0  0
   18.2949   42.8613  -11.1375 C   0  0  0  0  0  0
   18.6520   43.8227  -11.8199 O   0  0  0  0  0  0
   19.1405   42.0638  -10.4634 N   0  0  0  0  0  0
   20.5756   42.3012  -10.3018 C   0  0  1  0  0  0
   21.1287   41.7472   -8.9536 C   0  0  0  0  0  0
   20.4781   40.4889   -8.3285 C   0  0  2  0  0  0
   20.8958   40.3772   -6.8485 C   0  0  0  0  0  0
   20.8386   39.2110   -9.1148 C   0  0  0  0  0  0
   20.0996   37.9543   -8.6682 C   0  0  0  0  0  0
   18.7322   38.1631   -8.9391 O   0  0  0  0  0  0
   17.9022   37.0582   -8.6272 C   0  0  0  0  0  0
   16.4597   37.4201   -8.8843 C   0  0  0  0  0  0
   16.0258   38.6842   -8.9905 C   0  0  0  0  0  0
   14.6061   39.0933   -9.2836 C   0  0  0  0  0  0
   14.4599   39.7500  -10.5774 N   0  0  0  0  0  0
   21.3695   42.0159  -11.6106 C   0  0  2  0  0  0
   21.6600   40.6561  -11.8458 O   0  0  0  0  0  0
   22.6472   42.8701  -11.7536 C   0  0  0  0  0  0
   23.7051   42.4380  -10.8399 N   0  0  0  0  0  0
   24.6017   43.5010  -10.4066 C   0  0  0  0  0  0
   24.9824   43.5032   -8.9443 C   0  0  0  0  0  0
   24.0527   44.5663   -9.4833 C   0  0  0  0  0  0
   25.6431   43.8381  -11.4311 C   0  0  0  0  0  0
   26.8367   43.0901  -11.4958 C   0  0  0  0  0  0
   27.8751   43.4353  -12.3963 C   0  0  0  0  0  0
   27.6782   44.5521  -13.2403 C   0  0  0  0  0  0
   26.4739   45.2788  -13.2136 C   0  0  0  0  0  0
   25.4580   44.9219  -12.3108 C   0  0  0  0  0  0
   29.2127   42.6705  -12.4324 C   0  0  0  0  0  0
   29.1466   41.3464  -11.6474 C   0  0  0  0  0  0
   29.6181   42.3165  -13.8818 C   0  0  0  0  0  0
   30.3074   43.5501  -11.8007 C   0  0  0  0  0  0
   20.6537   43.3840  -10.1786 H   0  0  0  0  0  0
   19.3943   40.6095   -8.3305 H   0  0  0  0  0  0
   20.7284   42.2957  -12.4399 H   0  0  0  0  0  0
   12.8202   45.7972  -13.1174 H   0  0  0  0  0  0
   14.1079   44.6320  -12.8409 H   0  0  0  0  0  0
   14.1958   46.2434  -12.1047 H   0  0  0  0  0  0
   13.0021   44.2540   -9.3226 H   0  0  0  0  0  0
   14.2719   45.3499   -9.7795 H   0  0  0  0  0  0
   13.0542   41.9145  -10.2165 H   0  0  0  0  0  0
   17.0074   40.4247  -11.0514 H   0  0  0  0  0  0
   16.3206   44.6751  -10.7297 H   0  0  0  0  0  0
   18.7483   41.2970   -9.9348 H   0  0  0  0  0  0
   22.2026   41.5881   -9.0087 H   0  0  0  0  0  0
   21.0124   42.5551   -8.2293 H   0  0  0  0  0  0
   21.9669   40.2011   -6.7486 H   0  0  0  0  0  0
   20.3736   39.5707   -6.3350 H   0  0  0  0  0  0
   20.6579   41.2915   -6.3034 H   0  0  0  0  0  0
   20.5745   39.3419  -10.1575 H   0  0  0  0  0  0
   21.9152   39.0403   -9.0834 H   0  0  0  0  0  0
   20.4597   37.1006   -9.2400 H   0  0  0  0  0  0
   20.2614   37.7501   -7.6114 H   0  0  0  0  0  0
   18.1696   36.2064   -9.2538 H   0  0  0  0  0  0
   18.0155   36.7665   -7.5837 H   0  0  0  0  0  0
   15.7669   36.5996   -8.9839 H   0  0  0  0  0  0
   16.7242   39.4967   -8.8610 H   0  0  0  0  0  0
   13.9607   38.2143   -9.2558 H   0  0  0  0  0  0
   14.2573   39.7553   -8.4892 H   0  0  0  0  0  0
   13.4654   39.7499  -10.7999 H   0  0  0  0  0  0
   22.4031   40.6027  -12.4343 H   0  0  0  0  0  0
   22.3881   43.9139  -11.5748 H   0  0  0  0  0  0
   23.0164   42.8294  -12.7776 H   0  0  0  0  0  0
   24.2439   41.7276  -11.3297 H   0  0  0  0  0  0
   24.5398   42.7482   -8.2958 H   0  0  0  0  0  0
   25.9913   43.8127   -8.6779 H   0  0  0  0  0  0
   24.4461   45.5764   -9.5721 H   0  0  0  0  0  0
   23.0113   44.5005   -9.1758 H   0  0  0  0  0  0
   26.9392   42.2660  -10.8074 H   0  0  0  0  0  0
   28.4547   44.8650  -13.9220 H   0  0  0  0  0  0
   26.3374   46.1252  -13.8688 H   0  0  0  0  0  0
   24.5446   45.4964  -12.2756 H   0  0  0  0  0  0
   28.9611   41.5073  -10.5858 H   0  0  0  0  0  0
   30.0800   40.7936  -11.7127 H   0  0  0  0  0  0
   28.3630   40.6963  -12.0386 H   0  0  0  0  0  0
   29.7856   43.1979  -14.4982 H   0  0  0  0  0  0
   28.8601   41.7086  -14.3727 H   0  0  0  0  0  0
   30.5466   41.7441  -13.9026 H   0  0  0  0  0  0
   30.4364   44.4851  -12.3454 H   0  0  0  0  0  0
   31.2721   43.0420  -11.7924 H   0  0  0  0  0  0
   30.0617   43.8036  -10.7697 H   0  0  0  0  0  0
  1  2  1  0  0  0
  1 45  1  0  0  0
  1 46  1  0  0  0
  1 47  1  0  0  0
  2  3  1  0  0  0
  3  4  1  0  0  0
  3 48  1  0  0  0
  3 49  1  0  0  0
  4  9  1  0  0  0
  4  5  2  0  0  0
  5  6  1  0  0  0
  5 50  1  0  0  0
  6 24  1  0  0  0
  6  7  2  0  0  0
  7  8  1  0  0  0
  7 51  1  0  0  0
  8  9  2  0  0  0
  8 10  1  0  0  0
  9 52  1  0  0  0
 10 11  2  0  0  0
 10 12  1  0  0  0
 12 13  1  0  0  0
 12 53  1  0  0  0
 13 42  1  0  0  0
 13 14  1  0  0  0
 13 25  1  0  0  0
 14 15  1  0  0  0
 14 54  1  0  0  0
 14 55  1  0  0  0
 15 43  1  0  0  0
 15 16  1  0  0  0
 15 17  1  0  0  0
 16 56  1  0  0  0
 16 57  1  0  0  0
 16 58  1  0  0  0
 17 18  1  0  0  0
 17 59  1  0  0  0
 17 60  1  0  0  0
 18 19  1  0  0  0
 18 61  1  0  0  0
 18 62  1  0  0  0
 19 20  1  0  0  0
 20 21  1  0  0  0
 20 63  1  0  0  0
 20 64  1  0  0  0
 21 22  2  0  0  0
 21 65  1  0  0  0
 22 23  1  0  0  0
 22 66  1  0  0  0
 23 24  1  0  0  0
 23 67  1  0  0  0
 23 68  1  0  0  0
 24 69  1  0  0  0
 25 44  1  0  0  0
 25 26  1  0  0  0
 25 27  1  0  0  0
 26 70  1  0  0  0
 27 28  1  0  0  0
 27 71  1  0  0  0
 27 72  1  0  0  0
 28 29  1  0  0  0
 28 73  1  0  0  0
 29 31  1  0  0  0
 29 30  1  0  0  0
 29 32  1  0  0  0
 30 31  1  0  0  0
 30 74  1  0  0  0
 30 75  1  0  0  0
 31 76  1  0  0  0
 31 77  1  0  0  0
 32 37  1  0  0  0
 32 33  2  0  0  0
 33 34  1  0  0  0
 33 78  1  0  0  0
 34 35  2  0  0  0
 34 38  1  0  0  0
 35 36  1  0  0  0
 35 79  1  0  0  0
 36 37  2  0  0  0
 36 80  1  0  0  0
 37 81  1  0  0  0
 38 39  1  0  0  0
 38 40  1  0  0  0
 38 41  1  0  0  0
 39 82  1  0  0  0
 39 83  1  0  0  0
 39 84  1  0  0  0
 40 85  1  0  0  0
 40 86  1  0  0  0
 40 87  1  0  0  0
 41 88  1  0  0  0
 41 89  1  0  0  0
 41 90  1  0  0  0
M  END
> <s_m_source_file>
BACE_75.smi

> <i_m_source_file_index>
1

> <i_lp_mmshare_version>
42013

> <i_f3d_flags>
0

> <s_epik_input>
W2NIXTFbY0hdW2NIXWMoQyhbQ0gzXSkoW0NIM10pW0NIM10pW2NIXWMxQzIoW0NIMl1bQ0gyXTIpW05IXVtDSDJdW0NAQEhdKFtPSF0pW0NAQEhdKFtOSF1DKD1PKWMoW2NIXTMpW2NIXWMoW2NIXWMzNClbQ0gyXU9bQ0gzXSlbQ0gyXVtDQEhdKFtDSDNdKVtDSDJdW0NIMl1PW0NIMl0vW0NIXT1bQ0hdL1tDSDJdW05IXTQ=

> <s_epik_cmdline>
J2VwaWtfcHl0aG9uJywgJy1waCcsICc3LjAnLCAnLXRuJywgJzgnLCAnLW1hJywgJzIwMCcsICctaW1hZScsICc8aW5maWxlLm1hZT4nLCAnLW9tYWUnLCAnPG91dGZpbGUubWFlPic=

> <r_epik_Ionization_Penalty>
  0.3595

> <r_epik_Ionization_Penalty_Charging>
  0.0000

> <r_epik_Ionization_Penalty_Neutral>
  0.3595

> <r_epik_State_Penalty>
  0.3562

> <r_epik_Charging_Adjusted_Penalty>
0.356171

> <i_epik_Tot_Q>
0

> <i_epik_Tot_abs_Q>
0

> <s_lp_Force_Field>
OPLS_2005

> <r_lp_Energy>
45.5342

> <b_lp_Chiralities_Consistent>
1

> <s_lp_Variant>
BACE_75.smi:1-1

> <chiral flag>
1

> <version>
0

> <s_i_glide_gridfile>
second_dock_grid_2

> <i_i_glide_lignum>
150

> <i_i_glide_rotatable_bonds>
9

> <r_i_docking_score>
-3.71508

> <r_i_glide_ligand_efficiency>
-0.0906117

> <r_i_glide_ligand_efficiency_sa>
-0.312449

> <r_i_glide_ligand_efficiency_ln>
-0.788166

> <r_glide_XP_GScore>
-4.07128

> <r_i_glide_gscore>
-4.07128

> <r_i_glide_evdw>
-39.984

> <r_i_glide_ecoul>
-11.979

> <r_i_glide_energy>
-51.963

> <r_i_glide_einternal>
10.2809

> <r_i_glide_emodel>
-65.9667

> <r_glide_XP_HBond>
-1.94699

> <i_i_glide_confnum>
1

> <i_i_glide_posenum>
1

> <r_i_glide_eff_state_penalty>
0.3562

> <i_glide_XP_PoseRank>
1

$$$$
BACE_75.smi:1
                    3D
 Structure written by MMmdl.
 91 94  0  0  1  0            999 V2000
   34.4161   44.5806  -11.0469 C   0  0  0  0  0  0
   34.5968   43.3443  -11.7176 O   0  0  0  0  0  0
   34.2041   43.3911  -13.0807 C   0  0  0  0  0  0
   32.6930   43.4132  -13.2279 C   0  0  0  0  0  0
   32.0957   43.9852  -14.3714 C   0  0  0  0  0  0
   30.6921   44.0155  -14.5000 C   0  0  0  0  0  0
   29.8896   43.4445  -13.4884 C   0  0  0  0  0  0
   30.4698   42.8989  -12.3178 C   0  0  0  0  0  0
   31.8795   42.8812  -12.2039 C   0  0  0  0  0  0
   29.6105   42.3266  -11.2185 C   0  0  0  0  0  0
   30.0516   41.4680  -10.4529 O   0  0  0  0  0  0
   28.3773   42.8601  -11.1161 N   0  0  0  0  0  0
   27.3400   42.5646  -10.1208 C   0  0  1  0  0  0
   27.0153   43.8519   -9.2903 C   0  0  0  0  0  0
   26.8428   45.2255  -10.0129 C   0  0  2  0  0  0
   27.1095   46.3711   -9.0132 C   0  0  0  0  0  0
   25.4581   45.4099  -10.6909 C   0  0  0  0  0  0
   25.3898   46.5284  -11.7509 C   0  0  0  0  0  0
   26.3012   46.2308  -12.7974 O   0  0  0  0  0  0
   26.2479   47.1218  -13.9028 C   0  0  0  0  0  0
   27.4021   46.8815  -14.8608 C   0  0  0  0  0  0
   28.5402   46.2409  -14.5401 C   0  0  0  0  0  0
   29.7115   46.0016  -15.4775 C   0  0  0  0  0  0
   30.1048   44.6017  -15.6308 N   0  0  0  0  0  0
   26.1288   41.8401  -10.7840 C   0  0  2  0  0  0
   25.6118   42.6483  -11.8258 O   0  0  0  0  0  0
   24.9555   41.5539   -9.8172 C   0  0  0  0  0  0
   23.9347   40.6846  -10.4476 N   0  3  0  0  0  0
   22.5416   40.9297  -10.0439 C   0  0  0  0  0  0
   21.8136   42.0761  -10.7043 C   0  0  0  0  0  0
   21.4598   40.6519  -11.0602 C   0  0  0  0  0  0
   22.2264   40.6428   -8.5828 C   0  0  0  0  0  0
   22.1937   41.6839   -7.6277 C   0  0  0  0  0  0
   21.9064   41.4377   -6.2605 C   0  0  0  0  0  0
   21.6481   40.0986   -5.8698 C   0  0  0  0  0  0
   21.6773   39.0536   -6.8122 C   0  0  0  0  0  0
   21.9650   39.3233   -8.1614 C   0  0  0  0  0  0
   21.8842   42.6150   -5.2567 C   0  0  0  0  0  0
   23.2932   43.2442   -5.1552 C   0  0  0  0  0  0
   20.9039   43.7448   -5.6599 C   0  0  0  0  0  0
   21.4502   42.1068   -3.8621 C   0  0  0  0  0  0
   27.7410   41.8547   -9.3949 H   0  0  0  0  0  0
   27.6167   45.3123  -10.7736 H   0  0  0  0  0  0
   26.4505   40.8900  -11.2058 H   0  0  0  0  0  0
   34.7328   44.4814  -10.0087 H   0  0  0  0  0  0
   33.3685   44.8849  -11.0487 H   0  0  0  0  0  0
   35.0121   45.3720  -11.5034 H   0  0  0  0  0  0
   34.6165   42.5329  -13.6139 H   0  0  0  0  0  0
   34.6085   44.2865  -13.5557 H   0  0  0  0  0  0
   32.7127   44.4090  -15.1510 H   0  0  0  0  0  0
   28.8171   43.4439  -13.6205 H   0  0  0  0  0  0
   32.3505   42.4640  -11.3251 H   0  0  0  0  0  0
   28.1351   43.5671  -11.7955 H   0  0  0  0  0  0
   27.8622   43.9607   -8.6109 H   0  0  0  0  0  0
   26.1708   43.6848   -8.6217 H   0  0  0  0  0  0
   26.3844   46.3691   -8.1985 H   0  0  0  0  0  0
   27.0662   47.3489   -9.4917 H   0  0  0  0  0  0
   28.1023   46.2885   -8.5694 H   0  0  0  0  0  0
   25.1527   44.4938  -11.1856 H   0  0  0  0  0  0
   24.6986   45.5887   -9.9287 H   0  0  0  0  0  0
   25.6117   47.5035  -11.3170 H   0  0  0  0  0  0
   24.3763   46.5813  -12.1516 H   0  0  0  0  0  0
   26.2853   48.1611  -13.5731 H   0  0  0  0  0  0
   25.3086   46.9773  -14.4381 H   0  0  0  0  0  0
   27.2768   47.2763  -15.8586 H   0  0  0  0  0  0
   28.6736   45.8907  -13.5286 H   0  0  0  0  0  0
   30.5656   46.5771  -15.1188 H   0  0  0  0  0  0
   29.4675   46.3943  -16.4650 H   0  0  0  0  0  0
   30.6806   44.4975  -16.4540 H   0  0  0  0  0  0
   25.1213   42.0979  -12.4169 H   0  0  0  0  0  0
   24.5031   42.4899   -9.4872 H   0  0  0  0  0  0
   25.3129   41.0411   -8.9248 H   0  0  0  0  0  0
   24.1587   39.7275  -10.2154 H   0  0  0  0  0  0
   21.1011   42.6370  -10.0994 H   0  0  0  0  0  0
   22.3591   42.6609  -11.4448 H   0  0  0  0  0  0
   21.7689   40.2845  -12.0388 H   0  0  0  0  0  0
   20.5109   40.2606  -10.6933 H   0  0  0  0  0  0
   22.3937   42.6907   -7.9628 H   0  0  0  0  0  0
   21.4221   39.8329   -4.8493 H   0  0  0  0  0  0
   21.4779   38.0397   -6.4975 H   0  0  0  0  0  0
   21.9836   38.5108   -8.8732 H   0  0  0  0  0  0
   24.0393   42.5407   -4.7858 H   0  0  0  0  0  0
   23.3029   44.0956   -4.4733 H   0  0  0  0  0  0
   23.6379   43.6041   -6.1257 H   0  0  0  0  0  0
   19.8735   43.3912   -5.7169 H   0  0  0  0  0  0
   21.1643   44.1882   -6.6221 H   0  0  0  0  0  0
   20.9128   44.5573   -4.9320 H   0  0  0  0  0  0
   20.4628   41.6445   -3.8978 H   0  0  0  0  0  0
   21.3994   42.9209   -3.1378 H   0  0  0  0  0  0
   22.1401   41.3686   -3.4530 H   0  0  0  0  0  0
   23.9995   40.7919  -11.4497 H   0  0  0  0  0  0
  1  2  1  0  0  0
  1 45  1  0  0  0
  1 46  1  0  0  0
  1 47  1  0  0  0
  2  3  1  0  0  0
  3  4  1  0  0  0
  3 48  1  0  0  0
  3 49  1  0  0  0
  4  9  1  0  0  0
  4  5  2  0  0  0
  5  6  1  0  0  0
  5 50  1  0  0  0
  6 24  1  0  0  0
  6  7  2  0  0  0
  7  8  1  0  0  0
  7 51  1  0  0  0
  8  9  2  0  0  0
  8 10  1  0  0  0
  9 52  1  0  0  0
 10 11  2  0  0  0
 10 12  1  0  0  0
 12 13  1  0  0  0
 12 53  1  0  0  0
 13 42  1  0  0  0
 13 14  1  0  0  0
 13 25  1  0  0  0
 14 15  1  0  0  0
 14 54  1  0  0  0
 14 55  1  0  0  0
 15 43  1  0  0  0
 15 16  1  0  0  0
 15 17  1  0  0  0
 16 56  1  0  0  0
 16 57  1  0  0  0
 16 58  1  0  0  0
 17 18  1  0  0  0
 17 59  1  0  0  0
 17 60  1  0  0  0
 18 19  1  0  0  0
 18 61  1  0  0  0
 18 62  1  0  0  0
 19 20  1  0  0  0
 20 21  1  0  0  0
 20 63  1  0  0  0
 20 64  1  0  0  0
 21 22  2  0  0  0
 21 65  1  0  0  0
 22 23  1  0  0  0
 22 66  1  0  0  0
 23 24  1  0  0  0
 23 67  1  0  0  0
 23 68  1  0  0  0
 24 69  1  0  0  0
 25 44  1  0  0  0
 25 26  1  0  0  0
 25 27  1  0  0  0
 26 70  1  0  0  0
 27 28  1  0  0  0
 27 71  1  0  0  0
 27 72  1  0  0  0
 28 29  1  0  0  0
 28 73  1  0  0  0
 28 91  1  0  0  0
 29 31  1  0  0  0
 29 30  1  0  0  0
 29 32  1  0  0  0
 30 31  1  0  0  0
 30 74  1  0  0  0
 30 75  1  0  0  0
 31 76  1  0  0  0
 31 77  1  0  0  0
 32 37  1  0  0  0
 32 33  2  0  0  0
 33 34  1  0  0  0
 33 78  1  0  0  0
 34 35  2  0  0  0
 34 38  1  0  0  0
 35 36  1  0  0  0
 35 79  1  0  0  0
 36 37  2  0  0  0
 36 80  1  0  0  0
 37 81  1  0  0  0
 38 39  1  0  0  0
 38 40  1  0  0  0
 38 41  1  0  0  0
 39 82  1  0  0  0
 39 83  1  0  0  0
 39 84  1  0  0  0
 40 85  1  0  0  0
 40 86  1  0  0  0
 40 87  1  0  0  0
 41 88  1  0  0  0
 41 89  1  0  0  0
 41 90  1  0  0  0
M  CHG  1  28   1
M  END
> <s_m_source_file>
BACE_75.smi

> <i_m_source_file_index>
1

> <i_lp_mmshare_version>
42013

> <i_f3d_flags>
0

> <s_epik_input>
W2NIXTFbY0hdW2NIXWMoQyhbQ0gzXSkoW0NIM10pW0NIM10pW2NIXWMxQzIoW0NIMl1bQ0gyXTIpW05IXVtDSDJdW0NAQEhdKFtPSF0pW0NAQEhdKFtOSF1DKD1PKWMoW2NIXTMpW2NIXWMoW2NIXWMzNClbQ0gyXU9bQ0gzXSlbQ0gyXVtDQEhdKFtDSDNdKVtDSDJdW0NIMl1PW0NIMl0vW0NIXT1bQ0hdL1tDSDJdW05IXTQ=

> <s_epik_cmdline>
J2VwaWtfcHl0aG9uJywgJy1waCcsICc3LjAnLCAnLXRuJywgJzgnLCAnLW1hJywgJzIwMCcsICctaW1hZScsICc8aW5maWxlLm1hZT4nLCAnLW9tYWUnLCAnPG91dGZpbGUubWFlPic=

> <r_epik_Ionization_Penalty>
  0.4669

> <r_epik_Ionization_Penalty_Charging>
  0.4668

> <r_epik_Ionization_Penalty_Neutral>
  0.0001

> <r_epik_State_Penalty>
  0.4707

> <r_epik_Charging_Adjusted_Penalty>
0.937497

> <i_epik_Tot_Q>
1

> <i_epik_Tot_abs_Q>
1

> <s_lp_Force_Field>
OPLS_2005

> <r_lp_Energy>
37.8696

> <b_lp_Chiralities_Consistent>
1

> <s_lp_Variant>
BACE_75.smi:1-2

> <chiral flag>
1

> <version>
0

> <s_i_glide_gridfile>
second_dock_grid_2

> <i_i_glide_lignum>
151

> <i_i_glide_rotatable_bonds>
9

> <r_i_docking_score>
-6.37677

> <r_i_glide_ligand_efficiency>
-0.155531

> <r_i_glide_ligand_efficiency_sa>
-0.536305

> <r_i_glide_ligand_efficiency_ln>
-1.35285

> <r_glide_XP_GScore>
-6.84747

> <r_i_glide_gscore>
-6.84747

> <r_i_glide_evdw>
-30.3144

> <r_i_glide_ecoul>
-17.1597

> <r_i_glide_energy>
-47.4741

> <r_i_glide_einternal>
7.4048

> <r_i_glide_emodel>
-68.6334

> <r_glide_XP_HBond>
-0.212465

> <i_i_glide_confnum>
1

> <i_i_glide_posenum>
4

> <r_i_glide_eff_state_penalty>
0.4707

> <i_glide_XP_PoseRank>
1

$$$$
BACE_76.smi:1
                    3D
 Structure written by MMmdl.
 80 82  0  0  1  0            999 V2000
   20.3738   44.2801   -4.8397 C   0  0  0  0  0  0
   19.8972   45.5485   -5.2540 O   0  0  0  0  0  0
   20.2558   45.8521   -6.5915 C   0  0  0  0  0  0
   19.7248   44.8122   -7.5569 C   0  0  0  0  0  0
   18.4902   44.1823   -7.3025 C   0  0  0  0  0  0
   17.9717   43.2247   -8.1982 C   0  0  0  0  0  0
   18.7175   42.8868   -9.3523 C   0  0  0  0  0  0
   19.9681   43.4963   -9.6019 C   0  0  0  0  0  0
   20.4572   44.4737   -8.7117 C   0  0  0  0  0  0
   20.7620   43.1485  -10.8266 C   0  0  0  0  0  0
   21.0450   44.0251  -11.6400 O   0  0  0  0  0  0
   21.1595   41.8747  -11.0021 N   0  0  0  0  0  0
   21.1085   40.7577  -10.0516 C   0  0  1  0  0  0
   20.0943   39.7084  -10.5715 C   0  0  0  0  0  0
   19.2447   39.0182   -9.4779 C   0  0  2  0  0  0
   20.0806   38.1539   -8.5176 C   0  0  0  0  0  0
   18.1004   38.2019  -10.1233 C   0  0  0  0  0  0
   16.9511   37.8416   -9.1678 C   0  0  0  0  0  0
   16.4421   39.0460   -8.6255 O   0  0  0  0  0  0
   15.1772   38.9250   -8.0062 C   0  0  0  0  0  0
   14.7955   40.2708   -7.3687 C   0  0  0  0  0  0
   14.6162   41.4336   -8.3696 C   0  0  0  0  0  0
   15.9233   42.0248   -8.9333 C   0  0  0  0  0  0
   16.7320   42.6445   -7.8925 N   0  0  0  0  0  0
   22.5307   40.1608   -9.8533 C   0  0  2  0  0  0
   22.4752   39.2041   -8.8133 O   0  0  0  0  0  0
   23.6472   41.1805   -9.5453 C   0  0  0  0  0  0
   24.8289   40.9538  -10.3999 N   0  3  0  0  0  0
   26.0269   41.7034   -9.9778 C   0  0  0  0  0  0
   26.5562   42.5490  -11.1197 C   0  0  0  0  0  0
   27.8209   42.2670  -11.6781 C   0  0  0  0  0  0
   28.3256   43.0454  -12.7426 C   0  0  0  0  0  0
   27.5563   44.1204  -13.2379 C   0  0  0  0  0  0
   26.2950   44.4074  -12.6816 C   0  0  0  0  0  0
   25.7941   43.6241  -11.6247 C   0  0  0  0  0  0
   24.5833   43.9128  -11.0905 F   0  0  0  0  0  0
   29.6950   42.7397  -13.3312 C   0  0  0  0  0  0
   30.6565   43.3871  -12.6725 F   0  0  0  0  0  0
   29.9230   41.4299  -13.2470 F   0  0  0  0  0  0
   29.7486   43.1040  -14.6129 F   0  0  0  0  0  0
   20.7530   41.1021   -9.0802 H   0  0  0  0  0  0
   18.7911   39.8158   -8.8886 H   0  0  0  0  0  0
   22.8129   39.6133  -10.7515 H   0  0  0  0  0  0
   20.0629   44.0880   -3.8130 H   0  0  0  0  0  0
   21.4631   44.2381   -4.8752 H   0  0  0  0  0  0
   19.9719   43.4835   -5.4673 H   0  0  0  0  0  0
   19.8543   46.8266   -6.8736 H   0  0  0  0  0  0
   21.3417   45.9153   -6.6793 H   0  0  0  0  0  0
   17.9333   44.4465   -6.4148 H   0  0  0  0  0  0
   18.3470   42.1557  -10.0543 H   0  0  0  0  0  0
   21.4051   44.9545   -8.9073 H   0  0  0  0  0  0
   21.6480   41.6846  -11.8649 H   0  0  0  0  0  0
   19.3992   40.2091  -11.2475 H   0  0  0  0  0  0
   20.5974   38.9618  -11.1874 H   0  0  0  0  0  0
   20.6265   37.3773   -9.0537 H   0  0  0  0  0  0
   19.4543   37.6648   -7.7724 H   0  0  0  0  0  0
   20.8004   38.7568   -7.9651 H   0  0  0  0  0  0
   17.6662   38.7751  -10.9434 H   0  0  0  0  0  0
   18.5015   37.2942  -10.5758 H   0  0  0  0  0  0
   16.1735   37.3190   -9.7271 H   0  0  0  0  0  0
   17.2776   37.1765   -8.3685 H   0  0  0  0  0  0
   14.4267   38.6242   -8.7385 H   0  0  0  0  0  0
   15.2162   38.1512   -7.2381 H   0  0  0  0  0  0
   13.8523   40.1313   -6.8396 H   0  0  0  0  0  0
   15.5241   40.5374   -6.6027 H   0  0  0  0  0  0
   13.9876   41.1000   -9.1959 H   0  0  0  0  0  0
   14.0590   42.2339   -7.8812 H   0  0  0  0  0  0
   16.4918   41.2584   -9.4550 H   0  0  0  0  0  0
   15.6820   42.7870   -9.6750 H   0  0  0  0  0  0
   16.2474   42.9771   -7.0711 H   0  0  0  0  0  0
   23.2780   38.7042   -8.8186 H   0  0  0  0  0  0
   23.2841   42.1933   -9.7251 H   0  0  0  0  0  0
   23.9469   41.1258   -8.4974 H   0  0  0  0  0  0
   25.0456   39.9670  -10.3821 H   0  0  0  0  0  0
   25.7803   42.3426   -9.1289 H   0  0  0  0  0  0
   26.7992   41.0105   -9.6414 H   0  0  0  0  0  0
   28.4084   41.4496  -11.2862 H   0  0  0  0  0  0
   27.9309   44.7333  -14.0445 H   0  0  0  0  0  0
   25.7127   45.2323  -13.0649 H   0  0  0  0  0  0
   24.5991   41.2166  -11.3477 H   0  0  0  0  0  0
  1  2  1  0  0  0
  1 44  1  0  0  0
  1 45  1  0  0  0
  1 46  1  0  0  0
  2  3  1  0  0  0
  3  4  1  0  0  0
  3 47  1  0  0  0
  3 48  1  0  0  0
  4  9  1  0  0  0
  4  5  2  0  0  0
  5  6  1  0  0  0
  5 49  1  0  0  0
  6 24  1  0  0  0
  6  7  2  0  0  0
  7  8  1  0  0  0
  7 50  1  0  0  0
  8  9  2  0  0  0
  8 10  1  0  0  0
  9 51  1  0  0  0
 10 11  2  0  0  0
 10 12  1  0  0  0
 12 13  1  0  0  0
 12 52  1  0  0  0
 13 41  1  0  0  0
 13 14  1  0  0  0
 13 25  1  0  0  0
 14 15  1  0  0  0
 14 53  1  0  0  0
 14 54  1  0  0  0
 15 42  1  0  0  0
 15 16  1  0  0  0
 15 17  1  0  0  0
 16 55  1  0  0  0
 16 56  1  0  0  0
 16 57  1  0  0  0
 17 18  1  0  0  0
 17 58  1  0  0  0
 17 59  1  0  0  0
 18 19  1  0  0  0
 18 60  1  0  0  0
 18 61  1  0  0  0
 19 20  1  0  0  0
 20 21  1  0  0  0
 20 62  1  0  0  0
 20 63  1  0  0  0
 21 22  1  0  0  0
 21 64  1  0  0  0
 21 65  1  0  0  0
 22 23  1  0  0  0
 22 66  1  0  0  0
 22 67  1  0  0  0
 23 24  1  0  0  0
 23 68  1  0  0  0
 23 69  1  0  0  0
 24 70  1  0  0  0
 25 43  1  0  0  0
 25 26  1  0  0  0
 25 27  1  0  0  0
 26 71  1  0  0  0
 27 28  1  0  0  0
 27 72  1  0  0  0
 27 73  1  0  0  0
 28 29  1  0  0  0
 28 74  1  0  0  0
 28 80  1  0  0  0
 29 30  1  0  0  0
 29 75  1  0  0  0
 29 76  1  0  0  0
 30 35  1  0  0  0
 30 31  2  0  0  0
 31 32  1  0  0  0
 31 77  1  0  0  0
 32 33  2  0  0  0
 32 37  1  0  0  0
 33 34  1  0  0  0
 33 78  1  0  0  0
 34 35  2  0  0  0
 34 79  1  0  0  0
 35 36  1  0  0  0
 37 38  1  0  0  0
 37 39  1  0  0  0
 37 40  1  0  0  0
M  CHG  1  28   1
M  END
> <s_m_source_file>
BACE_76.smi

> <i_m_source_file_index>
1

> <i_lp_mmshare_version>
42013

> <i_f3d_flags>
0

> <s_epik_input>
W05IXTFbQ0gyXVtDSDJdW0NIMl1bQ0gyXU9bQ0gyXVtDSDJdW0NAQEhdKFtDSDNdKVtDSDJdW0NASF0oW05IXUMoPU8pYyhbY0hdMilbY0hdYyhbY0hdYzEyKVtDSDJdT1tDSDNdKVtDQEhdKFtPSF0pW0NIMl1bTkhdW0NIMl1jM1tjSF1jKEMoRikoRilGKVtjSF1bY0hdYzNG

> <s_epik_cmdline>
J2VwaWtfcHl0aG9uJywgJy1waCcsICc3LjAnLCAnLXRuJywgJzgnLCAnLW1hJywgJzIwMCcsICctaW1hZScsICc8aW5maWxlLm1hZT4nLCAnLW9tYWUnLCAnPG91dGZpbGUubWFlPic=

> <r_epik_Ionization_Penalty>
  0.0254

> <r_epik_Ionization_Penalty_Charging>
  0.0250

> <r_epik_Ionization_Penalty_Neutral>
  0.0004

> <r_epik_State_Penalty>
  0.0203

> <r_epik_Charging_Adjusted_Penalty>
0.0452641

> <i_epik_Tot_Q>
1

> <i_epik_Tot_abs_Q>
1

> <s_lp_Force_Field>
OPLS_2005

> <r_lp_Energy>
40.0977

> <b_lp_Chiralities_Consistent>
1

> <s_lp_Variant>
BACE_76.smi:1-1

> <chiral flag>
1

> <version>
0

> <s_i_glide_gridfile>
second_dock_grid_2

> <i_i_glide_lignum>
152

> <i_i_glide_rotatable_bonds>
9

> <r_i_docking_score>
-4.62765

> <r_i_glide_ligand_efficiency>
-0.115691

> <r_i_glide_ligand_efficiency_sa>
-0.395659

> <r_i_glide_ligand_efficiency_ln>
-0.986942

> <r_glide_XP_GScore>
-4.64795

> <r_i_glide_gscore>
-4.64795

> <r_i_glide_evdw>
-33.887

> <r_i_glide_ecoul>
-14.1857

> <r_i_glide_energy>
-48.0727

> <r_i_glide_einternal>
7.84782

> <r_i_glide_emodel>
-71.7843

> <r_glide_XP_HBond>
-1.70879

> <i_i_glide_confnum>
1

> <i_i_glide_posenum>
2

> <r_i_glide_eff_state_penalty>
0.0203

> <i_glide_XP_PoseRank>
1

$$$$
BACE_76.smi:1
                    3D
 Structure written by MMmdl.
 79 81  0  0  1  0            999 V2000
   18.7447   47.4913   -6.5174 C   0  0  0  0  0  0
   19.4085   46.5636   -5.6774 O   0  0  0  0  0  0
   20.4431   45.8648   -6.3484 C   0  0  0  0  0  0
   19.8796   44.8772   -7.3495 C   0  0  0  0  0  0
   18.6567   44.2294   -7.0852 C   0  0  0  0  0  0
   18.1126   43.3132   -8.0083 C   0  0  0  0  0  0
   18.8217   43.0329   -9.2003 C   0  0  0  0  0  0
   20.0605   43.6612   -9.4613 C   0  0  0  0  0  0
   20.5746   44.5986   -8.5426 C   0  0  0  0  0  0
   20.8185   43.3726  -10.7234 C   0  0  0  0  0  0
   21.0539   44.2827  -11.5148 O   0  0  0  0  0  0
   21.2381   42.1146  -10.9531 N   0  0  0  0  0  0
   21.2267   40.9629  -10.0430 C   0  0  1  0  0  0
   20.1871   39.9333  -10.5524 C   0  0  0  0  0  0
   19.3848   39.2037   -9.4487 C   0  0  2  0  0  0
   20.2650   38.3289   -8.5390 C   0  0  0  0  0  0
   18.2346   38.3838  -10.0783 C   0  0  0  0  0  0
   17.1189   37.9857   -9.0987 C   0  0  0  0  0  0
   16.5976   39.1705   -8.5259 O   0  0  0  0  0  0
   15.3484   39.0132   -7.8836 C   0  0  0  0  0  0
   14.9645   40.3324   -7.1943 C   0  0  0  0  0  0
   14.7540   41.5272   -8.1505 C   0  0  0  0  0  0
   16.0429   42.1422   -8.7308 C   0  0  0  0  0  0
   16.8848   42.7149   -7.6897 N   0  0  0  0  0  0
   22.6557   40.3611   -9.9400 C   0  0  2  0  0  0
   22.6773   39.4787   -8.8355 O   0  0  0  0  0  0
   23.7919   41.3951   -9.7879 C   0  0  0  0  0  0
   23.7777   42.3665  -10.8775 N   0  0  0  0  0  0
   24.6889   43.4850  -10.6620 C   0  0  0  0  0  0
   26.0445   43.2465  -11.2984 C   0  0  0  0  0  0
   26.5907   44.2089  -12.1736 C   0  0  0  0  0  0
   27.8507   43.9998  -12.7752 C   0  0  0  0  0  0
   28.5698   42.8206  -12.4813 C   0  0  0  0  0  0
   28.0292   41.8581  -11.6073 C   0  0  0  0  0  0
   26.7681   42.0677  -11.0175 C   0  0  0  0  0  0
   26.2569   41.1354  -10.1778 F   0  0  0  0  0  0
   28.4273   45.0485  -13.7151 C   0  0  0  0  0  0
   29.3465   44.5224  -14.5256 F   0  0  0  0  0  0
   27.4631   45.5787  -14.4683 F   0  0  0  0  0  0
   28.9936   46.0177  -12.9972 F   0  0  0  0  0  0
   20.9211   41.2717   -9.0428 H   0  0  0  0  0  0
   18.9392   39.9791   -8.8246 H   0  0  0  0  0  0
   22.8498   39.7550  -10.8239 H   0  0  0  0  0  0
   17.9594   47.9961   -5.9549 H   0  0  0  0  0  0
   18.2810   46.9913   -7.3686 H   0  0  0  0  0  0
   19.4341   48.2505   -6.8888 H   0  0  0  0  0  0
   21.0878   46.5696   -6.8761 H   0  0  0  0  0  0
   21.0679   45.3384   -5.6249 H   0  0  0  0  0  0
   18.1294   44.4460   -6.1671 H   0  0  0  0  0  0
   18.4316   42.3320   -9.9225 H   0  0  0  0  0  0
   21.5144   45.0923   -8.7447 H   0  0  0  0  0  0
   21.7117   41.9624  -11.8316 H   0  0  0  0  0  0
   19.4633   40.4572  -11.1790 H   0  0  0  0  0  0
   20.6614   39.2083  -11.2151 H   0  0  0  0  0  0
   20.8086   37.5786   -9.1135 H   0  0  0  0  0  0
   19.6717   37.8072   -7.7892 H   0  0  0  0  0  0
   20.9910   38.9301   -7.9927 H   0  0  0  0  0  0
   17.7695   38.9658  -10.8748 H   0  0  0  0  0  0
   18.6376   37.4920  -10.5593 H   0  0  0  0  0  0
   16.3388   37.4520   -9.6440 H   0  0  0  0  0  0
   17.4819   37.3187   -8.3167 H   0  0  0  0  0  0
   14.5859   38.7251   -8.6088 H   0  0  0  0  0  0
   15.4140   38.2164   -7.1411 H   0  0  0  0  0  0
   14.0333   40.1651   -6.6523 H   0  0  0  0  0  0
   15.7055   40.5810   -6.4339 H   0  0  0  0  0  0
   14.1019   41.2205   -8.9688 H   0  0  0  0  0  0
   14.2101   42.3085   -7.6183 H   0  0  0  0  0  0
   16.5934   41.4002   -9.3048 H   0  0  0  0  0  0
   15.7787   42.9365   -9.4297 H   0  0  0  0  0  0
   16.4271   43.0075   -6.8383 H   0  0  0  0  0  0
   23.4456   38.9328   -8.9028 H   0  0  0  0  0  0
   23.6602   41.9280   -8.8454 H   0  0  0  0  0  0
   24.7609   40.8976   -9.7294 H   0  0  0  0  0  0
   24.0227   41.8966  -11.7434 H   0  0  0  0  0  0
   24.2651   44.4018  -11.0738 H   0  0  0  0  0  0
   24.8233   43.6578   -9.5934 H   0  0  0  0  0  0
   26.0411   45.1145  -12.3844 H   0  0  0  0  0  0
   29.5404   42.6474  -12.9222 H   0  0  0  0  0  0
   28.5840   40.9578  -11.3877 H   0  0  0  0  0  0
  1  2  1  0  0  0
  1 44  1  0  0  0
  1 45  1  0  0  0
  1 46  1  0  0  0
  2  3  1  0  0  0
  3  4  1  0  0  0
  3 47  1  0  0  0
  3 48  1  0  0  0
  4  9  1  0  0  0
  4  5  2  0  0  0
  5  6  1  0  0  0
  5 49  1  0  0  0
  6 24  1  0  0  0
  6  7  2  0  0  0
  7  8  1  0  0  0
  7 50  1  0  0  0
  8  9  2  0  0  0
  8 10  1  0  0  0
  9 51  1  0  0  0
 10 11  2  0  0  0
 10 12  1  0  0  0
 12 13  1  0  0  0
 12 52  1  0  0  0
 13 41  1  0  0  0
 13 14  1  0  0  0
 13 25  1  0  0  0
 14 15  1  0  0  0
 14 53  1  0  0  0
 14 54  1  0  0  0
 15 42  1  0  0  0
 15 16  1  0  0  0
 15 17  1  0  0  0
 16 55  1  0  0  0
 16 56  1  0  0  0
 16 57  1  0  0  0
 17 18  1  0  0  0
 17 58  1  0  0  0
 17 59  1  0  0  0
 18 19  1  0  0  0
 18 60  1  0  0  0
 18 61  1  0  0  0
 19 20  1  0  0  0
 20 21  1  0  0  0
 20 62  1  0  0  0
 20 63  1  0  0  0
 21 22  1  0  0  0
 21 64  1  0  0  0
 21 65  1  0  0  0
 22 23  1  0  0  0
 22 66  1  0  0  0
 22 67  1  0  0  0
 23 24  1  0  0  0
 23 68  1  0  0  0
 23 69  1  0  0  0
 24 70  1  0  0  0
 25 43  1  0  0  0
 25 26  1  0  0  0
 25 27  1  0  0  0
 26 71  1  0  0  0
 27 28  1  0  0  0
 27 72  1  0  0  0
 27 73  1  0  0  0
 28 29  1  0  0  0
 28 74  1  0  0  0
 29 30  1  0  0  0
 29 75  1  0  0  0
 29 76  1  0  0  0
 30 35  1  0  0  0
 30 31  2  0  0  0
 31 32  1  0  0  0
 31 77  1  0  0  0
 32 33  2  0  0  0
 32 37  1  0  0  0
 33 34  1  0  0  0
 33 78  1  0  0  0
 34 35  2  0  0  0
 34 79  1  0  0  0
 35 36  1  0  0  0
 37 38  1  0  0  0
 37 39  1  0  0  0
 37 40  1  0  0  0
M  END
> <s_m_source_file>
BACE_76.smi

> <i_m_source_file_index>
1

> <i_lp_mmshare_version>
42013

> <i_f3d_flags>
0

> <s_epik_input>
W05IXTFbQ0gyXVtDSDJdW0NIMl1bQ0gyXU9bQ0gyXVtDSDJdW0NAQEhdKFtDSDNdKVtDSDJdW0NASF0oW05IXUMoPU8pYyhbY0hdMilbY0hdYyhbY0hdYzEyKVtDSDJdT1tDSDNdKVtDQEhdKFtPSF0pW0NIMl1bTkhdW0NIMl1jM1tjSF1jKEMoRikoRilGKVtjSF1bY0hdYzNG

> <s_epik_cmdline>
J2VwaWtfcHl0aG9uJywgJy1waCcsICc3LjAnLCAnLXRuJywgJzgnLCAnLW1hJywgJzIwMCcsICctaW1hZScsICc8aW5maWxlLm1hZT4nLCAnLW9tYWUnLCAnPG91dGZpbGUubWFlPic=

> <r_epik_Ionization_Penalty>
  1.8892

> <r_epik_Ionization_Penalty_Charging>
  0.0000

> <r_epik_Ionization_Penalty_Neutral>
  1.8892

> <r_epik_State_Penalty>
  2.0091

> <r_epik_Charging_Adjusted_Penalty>
2.00907

> <i_epik_Tot_Q>
0

> <i_epik_Tot_abs_Q>
0

> <s_lp_Force_Field>
OPLS_2005

> <r_lp_Energy>
48.8436

> <b_lp_Chiralities_Consistent>
1

> <s_lp_Variant>
BACE_76.smi:1-2

> <chiral flag>
1

> <version>
0

> <s_i_glide_gridfile>
second_dock_grid_2

> <i_i_glide_lignum>
153

> <i_i_glide_rotatable_bonds>
9

> <r_i_docking_score>
-1.91115

> <r_i_glide_ligand_efficiency>
-0.0477788

> <r_i_glide_ligand_efficiency_sa>
-0.163401

> <r_i_glide_ligand_efficiency_ln>
-0.407593

> <r_glide_XP_GScore>
-3.92025

> <r_i_glide_gscore>
-3.92025

> <r_i_glide_evdw>
-36.1792

> <r_i_glide_ecoul>
-9.82776

> <r_i_glide_energy>
-46.007

> <r_i_glide_einternal>
3.93608

> <r_i_glide_emodel>
-70.106

> <r_glide_XP_HBond>
-1.82938

> <i_i_glide_confnum>
1

> <i_i_glide_posenum>
5

> <r_i_glide_eff_state_penalty>
2.0091

> <i_glide_XP_PoseRank>
1

$$$$
BACE_77.smi:1
                    3D
 Structure written by MMmdl.
 87 90  0  0  1  0            999 V2000
   20.2816   42.6813   -1.7371 C   0  0  0  0  0  0
   21.6577   42.3626   -1.8981 O   0  0  0  0  0  0
   22.3411   43.0122   -2.9616 C   0  0  0  0  0  0
   21.7151   42.7471   -4.3124 C   0  0  0  0  0  0
   20.7806   43.6443   -4.8682 C   0  0  0  0  0  0
   20.1406   43.3455   -6.0855 C   0  0  0  0  0  0
   20.4634   42.1559   -6.7655 C   0  0  0  0  0  0
   21.4487   41.2875   -6.2460 C   0  0  0  0  0  0
   22.0459   41.5685   -5.0041 C   0  0  0  0  0  0
   21.8485   40.0409   -6.9649 C   0  0  0  0  0  0
   21.6615   38.9503   -6.4408 O   0  0  0  0  0  0
   22.4600   40.1478   -8.1548 N   0  0  0  0  0  0
   22.8216   41.3450   -8.9269 C   0  0  1  0  0  0
   24.2057   41.8169   -8.4398 C   0  0  0  0  0  0
   24.8682   42.9454   -9.2223 C   0  0  0  0  0  0
   25.9430   42.5031  -10.1979 C   0  0  0  0  0  0
   24.5907   44.2510   -9.0325 C   0  0  0  0  0  0
   23.5481   44.8300   -8.0896 C   0  0  0  0  0  0
   22.7258   45.8077   -8.7175 O   0  0  0  0  0  0
   22.0245   45.3490   -9.8679 C   0  0  0  0  0  0
   20.5689   45.8364   -9.8457 C   0  0  0  0  0  0
   19.6669   44.9858   -8.9369 C   0  0  0  0  0  0
   19.8459   45.2666   -7.4353 C   0  0  0  0  0  0
   19.2125   44.2366   -6.6282 N   0  0  0  0  0  0
   22.7275   40.9940  -10.4357 C   0  0  2  0  0  0
   22.7773   42.1499  -11.2404 O   0  0  0  0  0  0
   21.4501   40.2318  -10.8450 C   0  0  0  0  0  0
   20.2617   40.7228  -10.1292 N   0  0  0  0  0  0
   18.9889   40.0515  -10.3796 C   0  0  0  0  0  0
   18.9307   38.7520  -11.1494 C   0  0  0  0  0  0
   18.4783   40.0426  -11.7946 C   0  0  0  0  0  0
   18.0031   40.2669   -9.2758 C   0  0  0  0  0  0
   17.1164   41.3601   -9.3347 C   0  0  0  0  0  0
   16.0921   41.5158   -8.3788 C   0  0  0  0  0  0
   15.9730   40.5741   -7.3309 C   0  0  0  0  0  0
   16.8754   39.4958   -7.2432 C   0  0  0  0  0  0
   17.8911   39.3464   -8.2089 C   0  0  0  0  0  0
   15.1110   42.6731   -8.4915 C   0  0  0  0  0  0
   15.8293   44.0320   -8.4418 C   0  0  0  0  0  0
   14.2300   42.5424   -9.7456 C   0  0  0  0  0  0
   22.1086   42.1468   -8.7482 H   0  0  0  0  0  0
   23.5847   40.3775  -10.7103 H   0  0  0  0  0  0
   19.9072   42.2085   -0.8288 H   0  0  0  0  0  0
   19.6771   42.3120   -2.5659 H   0  0  0  0  0  0
   20.1283   43.7519   -1.6375 H   0  0  0  0  0  0
   23.3545   42.6128   -2.9755 H   0  0  0  0  0  0
   22.4594   44.0789   -2.7768 H   0  0  0  0  0  0
   20.5183   44.5500   -4.3496 H   0  0  0  0  0  0
   19.9619   41.9212   -7.6921 H   0  0  0  0  0  0
   22.7641   40.8810   -4.5834 H   0  0  0  0  0  0
   22.7553   39.2691   -8.5605 H   0  0  0  0  0  0
   24.1255   42.1432   -7.4024 H   0  0  0  0  0  0
   24.8623   40.9544   -8.4393 H   0  0  0  0  0  0
   26.3587   43.3482  -10.7490 H   0  0  0  0  0  0
   25.5438   41.7957  -10.9249 H   0  0  0  0  0  0
   26.7590   42.0143   -9.6642 H   0  0  0  0  0  0
   25.1357   44.9872   -9.6032 H   0  0  0  0  0  0
   22.9169   44.0561   -7.6549 H   0  0  0  0  0  0
   24.0632   45.3099   -7.2587 H   0  0  0  0  0  0
   22.0300   44.2621   -9.9496 H   0  0  0  0  0  0
   22.5407   45.7301  -10.7495 H   0  0  0  0  0  0
   20.5207   46.8921   -9.5772 H   0  0  0  0  0  0
   20.1804   45.7652  -10.8633 H   0  0  0  0  0  0
   19.8491   43.9319   -9.1504 H   0  0  0  0  0  0
   18.6256   45.1656   -9.2026 H   0  0  0  0  0  0
   20.9012   45.3439   -7.1798 H   0  0  0  0  0  0
   19.4073   46.2329   -7.1864 H   0  0  0  0  0  0
   18.4865   43.7507   -7.1403 H   0  0  0  0  0  0
   23.0867   41.8844  -12.0981 H   0  0  0  0  0  0
   21.6037   39.1775  -10.5991 H   0  0  0  0  0  0
   21.3108   40.2757  -11.9260 H   0  0  0  0  0  0
   20.4428   40.7226   -9.1249 H   0  0  0  0  0  0
   19.8264   38.2977  -11.5643 H   0  0  0  0  0  0
   18.1669   38.0413  -10.8400 H   0  0  0  0  0  0
   17.4086   40.1525  -11.9518 H   0  0  0  0  0  0
   19.1104   40.4531  -12.5781 H   0  0  0  0  0  0
   17.2002   42.0612  -10.1502 H   0  0  0  0  0  0
   15.1967   40.6767   -6.5838 H   0  0  0  0  0  0
   16.7796   38.7785   -6.4398 H   0  0  0  0  0  0
   18.5658   38.5066   -8.1448 H   0  0  0  0  0  0
   14.4400   42.6184   -7.6379 H   0  0  0  0  0  0
   16.4562   44.1112   -7.5490 H   0  0  0  0  0  0
   15.1139   44.8536   -8.4203 H   0  0  0  0  0  0
   16.4711   44.1740   -9.3106 H   0  0  0  0  0  0
   13.6896   41.5913   -9.7422 H   0  0  0  0  0  0
   14.8251   42.5889  -10.6595 H   0  0  0  0  0  0
   13.4876   43.3432   -9.7845 H   0  0  0  0  0  0
  1  2  1  0  0  0
  1 43  1  0  0  0
  1 44  1  0  0  0
  1 45  1  0  0  0
  2  3  1  0  0  0
  3  4  1  0  0  0
  3 46  1  0  0  0
  3 47  1  0  0  0
  4  9  1  0  0  0
  4  5  2  0  0  0
  5  6  1  0  0  0
  5 48  1  0  0  0
  6 24  1  0  0  0
  6  7  2  0  0  0
  7  8  1  0  0  0
  7 49  1  0  0  0
  8  9  2  0  0  0
  8 10  1  0  0  0
  9 50  1  0  0  0
 10 11  2  0  0  0
 10 12  1  0  0  0
 12 13  1  0  0  0
 12 51  1  0  0  0
 13 41  1  0  0  0
 13 14  1  0  0  0
 13 25  1  0  0  0
 14 15  1  0  0  0
 14 52  1  0  0  0
 14 53  1  0  0  0
 15 16  1  0  0  0
 15 17  2  0  0  0
 16 54  1  0  0  0
 16 55  1  0  0  0
 16 56  1  0  0  0
 17 18  1  0  0  0
 17 57  1  0  0  0
 18 19  1  0  0  0
 18 58  1  0  0  0
 18 59  1  0  0  0
 19 20  1  0  0  0
 20 21  1  0  0  0
 20 60  1  0  0  0
 20 61  1  0  0  0
 21 22  1  0  0  0
 21 62  1  0  0  0
 21 63  1  0  0  0
 22 23  1  0  0  0
 22 64  1  0  0  0
 22 65  1  0  0  0
 23 24  1  0  0  0
 23 66  1  0  0  0
 23 67  1  0  0  0
 24 68  1  0  0  0
 25 42  1  0  0  0
 25 26  1  0  0  0
 25 27  1  0  0  0
 26 69  1  0  0  0
 27 28  1  0  0  0
 27 70  1  0  0  0
 27 71  1  0  0  0
 28 29  1  0  0  0
 28 72  1  0  0  0
 29 31  1  0  0  0
 29 30  1  0  0  0
 29 32  1  0  0  0
 30 31  1  0  0  0
 30 73  1  0  0  0
 30 74  1  0  0  0
 31 75  1  0  0  0
 31 76  1  0  0  0
 32 37  1  0  0  0
 32 33  2  0  0  0
 33 34  1  0  0  0
 33 77  1  0  0  0
 34 35  2  0  0  0
 34 38  1  0  0  0
 35 36  1  0  0  0
 35 78  1  0  0  0
 36 37  2  0  0  0
 36 79  1  0  0  0
 37 80  1  0  0  0
 38 39  1  0  0  0
 38 40  1  0  0  0
 38 81  1  0  0  0
 39 82  1  0  0  0
 39 83  1  0  0  0
 39 84  1  0  0  0
 40 85  1  0  0  0
 40 86  1  0  0  0
 40 87  1  0  0  0
M  END
> <s_m_source_file>
BACE_77.smi

> <i_m_source_file_index>
1

> <i_lp_mmshare_version>
42013

> <i_f3d_flags>
0

> <s_epik_input>
W2NIXTFbY0hdW2NIXWMoW0NIXShbQ0gzXSlbQ0gzXSlbY0hdYzFDMihbQ0gyXVtDSDJdMilbTkhdW0NIMl1bQ0BASF0oW09IXSlbQ0BASF0oW05IXUMoPU8pYyhbY0hdMylbY0hdYyhbY0hdYzM0KVtDSDJdT1tDSDNdKVtDSDJdL0MoW0NIM10pPVtDSF1cW0NIMl1PW0NIMl1bQ0gyXVtDSDJdW0NIMl1bTkhdNA==

> <s_epik_cmdline>
J2VwaWtfcHl0aG9uJywgJy1waCcsICc3LjAnLCAnLXRuJywgJzgnLCAnLW1hJywgJzIwMCcsICctaW1hZScsICc8aW5maWxlLm1hZT4nLCAnLW9tYWUnLCAnPG91dGZpbGUubWFlPic=

> <r_epik_Ionization_Penalty>
  0.3295

> <r_epik_Ionization_Penalty_Charging>
  0.0000

> <r_epik_Ionization_Penalty_Neutral>
  0.3295

> <r_epik_State_Penalty>
  0.3241

> <r_epik_Charging_Adjusted_Penalty>
0.324119

> <i_epik_Tot_Q>
0

> <i_epik_Tot_abs_Q>
0

> <s_lp_Force_Field>
OPLS_2005

> <r_lp_Energy>
48.4108

> <b_lp_Chiralities_Consistent>
1

> <s_lp_Variant>
BACE_77.smi:1-1

> <chiral flag>
1

> <version>
0

> <s_i_glide_gridfile>
second_dock_grid_2

> <i_i_glide_lignum>
154

> <i_i_glide_rotatable_bonds>
9

> <r_i_docking_score>
-3.14869

> <r_i_glide_ligand_efficiency>
-0.0787172

> <r_i_glide_ligand_efficiency_sa>
-0.269209

> <r_i_glide_ligand_efficiency_ln>
-0.671523

> <r_glide_XP_GScore>
-3.47279

> <r_i_glide_gscore>
-3.47279

> <r_i_glide_evdw>
-41.4671

> <r_i_glide_ecoul>
-6.0034

> <r_i_glide_energy>
-47.4705

> <r_i_glide_einternal>
12.4273

> <r_i_glide_emodel>
-61.5889

> <r_glide_XP_HBond>
-1.58359

> <i_i_glide_confnum>
1

> <i_i_glide_posenum>
16

> <r_i_glide_eff_state_penalty>
0.3241

> <i_glide_XP_PoseRank>
1

$$$$
BACE_77.smi:1
                    3D
 Structure written by MMmdl.
 88 91  0  0  1  0            999 V2000
   21.5519   50.2182   -5.1902 C   0  0  0  0  0  0
   21.2820   50.7954   -6.4569 O   0  0  0  0  0  0
   21.4042   49.8689   -7.5245 C   0  0  0  0  0  0
   20.0965   49.1425   -7.7805 C   0  0  0  0  0  0
   19.0885   49.7515   -8.5560 C   0  0  0  0  0  0
   17.8684   49.0781   -8.7938 C   0  0  0  0  0  0
   17.6532   47.8096   -8.2138 C   0  0  0  0  0  0
   18.6701   47.1686   -7.4705 C   0  0  0  0  0  0
   19.8849   47.8548   -7.2447 C   0  0  0  0  0  0
   18.4523   45.8240   -6.8267 C   0  0  0  0  0  0
   18.7171   45.6916   -5.6325 O   0  0  0  0  0  0
   18.0057   44.7673   -7.5413 N   0  0  0  0  0  0
   17.7040   44.5688   -8.9677 C   0  0  1  0  0  0
   18.8055   43.6406   -9.5700 C   0  0  0  0  0  0
   18.6730   43.2005  -11.0329 C   0  0  0  0  0  0
   18.3159   41.7331  -11.2259 C   0  0  0  0  0  0
   18.9469   43.9704  -12.1097 C   0  0  0  0  0  0
   19.3788   45.4244  -12.1484 C   0  0  0  0  0  0
   18.6078   46.1394  -13.1090 O   0  0  0  0  0  0
   18.8186   47.5458  -13.0933 C   0  0  0  0  0  0
   17.7646   48.2290  -12.2040 C   0  0  0  0  0  0
   18.1661   49.6579  -11.7883 C   0  0  0  0  0  0
   17.1860   50.3621  -10.8177 C   0  0  0  0  0  0
   16.8553   49.6084   -9.6080 N   0  0  0  0  0  0
   16.2141   44.1148   -9.0628 C   0  0  2  0  0  0
   15.4300   44.7667   -8.0811 O   0  0  0  0  0  0
   15.9839   42.5906   -8.9589 C   0  0  0  0  0  0
   16.4301   42.0698   -7.6459 N   0  3  0  0  0  0
   16.2993   40.6179   -7.4494 C   0  0  0  0  0  0
   15.6892   40.1397   -6.1535 C   0  0  0  0  0  0
   14.9058   40.0361   -7.4402 C   0  0  0  0  0  0
   17.4109   39.7752   -8.0582 C   0  0  0  0  0  0
   18.7636   40.1358   -7.8657 C   0  0  0  0  0  0
   19.8115   39.3639   -8.4198 C   0  0  0  0  0  0
   19.4918   38.2153   -9.1764 C   0  0  0  0  0  0
   18.1479   37.8470   -9.3745 C   0  0  0  0  0  0
   17.1135   38.6230   -8.8184 C   0  0  0  0  0  0
   21.2733   39.7555   -8.2107 C   0  0  0  0  0  0
   21.9179   38.9834   -7.0458 C   0  0  0  0  0  0
   22.0960   39.6319   -9.5054 C   0  0  0  0  0  0
   17.7789   45.5204   -9.4835 H   0  0  0  0  0  0
   15.8306   44.4243  -10.0371 H   0  0  0  0  0  0
   21.4424   50.9756   -4.4140 H   0  0  0  0  0  0
   22.5706   49.8316   -5.1379 H   0  0  0  0  0  0
   20.8571   49.4076   -4.9660 H   0  0  0  0  0  0
   22.1826   49.1379   -7.2990 H   0  0  0  0  0  0
   21.7114   50.3855   -8.4355 H   0  0  0  0  0  0
   19.2607   50.7349   -8.9688 H   0  0  0  0  0  0
   16.7021   47.3191   -8.3652 H   0  0  0  0  0  0
   20.6633   47.3949   -6.6521 H   0  0  0  0  0  0
   17.8914   43.9253   -6.9953 H   0  0  0  0  0  0
   19.7710   44.1385   -9.4703 H   0  0  0  0  0  0
   18.9015   42.7454   -8.9533 H   0  0  0  0  0  0
   18.2237   41.4725  -12.2808 H   0  0  0  0  0  0
   17.3702   41.4871  -10.7463 H   0  0  0  0  0  0
   19.0902   41.0964  -10.7966 H   0  0  0  0  0  0
   18.8718   43.5203  -13.0892 H   0  0  0  0  0  0
   20.4295   45.4578  -12.4400 H   0  0  0  0  0  0
   19.3070   45.8833  -11.1644 H   0  0  0  0  0  0
   19.8351   47.7833  -12.7738 H   0  0  0  0  0  0
   18.7242   47.9208  -14.1128 H   0  0  0  0  0  0
   16.8022   48.2395  -12.7170 H   0  0  0  0  0  0
   17.6207   47.6208  -11.3133 H   0  0  0  0  0  0
   18.2623   50.2724  -12.6841 H   0  0  0  0  0  0
   19.1630   49.6362  -11.3491 H   0  0  0  0  0  0
   17.5759   51.3408  -10.5369 H   0  0  0  0  0  0
   16.2488   50.5540  -11.3407 H   0  0  0  0  0  0
   16.0136   49.0543   -9.6756 H   0  0  0  0  0  0
   15.3628   44.2012   -7.3270 H   0  0  0  0  0  0
   16.5006   42.0607   -9.7572 H   0  0  0  0  0  0
   14.9207   42.3719   -9.0632 H   0  0  0  0  0  0
   15.8823   42.5271   -6.9311 H   0  0  0  0  0  0
   16.0774   39.2166   -5.7231 H   0  0  0  0  0  0
   15.3782   40.8959   -5.4327 H   0  0  0  0  0  0
   14.0711   40.7231   -7.5798 H   0  0  0  0  0  0
   14.7703   39.0437   -7.8702 H   0  0  0  0  0  0
   18.9944   41.0171   -7.2851 H   0  0  0  0  0  0
   20.2726   37.6080   -9.6106 H   0  0  0  0  0  0
   17.9099   36.9675   -9.9546 H   0  0  0  0  0  0
   16.0869   38.3282   -8.9802 H   0  0  0  0  0  0
   21.2930   40.8097   -7.9313 H   0  0  0  0  0  0
   21.3595   39.1311   -6.1207 H   0  0  0  0  0  0
   22.9378   39.3252   -6.8665 H   0  0  0  0  0  0
   21.9626   37.9114   -7.2398 H   0  0  0  0  0  0
   21.6625   40.2342  -10.3046 H   0  0  0  0  0  0
   22.1522   38.6018   -9.8583 H   0  0  0  0  0  0
   23.1180   39.9812   -9.3546 H   0  0  0  0  0  0
   17.3988   42.3235   -7.5144 H   0  0  0  0  0  0
  1  2  1  0  0  0
  1 43  1  0  0  0
  1 44  1  0  0  0
  1 45  1  0  0  0
  2  3  1  0  0  0
  3  4  1  0  0  0
  3 46  1  0  0  0
  3 47  1  0  0  0
  4  9  1  0  0  0
  4  5  2  0  0  0
  5  6  1  0  0  0
  5 48  1  0  0  0
  6 24  1  0  0  0
  6  7  2  0  0  0
  7  8  1  0  0  0
  7 49  1  0  0  0
  8  9  2  0  0  0
  8 10  1  0  0  0
  9 50  1  0  0  0
 10 11  2  0  0  0
 10 12  1  0  0  0
 12 13  1  0  0  0
 12 51  1  0  0  0
 13 41  1  0  0  0
 13 14  1  0  0  0
 13 25  1  0  0  0
 14 15  1  0  0  0
 14 52  1  0  0  0
 14 53  1  0  0  0
 15 16  1  0  0  0
 15 17  2  0  0  0
 16 54  1  0  0  0
 16 55  1  0  0  0
 16 56  1  0  0  0
 17 18  1  0  0  0
 17 57  1  0  0  0
 18 19  1  0  0  0
 18 58  1  0  0  0
 18 59  1  0  0  0
 19 20  1  0  0  0
 20 21  1  0  0  0
 20 60  1  0  0  0
 20 61  1  0  0  0
 21 22  1  0  0  0
 21 62  1  0  0  0
 21 63  1  0  0  0
 22 23  1  0  0  0
 22 64  1  0  0  0
 22 65  1  0  0  0
 23 24  1  0  0  0
 23 66  1  0  0  0
 23 67  1  0  0  0
 24 68  1  0  0  0
 25 42  1  0  0  0
 25 26  1  0  0  0
 25 27  1  0  0  0
 26 69  1  0  0  0
 27 28  1  0  0  0
 27 70  1  0  0  0
 27 71  1  0  0  0
 28 29  1  0  0  0
 28 72  1  0  0  0
 28 88  1  0  0  0
 29 31  1  0  0  0
 29 30  1  0  0  0
 29 32  1  0  0  0
 30 31  1  0  0  0
 30 73  1  0  0  0
 30 74  1  0  0  0
 31 75  1  0  0  0
 31 76  1  0  0  0
 32 37  1  0  0  0
 32 33  2  0  0  0
 33 34  1  0  0  0
 33 77  1  0  0  0
 34 35  2  0  0  0
 34 38  1  0  0  0
 35 36  1  0  0  0
 35 78  1  0  0  0
 36 37  2  0  0  0
 36 79  1  0  0  0
 37 80  1  0  0  0
 38 39  1  0  0  0
 38 40  1  0  0  0
 38 81  1  0  0  0
 39 82  1  0  0  0
 39 83  1  0  0  0
 39 84  1  0  0  0
 40 85  1  0  0  0
 40 86  1  0  0  0
 40 87  1  0  0  0
M  CHG  1  28   1
M  END
> <s_m_source_file>
BACE_77.smi

> <i_m_source_file_index>
1

> <i_lp_mmshare_version>
42013

> <i_f3d_flags>
0

> <s_epik_input>
W2NIXTFbY0hdW2NIXWMoW0NIXShbQ0gzXSlbQ0gzXSlbY0hdYzFDMihbQ0gyXVtDSDJdMilbTkhdW0NIMl1bQ0BASF0oW09IXSlbQ0BASF0oW05IXUMoPU8pYyhbY0hdMylbY0hdYyhbY0hdYzM0KVtDSDJdT1tDSDNdKVtDSDJdL0MoW0NIM10pPVtDSF1cW0NIMl1PW0NIMl1bQ0gyXVtDSDJdW0NIMl1bTkhdNA==

> <s_epik_cmdline>
J2VwaWtfcHl0aG9uJywgJy1waCcsICc3LjAnLCAnLXRuJywgJzgnLCAnLW1hJywgJzIwMCcsICctaW1hZScsICc8aW5maWxlLm1hZT4nLCAnLW9tYWUnLCAnPG91dGZpbGUubWFlPic=

> <r_epik_Ionization_Penalty>
  0.5056

> <r_epik_Ionization_Penalty_Charging>
  0.5053

> <r_epik_Ionization_Penalty_Neutral>
  0.0004

> <r_epik_State_Penalty>
  0.5121

> <r_epik_Charging_Adjusted_Penalty>
1.01737

> <i_epik_Tot_Q>
1

> <i_epik_Tot_abs_Q>
1

> <s_lp_Force_Field>
OPLS_2005

> <r_lp_Energy>
40.7027

> <b_lp_Chiralities_Consistent>
1

> <s_lp_Variant>
BACE_77.smi:1-2

> <chiral flag>
1

> <version>
0

> <s_i_glide_gridfile>
second_dock_grid_2

> <i_i_glide_lignum>
155

> <i_i_glide_rotatable_bonds>
9

> <r_i_docking_score>
-4.84347

> <r_i_glide_ligand_efficiency>
-0.121087

> <r_i_glide_ligand_efficiency_sa>
-0.414111

> <r_i_glide_ligand_efficiency_ln>
-1.03297

> <r_glide_XP_GScore>
-5.35557

> <r_i_glide_gscore>
-5.35557

> <r_i_glide_evdw>
-30.1003

> <r_i_glide_ecoul>
-20.8049

> <r_i_glide_energy>
-50.9051

> <r_i_glide_einternal>
4.41771

> <r_i_glide_emodel>
-78.7652

> <r_glide_XP_HBond>
-1.21716

> <i_i_glide_confnum>
1

> <i_i_glide_posenum>
9

> <r_i_glide_eff_state_penalty>
0.5121

> <i_glide_XP_PoseRank>
1

$$$$
BACE_78.smi:1
                    3D
 Structure written by MMmdl.
 85 87  0  0  1  0            999 V2000
   23.6488   46.1144   -6.0281 C   0  0  0  0  0  0
   23.9481   44.6312   -5.7449 C   0  0  2  0  0  0
   24.0906   43.7912   -7.0297 C   0  0  0  0  0  0
   25.3782   44.0537   -7.8365 C   0  0  0  0  0  0
   25.4243   43.2385   -9.1422 C   0  0  0  0  0  0
   24.4787   43.7901  -10.2241 C   0  0  0  0  0  0
   24.0424   42.7332  -11.2529 C   0  0  0  0  0  0
   22.8049   43.1386  -12.0814 C   0  0  0  0  0  0
   21.4670   42.9574  -11.3404 C   0  0  0  0  0  0
   21.3482   43.9825  -10.3696 O   0  0  0  0  0  0
   20.2938   43.9326   -9.4941 C   0  0  0  0  0  0
   20.4590   44.6222   -8.2811 C   0  0  0  0  0  0
   19.4497   44.6175   -7.2984 C   0  0  0  0  0  0
   18.2210   43.9838   -7.5694 C   0  0  0  0  0  0
   18.0352   43.3218   -8.7968 C   0  0  0  0  0  0
   19.0709   43.2699   -9.7491 C   0  0  0  0  0  0
   19.6586   45.3364   -6.0041 C   0  0  0  0  0  0
   18.8643   46.2018   -5.6402 O   0  0  0  0  0  0
   20.7115   44.9944   -5.2401 N   0  0  0  0  0  0
   21.4922   43.7535   -5.2425 C   0  0  1  0  0  0
   22.9462   43.9970   -4.7501 C   0  0  0  0  0  0
   20.7376   42.6860   -4.4020 C   0  0  2  0  0  0
   21.0472   42.8289   -3.0300 O   0  0  0  0  0  0
   21.0933   41.2435   -4.8122 C   0  0  0  0  0  0
   20.4599   40.9023   -6.1000 N   0  3  0  0  0  0
   20.7871   39.5650   -6.6225 C   0  0  0  0  0  0
   19.9456   39.2694   -7.8447 C   0  0  0  0  0  0
   18.6299   38.7775   -7.7084 C   0  0  0  0  0  0
   17.8654   38.5678   -8.8710 C   0  0  0  0  0  0
   16.4319   38.0655   -8.7722 C   0  0  0  0  0  0
   15.3464   39.1398   -8.4475 C   0  0  0  0  0  0
   14.8579   38.9567   -6.9994 C   0  0  0  0  0  0
   14.1509   38.9501   -9.3949 C   0  0  0  0  0  0
   15.8488   40.5864   -8.6014 C   0  0  0  0  0  0
   18.4597   38.8347  -10.1225 C   0  0  0  0  0  0
   19.7227   39.2885  -10.2630 N   0  0  0  0  0  0
   20.4454   39.4957   -9.1441 C   0  0  0  0  0  0
   24.9162   44.6058   -5.2427 H   0  0  0  0  0  0
   21.5462   43.3757   -6.2585 H   0  0  0  0  0  0
   19.6603   42.8174   -4.4996 H   0  0  0  0  0  0
   22.7299   46.2421   -6.5977 H   0  0  0  0  0  0
   24.4525   46.5793   -6.5982 H   0  0  0  0  0  0
   23.5484   46.6777   -5.1005 H   0  0  0  0  0  0
   24.0599   42.7327   -6.7752 H   0  0  0  0  0  0
   23.2173   43.9578   -7.6543 H   0  0  0  0  0  0
   25.4855   45.1129   -8.0716 H   0  0  0  0  0  0
   26.2400   43.7890   -7.2213 H   0  0  0  0  0  0
   26.4416   43.2202   -9.5363 H   0  0  0  0  0  0
   25.1764   42.2010   -8.9158 H   0  0  0  0  0  0
   23.6007   44.2083   -9.7468 H   0  0  0  0  0  0
   24.9494   44.6336  -10.7321 H   0  0  0  0  0  0
   24.8795   42.5458  -11.9273 H   0  0  0  0  0  0
   23.8381   41.7799  -10.7627 H   0  0  0  0  0  0
   22.9018   44.1649  -12.4370 H   0  0  0  0  0  0
   22.7754   42.5256  -12.9814 H   0  0  0  0  0  0
   20.6379   43.0302  -12.0398 H   0  0  0  0  0  0
   21.4184   41.9712  -10.8750 H   0  0  0  0  0  0
   21.3818   45.1511   -8.1025 H   0  0  0  0  0  0
   17.4201   43.9988   -6.8418 H   0  0  0  0  0  0
   17.0869   42.8582   -9.0112 H   0  0  0  0  0  0
   18.8950   42.7453  -10.6763 H   0  0  0  0  0  0
   20.8128   45.5289   -4.3834 H   0  0  0  0  0  0
   23.3771   43.0442   -4.4445 H   0  0  0  0  0  0
   22.9222   44.5917   -3.8361 H   0  0  0  0  0  0
   20.8580   43.7197   -2.7638 H   0  0  0  0  0  0
   22.1717   41.1030   -4.8726 H   0  0  0  0  0  0
   20.7223   40.5415   -4.0634 H   0  0  0  0  0  0
   19.4547   40.9503   -5.9526 H   0  0  0  0  0  0
   21.8502   39.5030   -6.8648 H   0  0  0  0  0  0
   20.5855   38.8122   -5.8632 H   0  0  0  0  0  0
   18.2041   38.5905   -6.7320 H   0  0  0  0  0  0
   16.2024   37.5779   -9.7206 H   0  0  0  0  0  0
   16.4046   37.2589   -8.0407 H   0  0  0  0  0  0
   14.0700   39.6662   -6.7425 H   0  0  0  0  0  0
   15.6677   39.0997   -6.2840 H   0  0  0  0  0  0
   14.4603   37.9551   -6.8400 H   0  0  0  0  0  0
   13.6890   37.9755   -9.2397 H   0  0  0  0  0  0
   14.4609   39.0262  -10.4376 H   0  0  0  0  0  0
   13.3743   39.6992   -9.2379 H   0  0  0  0  0  0
   15.0501   41.3026   -8.4057 H   0  0  0  0  0  0
   16.2137   40.7721   -9.6119 H   0  0  0  0  0  0
   16.6500   40.8095   -7.8970 H   0  0  0  0  0  0
   17.9055   38.6857  -11.0365 H   0  0  0  0  0  0
   21.4475   39.8716   -9.2923 H   0  0  0  0  0  0
   20.7112   41.5896   -6.7950 H   0  0  0  0  0  0
  1  2  1  0  0  0
  1 41  1  0  0  0
  1 42  1  0  0  0
  1 43  1  0  0  0
  2 38  1  0  0  0
  2 21  1  0  0  0
  2  3  1  0  0  0
  3  4  1  0  0  0
  3 44  1  0  0  0
  3 45  1  0  0  0
  4  5  1  0  0  0
  4 46  1  0  0  0
  4 47  1  0  0  0
  5  6  1  0  0  0
  5 48  1  0  0  0
  5 49  1  0  0  0
  6  7  1  0  0  0
  6 50  1  0  0  0
  6 51  1  0  0  0
  7  8  1  0  0  0
  7 52  1  0  0  0
  7 53  1  0  0  0
  8  9  1  0  0  0
  8 54  1  0  0  0
  8 55  1  0  0  0
  9 10  1  0  0  0
  9 56  1  0  0  0
  9 57  1  0  0  0
 10 11  1  0  0  0
 11 16  1  0  0  0
 11 12  2  0  0  0
 12 13  1  0  0  0
 12 58  1  0  0  0
 13 14  2  0  0  0
 13 17  1  0  0  0
 14 15  1  0  0  0
 14 59  1  0  0  0
 15 16  2  0  0  0
 15 60  1  0  0  0
 16 61  1  0  0  0
 17 18  2  0  0  0
 17 19  1  0  0  0
 19 20  1  0  0  0
 19 62  1  0  0  0
 20 39  1  0  0  0
 20 21  1  0  0  0
 20 22  1  0  0  0
 21 63  1  0  0  0
 21 64  1  0  0  0
 22 40  1  0  0  0
 22 23  1  0  0  0
 22 24  1  0  0  0
 23 65  1  0  0  0
 24 25  1  0  0  0
 24 66  1  0  0  0
 24 67  1  0  0  0
 25 26  1  0  0  0
 25 68  1  0  0  0
 25 85  1  0  0  0
 26 27  1  0  0  0
 26 69  1  0  0  0
 26 70  1  0  0  0
 27 37  1  0  0  0
 27 28  2  0  0  0
 28 29  1  0  0  0
 28 71  1  0  0  0
 29 30  1  0  0  0
 29 35  2  0  0  0
 30 31  1  0  0  0
 30 72  1  0  0  0
 30 73  1  0  0  0
 31 32  1  0  0  0
 31 33  1  0  0  0
 31 34  1  0  0  0
 32 74  1  0  0  0
 32 75  1  0  0  0
 32 76  1  0  0  0
 33 77  1  0  0  0
 33 78  1  0  0  0
 33 79  1  0  0  0
 34 80  1  0  0  0
 34 81  1  0  0  0
 34 82  1  0  0  0
 35 36  1  0  0  0
 35 83  1  0  0  0
 36 37  2  0  0  0
 37 84  1  0  0  0
M  CHG  1  25   1
M  END
> <s_m_source_file>
BACE_78.smi

> <i_m_source_file_index>
1

> <i_lp_mmshare_version>
42013

> <i_f3d_flags>
0

> <s_epik_input>
TzFbQ0gyXVtDSDJdW0NIMl1bQ0gyXVtDSDJdW0NIMl1bQ0gyXVtDQEBIXShbQ0gzXSlbQ0gyXVtDQEhdKFtOSF1DKD1PKWMoW2NIXWMxMilbY0hdW2NIXVtjSF0yKVtDQEhdKFtPSF0pW0NIMl1bTkhdW0NIMl1jM1tjSF1jKFtDSDJdQyhbQ0gzXSkoW0NIM10pW0NIM10pW2NIXW5bY0hdMw==

> <s_epik_cmdline>
J2VwaWtfcHl0aG9uJywgJy1waCcsICc3LjAnLCAnLXRuJywgJzgnLCAnLW1hJywgJzIwMCcsICctaW1hZScsICc8aW5maWxlLm1hZT4nLCAnLW9tYWUnLCAnPG91dGZpbGUubWFlPic=

> <r_lp_tautomer_probability>
1

> <r_epik_Ionization_Penalty>
  0.0463

> <r_epik_Ionization_Penalty_Charging>
  0.0356

> <r_epik_Ionization_Penalty_Neutral>
  0.0108

> <r_epik_State_Penalty>
  0.0312

> <r_epik_Charging_Adjusted_Penalty>
0.0667178

> <i_epik_Tot_Q>
1

> <i_epik_Tot_abs_Q>
1

> <s_lp_Force_Field>
OPLS_2005

> <r_lp_Energy>
39.9753

> <b_lp_Chiralities_Consistent>
1

> <s_lp_Variant>
BACE_78.smi:1-1

> <chiral flag>
1

> <version>
0

> <s_i_glide_gridfile>
second_dock_grid_2

> <i_i_glide_lignum>
156

> <i_i_glide_rotatable_bonds>
8

> <r_i_docking_score>
-2.58763

> <r_i_glide_ligand_efficiency>
-0.069936

> <r_i_glide_ligand_efficiency_sa>
-0.233042

> <r_i_glide_ligand_efficiency_ln>
-0.561197

> <r_glide_XP_GScore>
-2.61883

> <r_i_glide_gscore>
-2.61883

> <r_i_glide_evdw>
-38.817

> <r_i_glide_ecoul>
-14.7837

> <r_i_glide_energy>
-53.6006

> <r_i_glide_einternal>
3.89465

> <r_i_glide_emodel>
-75.3226

> <r_glide_XP_HBond>
-1.87265

> <i_i_glide_confnum>
1

> <i_i_glide_posenum>
1

> <r_i_glide_eff_state_penalty>
0.0312

> <i_glide_XP_PoseRank>
1

$$$$
BACE_78.smi:1
                    3D
 Structure written by MMmdl.
 84 86  0  0  1  0            999 V2000
   17.1935   36.1305   -9.1770 C   0  0  0  0  0  0
   17.5957   37.6030   -8.9761 C   0  0  2  0  0  0
   16.3002   38.4019   -8.7127 C   0  0  0  0  0  0
   16.4827   39.8992   -8.4615 C   0  0  0  0  0  0
   15.1768   40.5708   -8.0207 C   0  0  0  0  0  0
   15.3447   42.0561   -7.6680 C   0  0  0  0  0  0
   15.8166   42.9735   -8.8070 C   0  0  0  0  0  0
   14.7900   43.1336   -9.9417 C   0  0  0  0  0  0
   15.2519   44.0649  -11.0766 C   0  0  0  0  0  0
   16.1108   43.3791  -11.9841 O   0  0  0  0  0  0
   17.4404   43.2472  -11.6650 C   0  0  0  0  0  0
   18.0595   42.0225  -11.9879 C   0  0  0  0  0  0
   19.4334   41.8284  -11.7505 C   0  0  0  0  0  0
   20.1976   42.8632  -11.1722 C   0  0  0  0  0  0
   19.5825   44.0793  -10.8240 C   0  0  0  0  0  0
   18.2104   44.2769  -11.0767 C   0  0  0  0  0  0
   20.0904   40.5606  -12.1944 C   0  0  0  0  0  0
   20.7330   40.5504  -13.2400 O   0  0  0  0  0  0
   19.9457   39.4505  -11.4558 N   0  0  0  0  0  0
   19.4140   39.2734  -10.0999 C   0  0  1  0  0  0
   18.4114   38.0902  -10.2040 C   0  0  0  0  0  0
   20.6164   39.0854   -9.1268 C   0  0  2  0  0  0
   20.1624   39.0670   -7.7875 O   0  0  0  0  0  0
   21.6003   40.2715   -9.2198 C   0  0  0  0  0  0
   22.8120   40.1041   -8.4268 N   0  0  0  0  0  0
   23.6160   41.3245   -8.4085 C   0  0  0  0  0  0
   23.0555   42.4444   -7.5375 C   0  0  0  0  0  0
   22.0679   42.2206   -6.5542 C   0  0  0  0  0  0
   21.6213   43.2979   -5.7647 C   0  0  0  0  0  0
   20.5762   43.0890   -4.6766 C   0  0  0  0  0  0
   21.1005   42.3954   -3.3860 C   0  0  0  0  0  0
   20.1316   42.6829   -2.2217 C   0  0  0  0  0  0
   22.4996   42.9251   -3.0072 C   0  0  0  0  0  0
   21.1628   40.8686   -3.5783 C   0  0  0  0  0  0
   22.1790   44.5700   -6.0040 C   0  0  0  0  0  0
   23.1176   44.8046   -6.9483 N   0  0  0  0  0  0
   23.5445   43.7580   -7.6876 C   0  0  0  0  0  0
   18.2081   37.6279   -8.0752 H   0  0  0  0  0  0
   18.8878   40.1751   -9.8016 H   0  0  0  0  0  0
   21.1289   38.1459   -9.3424 H   0  0  0  0  0  0
   16.5341   36.0233  -10.0399 H   0  0  0  0  0  0
   16.6643   35.7480   -8.3068 H   0  0  0  0  0  0
   18.0594   35.4928   -9.3356 H   0  0  0  0  0  0
   15.6065   38.2657   -9.5446 H   0  0  0  0  0  0
   15.8050   37.9678   -7.8413 H   0  0  0  0  0  0
   17.2531   40.0592   -7.7054 H   0  0  0  0  0  0
   16.8126   40.3730   -9.3827 H   0  0  0  0  0  0
   14.4131   40.4448   -8.7906 H   0  0  0  0  0  0
   14.7921   40.0567   -7.1365 H   0  0  0  0  0  0
   14.3921   42.4173   -7.2851 H   0  0  0  0  0  0
   16.0604   42.1396   -6.8527 H   0  0  0  0  0  0
   16.0278   43.9560   -8.3855 H   0  0  0  0  0  0
   16.7694   42.6095   -9.1867 H   0  0  0  0  0  0
   14.5268   42.1623  -10.3605 H   0  0  0  0  0  0
   13.8717   43.5355   -9.5139 H   0  0  0  0  0  0
   14.3759   44.3583  -11.6569 H   0  0  0  0  0  0
   15.6637   44.9973  -10.6919 H   0  0  0  0  0  0
   17.4776   41.2343  -12.4397 H   0  0  0  0  0  0
   21.2574   42.7310  -11.0032 H   0  0  0  0  0  0
   20.1703   44.8719  -10.3848 H   0  0  0  0  0  0
   17.7764   45.2335  -10.8293 H   0  0  0  0  0  0
   20.3587   38.6231  -11.8599 H   0  0  0  0  0  0
   18.9635   37.2396  -10.6052 H   0  0  0  0  0  0
   17.6783   38.3541  -10.9651 H   0  0  0  0  0  0
   19.8386   39.9250   -7.5569 H   0  0  0  0  0  0
   21.9236   40.4189  -10.2486 H   0  0  0  0  0  0
   21.0770   41.1856   -8.9364 H   0  0  0  0  0  0
   23.3653   39.3347   -8.7972 H   0  0  0  0  0  0
   24.6037   41.0879   -8.0400 H   0  0  0  0  0  0
   23.7632   41.6950   -9.4241 H   0  0  0  0  0  0
   21.6555   41.2339   -6.4007 H   0  0  0  0  0  0
   20.1848   44.0715   -4.4170 H   0  0  0  0  0  0
   19.7268   42.5496   -5.0982 H   0  0  0  0  0  0
   20.4521   42.1922   -1.3024 H   0  0  0  0  0  0
   19.1249   42.3243   -2.4379 H   0  0  0  0  0  0
   20.0613   43.7500   -2.0093 H   0  0  0  0  0  0
   22.5177   44.0124   -2.9539 H   0  0  0  0  0  0
   23.2606   42.6222   -3.7258 H   0  0  0  0  0  0
   22.8175   42.5495   -2.0400 H   0  0  0  0  0  0
   21.4092   40.3696   -2.6432 H   0  0  0  0  0  0
   21.9244   40.5768   -4.3018 H   0  0  0  0  0  0
   20.2084   40.4670   -3.9199 H   0  0  0  0  0  0
   21.8664   45.4238   -5.4232 H   0  0  0  0  0  0
   24.3010   43.9829   -8.4240 H   0  0  0  0  0  0
  1  2  1  0  0  0
  1 41  1  0  0  0
  1 42  1  0  0  0
  1 43  1  0  0  0
  2 38  1  0  0  0
  2 21  1  0  0  0
  2  3  1  0  0  0
  3  4  1  0  0  0
  3 44  1  0  0  0
  3 45  1  0  0  0
  4  5  1  0  0  0
  4 46  1  0  0  0
  4 47  1  0  0  0
  5  6  1  0  0  0
  5 48  1  0  0  0
  5 49  1  0  0  0
  6  7  1  0  0  0
  6 50  1  0  0  0
  6 51  1  0  0  0
  7  8  1  0  0  0
  7 52  1  0  0  0
  7 53  1  0  0  0
  8  9  1  0  0  0
  8 54  1  0  0  0
  8 55  1  0  0  0
  9 10  1  0  0  0
  9 56  1  0  0  0
  9 57  1  0  0  0
 10 11  1  0  0  0
 11 16  1  0  0  0
 11 12  2  0  0  0
 12 13  1  0  0  0
 12 58  1  0  0  0
 13 14  2  0  0  0
 13 17  1  0  0  0
 14 15  1  0  0  0
 14 59  1  0  0  0
 15 16  2  0  0  0
 15 60  1  0  0  0
 16 61  1  0  0  0
 17 18  2  0  0  0
 17 19  1  0  0  0
 19 20  1  0  0  0
 19 62  1  0  0  0
 20 39  1  0  0  0
 20 21  1  0  0  0
 20 22  1  0  0  0
 21 63  1  0  0  0
 21 64  1  0  0  0
 22 40  1  0  0  0
 22 23  1  0  0  0
 22 24  1  0  0  0
 23 65  1  0  0  0
 24 25  1  0  0  0
 24 66  1  0  0  0
 24 67  1  0  0  0
 25 26  1  0  0  0
 25 68  1  0  0  0
 26 27  1  0  0  0
 26 69  1  0  0  0
 26 70  1  0  0  0
 27 37  1  0  0  0
 27 28  2  0  0  0
 28 29  1  0  0  0
 28 71  1  0  0  0
 29 30  1  0  0  0
 29 35  2  0  0  0
 30 31  1  0  0  0
 30 72  1  0  0  0
 30 73  1  0  0  0
 31 32  1  0  0  0
 31 33  1  0  0  0
 31 34  1  0  0  0
 32 74  1  0  0  0
 32 75  1  0  0  0
 32 76  1  0  0  0
 33 77  1  0  0  0
 33 78  1  0  0  0
 33 79  1  0  0  0
 34 80  1  0  0  0
 34 81  1  0  0  0
 34 82  1  0  0  0
 35 36  1  0  0  0
 35 83  1  0  0  0
 36 37  2  0  0  0
 37 84  1  0  0  0
M  END
> <s_m_source_file>
BACE_78.smi

> <i_m_source_file_index>
1

> <i_lp_mmshare_version>
42013

> <i_f3d_flags>
0

> <s_epik_input>
TzFbQ0gyXVtDSDJdW0NIMl1bQ0gyXVtDSDJdW0NIMl1bQ0gyXVtDQEBIXShbQ0gzXSlbQ0gyXVtDQEhdKFtOSF1DKD1PKWMoW2NIXWMxMilbY0hdW2NIXVtjSF0yKVtDQEhdKFtPSF0pW0NIMl1bTkhdW0NIMl1jM1tjSF1jKFtDSDJdQyhbQ0gzXSkoW0NIM10pW0NIM10pW2NIXW5bY0hdMw==

> <s_epik_cmdline>
J2VwaWtfcHl0aG9uJywgJy1waCcsICc3LjAnLCAnLXRuJywgJzgnLCAnLW1hJywgJzIwMCcsICctaW1hZScsICc8aW5maWxlLm1hZT4nLCAnLW9tYWUnLCAnPG91dGZpbGUubWFlPic=

> <r_lp_tautomer_probability>
1

> <r_epik_Ionization_Penalty>
  1.7209

> <r_epik_Ionization_Penalty_Charging>
  0.0000

> <r_epik_Ionization_Penalty_Neutral>
  1.7209

> <r_epik_State_Penalty>
  1.7908

> <r_epik_Charging_Adjusted_Penalty>
1.79078

> <i_epik_Tot_Q>
0

> <i_epik_Tot_abs_Q>
0

> <s_lp_Force_Field>
OPLS_2005

> <r_lp_Energy>
45.3465

> <b_lp_Chiralities_Consistent>
1

> <s_lp_Variant>
BACE_78.smi:1-2

> <chiral flag>
1

> <version>
0

> <s_i_glide_gridfile>
second_dock_grid_2

> <i_i_glide_lignum>
157

> <i_i_glide_rotatable_bonds>
8

> <r_i_docking_score>
-3.83638

> <r_i_glide_ligand_efficiency>
-0.103686

> <r_i_glide_ligand_efficiency_sa>
-0.345505

> <r_i_glide_ligand_efficiency_ln>
-0.832021

> <r_glide_XP_GScore>
-5.62718

> <r_i_glide_gscore>
-5.62718

> <r_i_glide_evdw>
-42.5088

> <r_i_glide_ecoul>
-7.56196

> <r_i_glide_energy>
-50.0708

> <r_i_glide_einternal>
5.72851

> <r_i_glide_emodel>
-66.8677

> <r_glide_XP_HBond>
-1.03266

> <i_i_glide_confnum>
1

> <i_i_glide_posenum>
2

> <r_i_glide_eff_state_penalty>
1.7908

> <i_glide_XP_PoseRank>
1

$$$$
BACE_79.smi:1
                    3D
 Structure written by MMmdl.
 85 87  0  0  1  0            999 V2000
   22.2907   40.7098   -7.1861 C   0  0  0  0  0  0
   22.5799   39.8143   -8.3975 C   0  0  2  0  0  0
   23.3664   40.5501   -9.4130 N   0  3  0  0  0  0
   23.9693   41.8159   -8.9398 C   0  0  0  0  0  0
   25.3726   42.0307   -9.5411 C   0  0  1  0  0  0
   25.3016   41.9485  -10.9500 O   0  0  0  0  0  0
   26.0768   43.3549   -9.1216 C   0  0  2  0  0  0
   25.4382   43.9028   -7.8174 C   0  0  0  0  0  0
   26.1172   45.1105   -7.1227 C   0  0  2  0  0  0
   25.9378   46.4372   -7.8847 C   0  0  0  0  0  0
   27.5876   44.8257   -6.7476 C   0  0  0  0  0  0
   28.1963   45.8541   -5.7782 C   0  0  0  0  0  0
   29.6342   45.5210   -5.3462 C   0  0  0  0  0  0
   30.6716   45.6034   -6.4838 C   0  0  0  0  0  0
   31.2608   44.2360   -6.8731 C   0  0  0  0  0  0
   32.3208   44.3267   -7.9853 C   0  0  0  0  0  0
   31.7258   44.4137   -9.3977 C   0  0  0  0  0  0
   31.2576   43.1216   -9.7730 O   0  0  0  0  0  0
   30.2084   43.0538  -10.6582 C   0  0  0  0  0  0
   29.0417   43.8415  -10.5271 C   0  0  0  0  0  0
   27.9689   43.6935  -11.4326 C   0  0  0  0  0  0
   28.0840   42.7854  -12.5054 C   0  0  0  0  0  0
   29.2366   41.9886  -12.6338 C   0  0  0  0  0  0
   30.2864   42.1127  -11.7041 C   0  0  0  0  0  0
   26.7269   44.5200  -11.2858 C   0  0  0  0  0  0
   26.4067   45.3049  -12.1751 O   0  0  0  0  0  0
   25.9787   44.3708  -10.1764 N   0  0  0  0  0  0
   21.3024   39.2739   -8.9910 C   0  0  0  0  0  0
   20.2180   38.6309   -8.3301 C   0  0  0  0  0  0
   19.3155   38.4081   -9.3302 C   0  0  0  0  0  0
   17.9311   37.8405   -9.3396 C   0  0  0  0  0  0
   16.7914   38.8561   -9.0560 C   0  0  0  0  0  0
   16.7035   39.9268  -10.1652 C   0  0  0  0  0  0
   17.0792   39.5569   -7.7147 C   0  0  0  0  0  0
   15.4363   38.1286   -8.9505 C   0  0  0  0  0  0
   19.8199   38.8325  -10.5172 O   0  0  0  0  0  0
   21.0909   39.3720  -10.2928 N   0  0  0  0  0  0
   23.2007   38.9853   -8.0528 H   0  0  0  0  0  0
   26.0082   41.1964   -9.2412 H   0  0  0  0  0  0
   27.1166   43.1324   -8.8894 H   0  0  0  0  0  0
   25.5742   45.2349   -6.1848 H   0  0  0  0  0  0
   21.7526   40.1599   -6.4133 H   0  0  0  0  0  0
   21.6831   41.5719   -7.4642 H   0  0  0  0  0  0
   23.2145   41.0817   -6.7418 H   0  0  0  0  0  0
   24.1046   39.9438   -9.7402 H   0  0  0  0  0  0
   23.3063   42.6486   -9.1792 H   0  0  0  0  0  0
   24.0563   41.7842   -7.8538 H   0  0  0  0  0  0
   24.6382   41.3165  -11.1843 H   0  0  0  0  0  0
   24.3912   44.1445   -8.0030 H   0  0  0  0  0  0
   25.4143   43.0952   -7.0847 H   0  0  0  0  0  0
   26.6064   46.5083   -8.7421 H   0  0  0  0  0  0
   26.1477   47.2924   -7.2425 H   0  0  0  0  0  0
   24.9142   46.5526   -8.2423 H   0  0  0  0  0  0
   27.6539   43.8377   -6.2906 H   0  0  0  0  0  0
   28.1928   44.7824   -7.6502 H   0  0  0  0  0  0
   28.1832   46.8486   -6.2241 H   0  0  0  0  0  0
   27.5709   45.9132   -4.8869 H   0  0  0  0  0  0
   29.9217   46.2308   -4.5697 H   0  0  0  0  0  0
   29.6625   44.5420   -4.8667 H   0  0  0  0  0  0
   30.2401   46.0933   -7.3570 H   0  0  0  0  0  0
   31.4881   46.2508   -6.1614 H   0  0  0  0  0  0
   31.7266   43.7994   -5.9890 H   0  0  0  0  0  0
   30.4668   43.5480   -7.1669 H   0  0  0  0  0  0
   32.9638   45.1887   -7.8030 H   0  0  0  0  0  0
   32.9744   43.4550   -7.9358 H   0  0  0  0  0  0
   30.9789   45.2039   -9.4449 H   0  0  0  0  0  0
   32.5085   44.6934  -10.1035 H   0  0  0  0  0  0
   28.9491   44.5487   -9.7182 H   0  0  0  0  0  0
   27.2793   42.6789  -13.2185 H   0  0  0  0  0  0
   29.3144   41.2776  -13.4431 H   0  0  0  0  0  0
   31.1649   41.4921  -11.8032 H   0  0  0  0  0  0
   25.1820   44.9868  -10.1021 H   0  0  0  0  0  0
   20.0994   38.4054   -7.2807 H   0  0  0  0  0  0
   17.7530   37.3406  -10.2925 H   0  0  0  0  0  0
   17.8933   37.0491   -8.5899 H   0  0  0  0  0  0
   15.9572   40.6853   -9.9257 H   0  0  0  0  0  0
   16.4214   39.4962  -11.1265 H   0  0  0  0  0  0
   17.6573   40.4381  -10.2988 H   0  0  0  0  0  0
   18.0203   40.1070   -7.7454 H   0  0  0  0  0  0
   17.1464   38.8374   -6.8977 H   0  0  0  0  0  0
   16.2937   40.2693   -7.4595 H   0  0  0  0  0  0
   14.6345   38.8211   -8.6922 H   0  0  0  0  0  0
   15.4585   37.3543   -8.1828 H   0  0  0  0  0  0
   15.1583   37.6527   -9.8909 H   0  0  0  0  0  0
   22.7612   40.7688  -10.1916 H   0  0  0  0  0  0
  1  2  1  0  0  0
  1 42  1  0  0  0
  1 43  1  0  0  0
  1 44  1  0  0  0
  2 38  1  0  0  0
  2  3  1  0  0  0
  2 28  1  0  0  0
  3  4  1  0  0  0
  3 45  1  0  0  0
  3 85  1  0  0  0
  4  5  1  0  0  0
  4 46  1  0  0  0
  4 47  1  0  0  0
  5 39  1  0  0  0
  5  6  1  0  0  0
  5  7  1  0  0  0
  6 48  1  0  0  0
  7 40  1  0  0  0
  7 27  1  0  0  0
  7  8  1  0  0  0
  8  9  1  0  0  0
  8 49  1  0  0  0
  8 50  1  0  0  0
  9 41  1  0  0  0
  9 10  1  0  0  0
  9 11  1  0  0  0
 10 51  1  0  0  0
 10 52  1  0  0  0
 10 53  1  0  0  0
 11 12  1  0  0  0
 11 54  1  0  0  0
 11 55  1  0  0  0
 12 13  1  0  0  0
 12 56  1  0  0  0
 12 57  1  0  0  0
 13 14  1  0  0  0
 13 58  1  0  0  0
 13 59  1  0  0  0
 14 15  1  0  0  0
 14 60  1  0  0  0
 14 61  1  0  0  0
 15 16  1  0  0  0
 15 62  1  0  0  0
 15 63  1  0  0  0
 16 17  1  0  0  0
 16 64  1  0  0  0
 16 65  1  0  0  0
 17 18  1  0  0  0
 17 66  1  0  0  0
 17 67  1  0  0  0
 18 19  1  0  0  0
 19 24  1  0  0  0
 19 20  2  0  0  0
 20 21  1  0  0  0
 20 68  1  0  0  0
 21 22  2  0  0  0
 21 25  1  0  0  0
 22 23  1  0  0  0
 22 69  1  0  0  0
 23 24  2  0  0  0
 23 70  1  0  0  0
 24 71  1  0  0  0
 25 26  2  0  0  0
 25 27  1  0  0  0
 27 72  1  0  0  0
 28 37  2  0  0  0
 28 29  1  0  0  0
 29 30  2  0  0  0
 29 73  1  0  0  0
 30 31  1  0  0  0
 30 36  1  0  0  0
 31 32  1  0  0  0
 31 74  1  0  0  0
 31 75  1  0  0  0
 32 33  1  0  0  0
 32 34  1  0  0  0
 32 35  1  0  0  0
 33 76  1  0  0  0
 33 77  1  0  0  0
 33 78  1  0  0  0
 34 79  1  0  0  0
 34 80  1  0  0  0
 34 81  1  0  0  0
 35 82  1  0  0  0
 35 83  1  0  0  0
 35 84  1  0  0  0
 36 37  1  0  0  0
M  CHG  1   3   1
M  END
> <s_m_source_file>
BACE_79.smi

> <i_m_source_file_index>
1

> <i_lp_mmshare_version>
42013

> <i_f3d_flags>
0

> <s_epik_input>
W0NIM11DKFtDSDNdKShbQ0gzXSlbQ0gyXWMob24xKVtjSF1jMVtDQEhdKFtDSDNdKVtOSF1bQ0gyXVtDQEBIXShbT0hdKVtDQEBIXShbTkhdQyg9TyljKFtjSF1jMjMpW2NIXVtjSF1bY0hdMylbQ0gyXVtDQEhdKFtDSDNdKVtDSDJdW0NIMl1bQ0gyXVtDSDJdW0NIMl1bQ0gyXVtDSDJdTzI=

> <s_epik_cmdline>
J2VwaWtfcHl0aG9uJywgJy1waCcsICc3LjAnLCAnLXRuJywgJzgnLCAnLW1hJywgJzIwMCcsICctaW1hZScsICc8aW5maWxlLm1hZT4nLCAnLW9tYWUnLCAnPG91dGZpbGUubWFlPic=

> <r_lp_tautomer_probability>
1

> <r_epik_Ionization_Penalty>
  0.3954

> <r_epik_Ionization_Penalty_Charging>
  0.3954

> <r_epik_Ionization_Penalty_Neutral>
  0.0000

> <r_epik_State_Penalty>
  0.3944

> <r_epik_Charging_Adjusted_Penalty>
0.789759

> <i_epik_Tot_Q>
1

> <i_epik_Tot_abs_Q>
1

> <s_lp_Force_Field>
OPLS_2005

> <r_lp_Energy>
38.1993

> <b_lp_Chiralities_Consistent>
1

> <s_lp_Variant>
BACE_79.smi:1-1

> <chiral flag>
1

> <version>
0

> <s_i_glide_gridfile>
second_dock_grid_2

> <i_i_glide_lignum>
158

> <i_i_glide_rotatable_bonds>
8

> <r_i_docking_score>
-4.50444

> <r_i_glide_ligand_efficiency>
-0.121742

> <r_i_glide_ligand_efficiency_sa>
-0.40567

> <r_i_glide_ligand_efficiency_ln>
-0.976907

> <r_glide_XP_GScore>
-4.89884

> <r_i_glide_gscore>
-4.89884

> <r_i_glide_evdw>
-34.6365

> <r_i_glide_ecoul>
-8.71921

> <r_i_glide_energy>
-43.3557

> <r_i_glide_einternal>
4.2319

> <r_i_glide_emodel>
-62.2356

> <r_glide_XP_HBond>
0

> <i_i_glide_confnum>
1

> <i_i_glide_posenum>
3

> <r_i_glide_eff_state_penalty>
0.3944

> <i_glide_XP_PoseRank>
1

$$$$
