BACE_56.smi:1
                    3D
 Structure written by MMmdl.
 89 92  0  0  1  0            999 V2000
   25.9523   44.7278  -12.3268 C   0  0  0  0  0  0
   26.7329   43.6614  -11.5380 C   0  0  2  0  0  0
   27.7890   43.0242  -12.4754 C   0  0  0  0  0  0
   28.7848   42.0148  -11.8485 C   0  0  0  0  0  0
   30.0617   42.6166  -11.2234 C   0  0  0  0  0  0
   29.8253   43.4674   -9.9657 C   0  0  0  0  0  0
   31.1170   43.8495   -9.2201 C   0  0  0  0  0  0
   30.8357   44.6493   -7.9405 C   0  0  0  0  0  0
   30.4426   46.1104   -8.1999 C   0  0  0  0  0  0
   29.8466   46.7287   -7.0260 N   0  0  0  0  0  0
   28.5552   46.3751   -6.5990 C   0  0  0  0  0  0
   27.6099   45.7378   -7.4434 C   0  0  0  0  0  0
   26.3141   45.4221   -6.9705 C   0  0  0  0  0  0
   25.9670   45.7533   -5.6426 C   0  0  0  0  0  0
   26.9053   46.3700   -4.7946 C   0  0  0  0  0  0
   28.1913   46.6803   -5.2718 C   0  0  0  0  0  0
   25.2804   44.8260   -7.8831 C   0  0  0  0  0  0
   24.1063   45.1897   -7.8203 O   0  0  0  0  0  0
   25.7070   43.8692   -8.7244 N   0  0  0  0  0  0
   24.8840   43.2175   -9.7482 C   0  0  1  0  0  0
   25.7765   42.6328  -10.8729 C   0  0  0  0  0  0
   23.8799   42.2170   -9.1017 C   0  0  2  0  0  0
   24.4557   40.9505   -8.8452 O   0  0  0  0  0  0
   22.5192   42.0757   -9.8279 C   0  0  0  0  0  0
   22.4622   40.9884  -10.8397 N   0  3  0  0  0  0
   21.0894   40.5509  -11.2252 C   0  0  0  0  0  0
   20.3605   41.6764  -11.9847 C   0  0  0  0  0  0
   20.3858   40.9473  -13.2338 O   0  0  0  0  0  0
   21.0827   39.8531  -12.5901 C   0  0  0  0  0  0
   20.3752   39.7956  -10.0855 C   0  0  0  0  0  0
   18.9616   39.6829  -10.0742 C   0  0  0  0  0  0
   18.2736   39.0360   -9.0150 C   0  0  0  0  0  0
   19.0362   38.4754   -7.9665 C   0  0  0  0  0  0
   20.4395   38.5513   -7.9786 C   0  0  0  0  0  0
   21.1073   39.1830   -9.0399 C   0  0  0  0  0  0
   16.7351   38.9067   -8.9849 C   0  0  0  0  0  0
   16.0364   39.7810  -10.0518 C   0  0  0  0  0  0
   16.3503   37.4361   -9.2364 C   0  0  0  0  0  0
   16.1788   39.3342   -7.6060 C   0  0  0  0  0  0
   27.2652   44.1905  -10.7561 H   0  0  0  0  0  0
   24.2862   44.0128  -10.1902 H   0  0  0  0  0  0
   23.6189   42.5975   -8.1134 H   0  0  0  0  0  0
   25.2948   45.3110  -11.6843 H   0  0  0  0  0  0
   25.3407   44.2765  -13.1082 H   0  0  0  0  0  0
   26.6314   45.4346  -12.8028 H   0  0  0  0  0  0
   27.2501   42.5501  -13.2961 H   0  0  0  0  0  0
   28.3683   43.8130  -12.9566 H   0  0  0  0  0  0
   29.1169   41.3553  -12.6523 H   0  0  0  0  0  0
   28.3015   41.3506  -11.1346 H   0  0  0  0  0  0
   30.5996   43.2015  -11.9698 H   0  0  0  0  0  0
   30.7242   41.7897  -10.9651 H   0  0  0  0  0  0
   29.1542   42.9397   -9.2833 H   0  0  0  0  0  0
   29.3245   44.3862  -10.2604 H   0  0  0  0  0  0
   31.6575   42.9500   -8.9425 H   0  0  0  0  0  0
   31.7849   44.4080   -9.8788 H   0  0  0  0  0  0
   31.7200   44.6374   -7.3044 H   0  0  0  0  0  0
   30.0540   44.1475   -7.3691 H   0  0  0  0  0  0
   31.3386   46.6733   -8.4689 H   0  0  0  0  0  0
   29.7710   46.2113   -9.0513 H   0  0  0  0  0  0
   30.4757   47.1436   -6.3515 H   0  0  0  0  0  0
   27.8570   45.5170   -8.4688 H   0  0  0  0  0  0
   24.9794   45.5321   -5.2619 H   0  0  0  0  0  0
   26.6347   46.6076   -3.7765 H   0  0  0  0  0  0
   28.8948   47.1635   -4.6121 H   0  0  0  0  0  0
   26.6801   43.6084   -8.6782 H   0  0  0  0  0  0
   25.1541   42.1737  -11.6404 H   0  0  0  0  0  0
   26.3574   41.8227  -10.4408 H   0  0  0  0  0  0
   24.8937   40.6136   -9.6151 H   0  0  0  0  0  0
   22.2280   43.0250  -10.2744 H   0  0  0  0  0  0
   21.7649   41.8768   -9.0685 H   0  0  0  0  0  0
   22.9298   40.1891  -10.4388 H   0  0  0  0  0  0
   19.3436   41.8788  -11.6529 H   0  0  0  0  0  0
   20.9177   42.6102  -12.0408 H   0  0  0  0  0  0
   20.4852   38.9413  -12.5889 H   0  0  0  0  0  0
   22.0591   39.6709  -13.0363 H   0  0  0  0  0  0
   18.4047   40.0932  -10.8991 H   0  0  0  0  0  0
   18.5532   37.9572   -7.1491 H   0  0  0  0  0  0
   21.0068   38.1120   -7.1704 H   0  0  0  0  0  0
   22.1876   39.1935   -9.0086 H   0  0  0  0  0  0
   16.2927   40.8357   -9.9338 H   0  0  0  0  0  0
   14.9494   39.7020   -9.9740 H   0  0  0  0  0  0
   16.3018   39.4758  -11.0642 H   0  0  0  0  0  0
   16.7274   36.7795   -8.4494 H   0  0  0  0  0  0
   16.7499   37.0751  -10.1829 H   0  0  0  0  0  0
   15.2682   37.3163   -9.2670 H   0  0  0  0  0  0
   16.5072   38.6763   -6.7995 H   0  0  0  0  0  0
   15.0879   39.3035   -7.5877 H   0  0  0  0  0  0
   16.4791   40.3519   -7.3473 H   0  0  0  0  0  0
   22.9659   41.2584  -11.6753 H   0  0  0  0  0  0
  1  2  1  0  0  0
  1 43  1  0  0  0
  1 44  1  0  0  0
  1 45  1  0  0  0
  2 40  1  0  0  0
  2 21  1  0  0  0
  2  3  1  0  0  0
  3  4  1  0  0  0
  3 46  1  0  0  0
  3 47  1  0  0  0
  4  5  1  0  0  0
  4 48  1  0  0  0
  4 49  1  0  0  0
  5  6  1  0  0  0
  5 50  1  0  0  0
  5 51  1  0  0  0
  6  7  1  0  0  0
  6 52  1  0  0  0
  6 53  1  0  0  0
  7  8  1  0  0  0
  7 54  1  0  0  0
  7 55  1  0  0  0
  8  9  1  0  0  0
  8 56  1  0  0  0
  8 57  1  0  0  0
  9 10  1  0  0  0
  9 58  1  0  0  0
  9 59  1  0  0  0
 10 11  1  0  0  0
 10 60  1  0  0  0
 11 16  1  0  0  0
 11 12  2  0  0  0
 12 13  1  0  0  0
 12 61  1  0  0  0
 13 14  2  0  0  0
 13 17  1  0  0  0
 14 15  1  0  0  0
 14 62  1  0  0  0
 15 16  2  0  0  0
 15 63  1  0  0  0
 16 64  1  0  0  0
 17 18  2  0  0  0
 17 19  1  0  0  0
 19 20  1  0  0  0
 19 65  1  0  0  0
 20 41  1  0  0  0
 20 21  1  0  0  0
 20 22  1  0  0  0
 21 66  1  0  0  0
 21 67  1  0  0  0
 22 42  1  0  0  0
 22 23  1  0  0  0
 22 24  1  0  0  0
 23 68  1  0  0  0
 24 25  1  0  0  0
 24 69  1  0  0  0
 24 70  1  0  0  0
 25 26  1  0  0  0
 25 71  1  0  0  0
 25 89  1  0  0  0
 26 29  1  0  0  0
 26 27  1  0  0  0
 26 30  1  0  0  0
 27 28  1  0  0  0
 27 72  1  0  0  0
 27 73  1  0  0  0
 28 29  1  0  0  0
 29 74  1  0  0  0
 29 75  1  0  0  0
 30 35  1  0  0  0
 30 31  2  0  0  0
 31 32  1  0  0  0
 31 76  1  0  0  0
 32 33  2  0  0  0
 32 36  1  0  0  0
 33 34  1  0  0  0
 33 77  1  0  0  0
 34 35  2  0  0  0
 34 78  1  0  0  0
 35 79  1  0  0  0
 36 37  1  0  0  0
 36 38  1  0  0  0
 36 39  1  0  0  0
 37 80  1  0  0  0
 37 81  1  0  0  0
 37 82  1  0  0  0
 38 83  1  0  0  0
 38 84  1  0  0  0
 38 85  1  0  0  0
 39 86  1  0  0  0
 39 87  1  0  0  0
 39 88  1  0  0  0
M  CHG  1  25   1
M  END
> <s_m_source_file>
BACE_56.smi

> <i_m_source_file_index>
1

> <i_lp_mmshare_version>
42013

> <i_f3d_flags>
0

> <s_epik_input>
W05IXTFbQ0gyXVtDSDJdW0NIMl1bQ0gyXVtDSDJdW0NIMl1bQ0gyXVtDQEBIXShbQ0gzXSlbQ0gyXVtDQEhdKFtOSF1DKD1PKWMoW2NIXWMxMilbY0hdW2NIXVtjSF0yKVtDQEhdKFtPSF0pW0NIMl1bTkhdQzMoW0NIMl1PW0NIMl0zKWM0W2NIXWMoQyhbQ0gzXSkoW0NIM10pW0NIM10pW2NIXVtjSF1bY0hdNA==

> <s_epik_cmdline>
J2VwaWtfcHl0aG9uJywgJy1waCcsICc3LjAnLCAnLXRuJywgJzgnLCAnLW1hJywgJzIwMCcsICctaW1hZScsICc8aW5maWxlLm1hZT4nLCAnLW9tYWUnLCAnPG91dGZpbGUubWFlPic=

> <r_epik_Ionization_Penalty>
  0.2027

> <r_epik_Ionization_Penalty_Charging>
  0.2020

> <r_epik_Ionization_Penalty_Neutral>
  0.0007

> <r_epik_State_Penalty>
  0.1919

> <r_epik_Charging_Adjusted_Penalty>
0.393931

> <i_epik_Tot_Q>
1

> <i_epik_Tot_abs_Q>
1

> <s_lp_Force_Field>
OPLS_2005

> <r_lp_Energy>
47.8303

> <b_lp_Chiralities_Consistent>
1

> <s_lp_Variant>
BACE_56.smi:1-1

> <chiral flag>
1

> <version>
0

> <s_i_glide_gridfile>
second_dock_grid_2

> <i_i_glide_lignum>
108

> <i_i_glide_rotatable_bonds>
7

> <r_i_docking_score>
-1.8395

> <r_i_glide_ligand_efficiency>
-0.0471667

> <r_i_glide_ligand_efficiency_sa>
-0.159952

> <r_i_glide_ligand_efficiency_ln>
-0.394441

> <r_glide_XP_GScore>
-2.0314

> <r_i_glide_gscore>
-2.0314

> <r_i_glide_evdw>
-37.5927

> <r_i_glide_ecoul>
-10.1176

> <r_i_glide_energy>
-47.7103

> <r_i_glide_einternal>
7.03498

> <r_i_glide_emodel>
-59.5246

> <r_glide_XP_HBond>
-0.96

> <i_i_glide_confnum>
1

> <i_i_glide_posenum>
9

> <r_i_glide_eff_state_penalty>
0.1919

> <i_glide_XP_PoseRank>
1

$$$$
BACE_56.smi:1
                    3D
 Structure written by MMmdl.
 88 91  0  0  1  0            999 V2000
   21.6602   39.3896  -10.1429 C   0  0  0  0  0  0
   20.5077   40.3448   -9.7865 C   0  0  2  0  0  0
   19.1807   39.5933   -9.5588 C   0  0  0  0  0  0
   19.2089   38.5837   -8.3949 C   0  0  0  0  0  0
   17.8222   38.0031   -8.0895 C   0  0  0  0  0  0
   16.9355   38.9489   -7.2563 C   0  0  0  0  0  0
   15.4320   38.6558   -7.4021 C   0  0  0  0  0  0
   14.7126   39.5484   -8.4112 C   0  0  0  0  0  0
   15.1596   39.3357   -9.8640 C   0  0  0  0  0  0
   14.4616   40.2413  -10.7588 N   0  0  0  0  0  0
   14.9655   41.5444  -10.7101 C   0  0  0  0  0  0
   16.2399   41.8454  -11.2401 C   0  0  0  0  0  0
   16.6758   43.1863  -11.3106 C   0  0  0  0  0  0
   15.8849   44.2076  -10.7445 C   0  0  0  0  0  0
   14.6539   43.8957  -10.1377 C   0  0  0  0  0  0
   14.1834   42.5701  -10.1445 C   0  0  0  0  0  0
   17.8531   43.5563  -12.1566 C   0  0  0  0  0  0
   17.6585   44.1012  -13.2399 O   0  0  0  0  0  0
   19.0980   43.2815  -11.7555 N   0  0  0  0  0  0
   19.6477   42.7345  -10.5192 C   0  0  1  0  0  0
   20.3592   41.4072  -10.9005 C   0  0  0  0  0  0
   20.5989   43.8380   -9.9528 C   0  0  2  0  0  0
   21.4175   44.3281  -11.0055 O   0  0  0  0  0  0
   21.5816   43.4198   -8.8417 C   0  0  0  0  0  0
   20.9930   43.2346   -7.5035 N   0  0  0  0  0  0
   20.7283   44.4319   -6.6739 C   0  0  0  0  0  0
   19.9256   44.1932   -5.3841 C   0  0  0  0  0  0
   19.0928   45.3499   -5.6401 O   0  0  0  0  0  0
   19.4728   45.2517   -7.0317 C   0  0  0  0  0  0
   22.0117   45.2569   -6.3909 C   0  0  0  0  0  0
   23.3099   44.7113   -6.5679 C   0  0  0  0  0  0
   24.4810   45.4984   -6.4444 C   0  0  0  0  0  0
   24.3425   46.8240   -5.9690 C   0  0  0  0  0  0
   23.0713   47.3577   -5.6964 C   0  0  0  0  0  0
   21.9166   46.5900   -5.9245 C   0  0  0  0  0  0
   25.8619   44.9195   -6.8166 C   0  0  0  0  0  0
   26.4572   44.2304   -5.5831 C   0  0  0  0  0  0
   25.7637   43.8864   -7.9652 C   0  0  0  0  0  0
   26.8422   46.0160   -7.2930 C   0  0  0  0  0  0
   20.7699   40.8294   -8.8508 H   0  0  0  0  0  0
   18.8493   42.5407   -9.8018 H   0  0  0  0  0  0
   19.9983   44.6850   -9.6233 H   0  0  0  0  0  0
   21.4592   38.8693  -11.0774 H   0  0  0  0  0  0
   21.8355   38.6424   -9.3702 H   0  0  0  0  0  0
   22.5978   39.9311  -10.2685 H   0  0  0  0  0  0
   18.8876   39.0783  -10.4746 H   0  0  0  0  0  0
   18.3979   40.3270   -9.3689 H   0  0  0  0  0  0
   19.6224   39.0437   -7.4970 H   0  0  0  0  0  0
   19.8728   37.7583   -8.6537 H   0  0  0  0  0  0
   17.9322   37.0667   -7.5420 H   0  0  0  0  0  0
   17.3358   37.7321   -9.0259 H   0  0  0  0  0  0
   17.1252   39.9953   -7.4993 H   0  0  0  0  0  0
   17.2186   38.8412   -6.2075 H   0  0  0  0  0  0
   14.9524   38.8190   -6.4400 H   0  0  0  0  0  0
   15.2601   37.6093   -7.6411 H   0  0  0  0  0  0
   14.8488   40.5882   -8.1116 H   0  0  0  0  0  0
   13.6447   39.3497   -8.3408 H   0  0  0  0  0  0
   16.2356   39.4738   -9.9603 H   0  0  0  0  0  0
   14.9492   38.3091  -10.1645 H   0  0  0  0  0  0
   13.4550   40.1658  -10.6241 H   0  0  0  0  0  0
   16.8278   41.0614  -11.6985 H   0  0  0  0  0  0
   16.2079   45.2372  -10.8036 H   0  0  0  0  0  0
   14.0522   44.6774   -9.7000 H   0  0  0  0  0  0
   13.2232   42.3371   -9.7064 H   0  0  0  0  0  0
   19.8252   43.6091  -12.3756 H   0  0  0  0  0  0
   21.3396   41.6517  -11.3129 H   0  0  0  0  0  0
   19.8280   40.9324  -11.7282 H   0  0  0  0  0  0
   21.9610   45.0245  -10.6670 H   0  0  0  0  0  0
   22.3672   44.1711   -8.8016 H   0  0  0  0  0  0
   22.1058   42.5135   -9.1408 H   0  0  0  0  0  0
   21.5382   42.5692   -6.9627 H   0  0  0  0  0  0
   19.3376   43.2728   -5.3961 H   0  0  0  0  0  0
   20.5080   44.2678   -4.4652 H   0  0  0  0  0  0
   18.7276   44.6911   -7.6009 H   0  0  0  0  0  0
   19.6743   46.2116   -7.5080 H   0  0  0  0  0  0
   23.4069   43.6789   -6.8566 H   0  0  0  0  0  0
   25.2037   47.4535   -5.8061 H   0  0  0  0  0  0
   22.9778   48.3697   -5.3299 H   0  0  0  0  0  0
   20.9565   47.0413   -5.7260 H   0  0  0  0  0  0
   26.6357   44.9517   -4.7861 H   0  0  0  0  0  0
   27.4096   43.7506   -5.8114 H   0  0  0  0  0  0
   25.7761   43.4704   -5.1958 H   0  0  0  0  0  0
   25.2410   44.3013   -8.8277 H   0  0  0  0  0  0
   25.2546   42.9687   -7.6703 H   0  0  0  0  0  0
   26.7531   43.5826   -8.3081 H   0  0  0  0  0  0
   26.4311   46.5774   -8.1315 H   0  0  0  0  0  0
   27.7883   45.5852   -7.6216 H   0  0  0  0  0  0
   27.0927   46.7238   -6.5037 H   0  0  0  0  0  0
  1  2  1  0  0  0
  1 43  1  0  0  0
  1 44  1  0  0  0
  1 45  1  0  0  0
  2 40  1  0  0  0
  2 21  1  0  0  0
  2  3  1  0  0  0
  3  4  1  0  0  0
  3 46  1  0  0  0
  3 47  1  0  0  0
  4  5  1  0  0  0
  4 48  1  0  0  0
  4 49  1  0  0  0
  5  6  1  0  0  0
  5 50  1  0  0  0
  5 51  1  0  0  0
  6  7  1  0  0  0
  6 52  1  0  0  0
  6 53  1  0  0  0
  7  8  1  0  0  0
  7 54  1  0  0  0
  7 55  1  0  0  0
  8  9  1  0  0  0
  8 56  1  0  0  0
  8 57  1  0  0  0
  9 10  1  0  0  0
  9 58  1  0  0  0
  9 59  1  0  0  0
 10 11  1  0  0  0
 10 60  1  0  0  0
 11 16  1  0  0  0
 11 12  2  0  0  0
 12 13  1  0  0  0
 12 61  1  0  0  0
 13 14  2  0  0  0
 13 17  1  0  0  0
 14 15  1  0  0  0
 14 62  1  0  0  0
 15 16  2  0  0  0
 15 63  1  0  0  0
 16 64  1  0  0  0
 17 18  2  0  0  0
 17 19  1  0  0  0
 19 20  1  0  0  0
 19 65  1  0  0  0
 20 41  1  0  0  0
 20 21  1  0  0  0
 20 22  1  0  0  0
 21 66  1  0  0  0
 21 67  1  0  0  0
 22 42  1  0  0  0
 22 23  1  0  0  0
 22 24  1  0  0  0
 23 68  1  0  0  0
 24 25  1  0  0  0
 24 69  1  0  0  0
 24 70  1  0  0  0
 25 26  1  0  0  0
 25 71  1  0  0  0
 26 29  1  0  0  0
 26 27  1  0  0  0
 26 30  1  0  0  0
 27 28  1  0  0  0
 27 72  1  0  0  0
 27 73  1  0  0  0
 28 29  1  0  0  0
 29 74  1  0  0  0
 29 75  1  0  0  0
 30 35  1  0  0  0
 30 31  2  0  0  0
 31 32  1  0  0  0
 31 76  1  0  0  0
 32 33  2  0  0  0
 32 36  1  0  0  0
 33 34  1  0  0  0
 33 77  1  0  0  0
 34 35  2  0  0  0
 34 78  1  0  0  0
 35 79  1  0  0  0
 36 37  1  0  0  0
 36 38  1  0  0  0
 36 39  1  0  0  0
 37 80  1  0  0  0
 37 81  1  0  0  0
 37 82  1  0  0  0
 38 83  1  0  0  0
 38 84  1  0  0  0
 38 85  1  0  0  0
 39 86  1  0  0  0
 39 87  1  0  0  0
 39 88  1  0  0  0
M  END
> <s_m_source_file>
BACE_56.smi

> <i_m_source_file_index>
1

> <i_lp_mmshare_version>
42013

> <i_f3d_flags>
0

> <s_epik_input>
W05IXTFbQ0gyXVtDSDJdW0NIMl1bQ0gyXVtDSDJdW0NIMl1bQ0gyXVtDQEBIXShbQ0gzXSlbQ0gyXVtDQEhdKFtOSF1DKD1PKWMoW2NIXWMxMilbY0hdW2NIXVtjSF0yKVtDQEhdKFtPSF0pW0NIMl1bTkhdQzMoW0NIMl1PW0NIMl0zKWM0W2NIXWMoQyhbQ0gzXSkoW0NIM10pW0NIM10pW2NIXVtjSF1bY0hdNA==

> <s_epik_cmdline>
J2VwaWtfcHl0aG9uJywgJy1waCcsICc3LjAnLCAnLXRuJywgJzgnLCAnLW1hJywgJzIwMCcsICctaW1hZScsICc8aW5maWxlLm1hZT4nLCAnLW9tYWUnLCAnPG91dGZpbGUubWFlPic=

> <r_epik_Ionization_Penalty>
  0.7364

> <r_epik_Ionization_Penalty_Charging>
  0.0000

> <r_epik_Ionization_Penalty_Neutral>
  0.7364

> <r_epik_State_Penalty>
  0.7613

> <r_epik_Charging_Adjusted_Penalty>
0.761291

> <i_epik_Tot_Q>
0

> <i_epik_Tot_abs_Q>
0

> <s_lp_Force_Field>
OPLS_2005

> <r_lp_Energy>
57.7949

> <b_lp_Chiralities_Consistent>
1

> <s_lp_Variant>
BACE_56.smi:1-2

> <chiral flag>
1

> <version>
0

> <s_i_glide_gridfile>
second_dock_grid_2

> <i_i_glide_lignum>
109

> <i_i_glide_rotatable_bonds>
7

> <r_i_docking_score>
-2.66149

> <r_i_glide_ligand_efficiency>
-0.0682434

> <r_i_glide_ligand_efficiency_sa>
-0.231428

> <r_i_glide_ligand_efficiency_ln>
-0.570699

> <r_glide_XP_GScore>
-3.42279

> <r_i_glide_gscore>
-3.42279

> <r_i_glide_evdw>
-37.0241

> <r_i_glide_ecoul>
-12.2952

> <r_i_glide_energy>
-49.3193

> <r_i_glide_einternal>
7.72206

> <r_i_glide_emodel>
-63.0057

> <r_glide_XP_HBond>
-1.55303

> <i_i_glide_confnum>
1

> <i_i_glide_posenum>
16

> <r_i_glide_eff_state_penalty>
0.7613

> <i_glide_XP_PoseRank>
1

$$$$
BACE_57.smi:1
                    3D
 Structure written by MMmdl.
 89 91  0  0  1  0            999 V2000
   21.5174   38.8917   -9.9552 C   0  0  0  0  0  0
   21.3106   39.9388   -8.8420 C   0  0  2  0  0  0
   19.8282   40.2381   -8.5421 C   0  0  0  0  0  0
   18.8992   39.0354   -8.3000 C   0  0  0  0  0  0
   17.4422   39.5182   -8.2807 C   0  0  0  0  0  0
   16.3874   38.4325   -8.5330 C   0  0  0  0  0  0
   14.9786   39.0039   -8.8021 C   0  0  0  0  0  0
   14.8896   39.9163  -10.0469 C   0  0  0  0  0  0
   15.0023   41.4190   -9.7192 C   0  0  0  0  0  0
   15.1733   42.2483  -10.9044 N   0  0  0  0  0  0
   16.4557   42.7875  -11.0805 C   0  0  0  0  0  0
   17.5742   41.9755  -11.3822 C   0  0  0  0  0  0
   18.8525   42.5505  -11.5847 C   0  0  0  0  0  0
   18.9994   43.9510  -11.4760 C   0  0  0  0  0  0
   17.8912   44.7616  -11.1672 C   0  0  0  0  0  0
   16.6233   44.1823  -10.9803 C   0  0  0  0  0  0
   20.0021   41.6871  -12.0338 C   0  0  0  0  0  0
   19.8499   40.9471  -13.0028 O   0  0  0  0  0  0
   21.1812   41.7255  -11.3765 N   0  0  0  0  0  0
   21.5119   42.3046  -10.0710 C   0  0  1  0  0  0
   22.1165   41.2432   -9.0979 C   0  0  0  0  0  0
   22.4007   43.5657  -10.2646 C   0  0  2  0  0  0
   21.6041   44.6883  -10.5875 O   0  0  0  0  0  0
   23.4559   43.4161  -11.3781 C   0  0  0  0  0  0
   24.2523   42.1812  -11.1919 N   0  3  0  0  0  0
   25.5623   42.2808  -10.4954 C   0  0  0  0  0  0
   25.4512   43.2040   -9.2606 C   0  0  0  0  0  0
   26.0636   40.8912  -10.0492 C   0  0  0  0  0  0
   26.5367   42.8700  -11.4984 C   0  0  0  0  0  0
   27.7176   42.2970  -12.0531 C   0  0  0  0  0  0
   28.2292   43.2873  -12.8418 C   0  0  0  0  0  0
   29.4614   43.3786  -13.6859 C   0  0  0  0  0  0
   30.7524   42.7820  -13.0610 C   0  0  0  0  0  0
   30.3812   41.7661  -11.9631 C   0  0  0  0  0  0
   31.5672   43.9207  -12.4180 C   0  0  0  0  0  0
   31.6348   42.0850  -14.1191 C   0  0  0  0  0  0
   27.4337   44.3845  -12.7884 O   0  0  0  0  0  0
   26.3645   44.1126  -11.9299 N   0  0  0  0  0  0
   21.7336   39.4933   -7.9405 H   0  0  0  0  0  0
   20.5841   42.6452   -9.6159 H   0  0  0  0  0  0
   22.9172   43.8074   -9.3361 H   0  0  0  0  0  0
   20.9547   39.1274  -10.8568 H   0  0  0  0  0  0
   21.2008   37.9016   -9.6271 H   0  0  0  0  0  0
   22.5691   38.8072  -10.2297 H   0  0  0  0  0  0
   19.7617   40.9174   -7.6914 H   0  0  0  0  0  0
   19.4210   40.7823   -9.3888 H   0  0  0  0  0  0
   19.0121   38.3141   -9.1085 H   0  0  0  0  0  0
   19.1533   38.5189   -7.3741 H   0  0  0  0  0  0
   17.2287   40.0541   -7.3552 H   0  0  0  0  0  0
   17.3535   40.2432   -9.0826 H   0  0  0  0  0  0
   16.6858   37.8261   -9.3890 H   0  0  0  0  0  0
   16.3525   37.7556   -7.6788 H   0  0  0  0  0  0
   14.3038   38.1596   -8.9473 H   0  0  0  0  0  0
   14.6066   39.5283   -7.9210 H   0  0  0  0  0  0
   15.6463   39.6178  -10.7726 H   0  0  0  0  0  0
   13.9317   39.7507  -10.5413 H   0  0  0  0  0  0
   14.0868   41.7392   -9.2211 H   0  0  0  0  0  0
   15.7994   41.6248   -9.0069 H   0  0  0  0  0  0
   14.4337   42.9289  -11.0050 H   0  0  0  0  0  0
   17.4470   40.9083  -11.4914 H   0  0  0  0  0  0
   19.9508   44.4207  -11.6671 H   0  0  0  0  0  0
   18.0077   45.8330  -11.0981 H   0  0  0  0  0  0
   15.7757   44.8147  -10.7627 H   0  0  0  0  0  0
   21.9107   41.1525  -11.7759 H   0  0  0  0  0  0
   22.2595   41.7240   -8.1303 H   0  0  0  0  0  0
   23.1187   40.9646   -9.4239 H   0  0  0  0  0  0
   20.9907   44.8364   -9.8833 H   0  0  0  0  0  0
   22.9688   43.4211  -12.3515 H   0  0  0  0  0  0
   24.1261   44.2757  -11.3543 H   0  0  0  0  0  0
   23.6867   41.5199  -10.6788 H   0  0  0  0  0  0
   26.4258   43.3597   -8.7961 H   0  0  0  0  0  0
   24.8087   42.7834   -8.4873 H   0  0  0  0  0  0
   25.0516   44.1835   -9.5269 H   0  0  0  0  0  0
   27.0685   40.9555   -9.6298 H   0  0  0  0  0  0
   26.1029   40.1901  -10.8838 H   0  0  0  0  0  0
   25.4259   40.4532   -9.2812 H   0  0  0  0  0  0
   28.1409   41.3171  -11.8886 H   0  0  0  0  0  0
   29.2493   42.8561  -14.6196 H   0  0  0  0  0  0
   29.6292   44.4168  -13.9758 H   0  0  0  0  0  0
   31.2712   41.3278  -11.5101 H   0  0  0  0  0  0
   29.7814   40.9475  -12.3591 H   0  0  0  0  0  0
   29.8044   42.2347  -11.1651 H   0  0  0  0  0  0
   30.9847   44.4458  -11.6598 H   0  0  0  0  0  0
   31.8805   44.6562  -13.1600 H   0  0  0  0  0  0
   32.4685   43.5420  -11.9345 H   0  0  0  0  0  0
   32.5749   41.7463  -13.6838 H   0  0  0  0  0  0
   31.8797   42.7613  -14.9388 H   0  0  0  0  0  0
   31.1484   41.2085  -14.5477 H   0  0  0  0  0  0
   24.4302   41.7914  -12.1065 H   0  0  0  0  0  0
  1  2  1  0  0  0
  1 42  1  0  0  0
  1 43  1  0  0  0
  1 44  1  0  0  0
  2 39  1  0  0  0
  2 21  1  0  0  0
  2  3  1  0  0  0
  3  4  1  0  0  0
  3 45  1  0  0  0
  3 46  1  0  0  0
  4  5  1  0  0  0
  4 47  1  0  0  0
  4 48  1  0  0  0
  5  6  1  0  0  0
  5 49  1  0  0  0
  5 50  1  0  0  0
  6  7  1  0  0  0
  6 51  1  0  0  0
  6 52  1  0  0  0
  7  8  1  0  0  0
  7 53  1  0  0  0
  7 54  1  0  0  0
  8  9  1  0  0  0
  8 55  1  0  0  0
  8 56  1  0  0  0
  9 10  1  0  0  0
  9 57  1  0  0  0
  9 58  1  0  0  0
 10 11  1  0  0  0
 10 59  1  0  0  0
 11 16  1  0  0  0
 11 12  2  0  0  0
 12 13  1  0  0  0
 12 60  1  0  0  0
 13 14  2  0  0  0
 13 17  1  0  0  0
 14 15  1  0  0  0
 14 61  1  0  0  0
 15 16  2  0  0  0
 15 62  1  0  0  0
 16 63  1  0  0  0
 17 18  2  0  0  0
 17 19  1  0  0  0
 19 20  1  0  0  0
 19 64  1  0  0  0
 20 40  1  0  0  0
 20 21  1  0  0  0
 20 22  1  0  0  0
 21 65  1  0  0  0
 21 66  1  0  0  0
 22 41  1  0  0  0
 22 23  1  0  0  0
 22 24  1  0  0  0
 23 67  1  0  0  0
 24 25  1  0  0  0
 24 68  1  0  0  0
 24 69  1  0  0  0
 25 26  1  0  0  0
 25 70  1  0  0  0
 25 89  1  0  0  0
 26 27  1  0  0  0
 26 28  1  0  0  0
 26 29  1  0  0  0
 27 71  1  0  0  0
 27 72  1  0  0  0
 27 73  1  0  0  0
 28 74  1  0  0  0
 28 75  1  0  0  0
 28 76  1  0  0  0
 29 38  2  0  0  0
 29 30  1  0  0  0
 30 31  2  0  0  0
 30 77  1  0  0  0
 31 32  1  0  0  0
 31 37  1  0  0  0
 32 33  1  0  0  0
 32 78  1  0  0  0
 32 79  1  0  0  0
 33 34  1  0  0  0
 33 35  1  0  0  0
 33 36  1  0  0  0
 34 80  1  0  0  0
 34 81  1  0  0  0
 34 82  1  0  0  0
 35 83  1  0  0  0
 35 84  1  0  0  0
 35 85  1  0  0  0
 36 86  1  0  0  0
 36 87  1  0  0  0
 36 88  1  0  0  0
 37 38  1  0  0  0
M  CHG  1  25   1
M  END
> <s_m_source_file>
BACE_57.smi

> <i_m_source_file_index>
1

> <i_lp_mmshare_version>
42013

> <i_f3d_flags>
0

> <s_epik_input>
W05IXTFbQ0gyXVtDSDJdW0NIMl1bQ0gyXVtDSDJdW0NIMl1bQ0gyXVtDQEBIXShbQ0gzXSlbQ0gyXVtDQEhdKFtOSF1DKD1PKWMoW2NIXWMxMilbY0hdW2NIXVtjSF0yKVtDQEhdKFtPSF0pW0NIMl1bTkhdQyhbQ0gzXSkoW0NIM10pYzNbY0hdYyhvbjMpW0NIMl1DKFtDSDNdKShbQ0gzXSlbQ0gzXQ==

> <s_epik_cmdline>
J2VwaWtfcHl0aG9uJywgJy1waCcsICc3LjAnLCAnLXRuJywgJzgnLCAnLW1hJywgJzIwMCcsICctaW1hZScsICc8aW5maWxlLm1hZT4nLCAnLW9tYWUnLCAnPG91dGZpbGUubWFlPic=

> <r_epik_Ionization_Penalty>
  0.2150

> <r_epik_Ionization_Penalty_Charging>
  0.2143

> <r_epik_Ionization_Penalty_Neutral>
  0.0007

> <r_epik_State_Penalty>
  0.2045

> <r_epik_Charging_Adjusted_Penalty>
0.418799

> <i_epik_Tot_Q>
1

> <i_epik_Tot_abs_Q>
1

> <s_lp_Force_Field>
OPLS_2005

> <r_lp_Energy>
40.582

> <b_lp_Chiralities_Consistent>
1

> <s_lp_Variant>
BACE_57.smi:1-1

> <chiral flag>
1

> <version>
0

> <s_i_glide_gridfile>
second_dock_grid_2

> <i_i_glide_lignum>
110

> <i_i_glide_rotatable_bonds>
8

> <r_i_docking_score>
-3.48282

> <r_i_glide_ligand_efficiency>
-0.0916532

> <r_i_glide_ligand_efficiency_sa>
-0.308136

> <r_i_glide_ligand_efficiency_ln>
-0.750998

> <r_glide_XP_GScore>
-3.68732

> <r_i_glide_gscore>
-3.68732

> <r_i_glide_evdw>
-36.738

> <r_i_glide_ecoul>
-12.5592

> <r_i_glide_energy>
-49.2973

> <r_i_glide_einternal>
6.53417

> <r_i_glide_emodel>
-69.8902

> <r_glide_XP_HBond>
-0.439331

> <i_i_glide_confnum>
1

> <i_i_glide_posenum>
8

> <r_i_glide_eff_state_penalty>
0.2045

> <i_glide_XP_PoseRank>
1

$$$$
BACE_57.smi:1
                    3D
 Structure written by MMmdl.
 88 90  0  0  1  0            999 V2000
   27.3079   42.5060  -11.8978 C   0  0  0  0  0  0
   26.4425   42.9082  -10.6929 C   0  0  2  0  0  0
   27.3186   43.2922   -9.4767 C   0  0  0  0  0  0
   28.1763   44.5702   -9.5911 C   0  0  0  0  0  0
   27.4372   45.8841   -9.9256 C   0  0  0  0  0  0
   26.1004   46.1263   -9.2008 C   0  0  0  0  0  0
   26.1395   46.0850   -7.6613 C   0  0  0  0  0  0
   24.7147   46.0163   -7.0901 C   0  0  0  0  0  0
   24.6413   45.5188   -5.6399 C   0  0  0  0  0  0
   23.2678   45.2324   -5.2435 N   0  0  0  0  0  0
   22.5734   44.1204   -5.7498 C   0  0  0  0  0  0
   23.2030   43.0560   -6.4450 C   0  0  0  0  0  0
   22.4445   41.9716   -6.9474 C   0  0  0  0  0  0
   21.0540   41.9405   -6.7086 C   0  0  0  0  0  0
   20.4245   42.9888   -6.0163 C   0  0  0  0  0  0
   21.1809   44.0747   -5.5432 C   0  0  0  0  0  0
   23.0775   40.7957   -7.6403 C   0  0  0  0  0  0
   22.8593   39.6680   -7.2093 O   0  0  0  0  0  0
   23.7898   40.9546   -8.7722 N   0  0  0  0  0  0
   24.2494   42.1654   -9.4589 C   0  0  1  0  0  0
   25.4710   41.7601  -10.3259 C   0  0  0  0  0  0
   23.1533   42.9068  -10.3002 C   0  0  2  0  0  0
   22.9714   44.1904   -9.7430 O   0  0  0  0  0  0
   21.7504   42.2661  -10.4003 C   0  0  0  0  0  0
   21.6600   41.3049  -11.4976 N   0  0  0  0  0  0
   20.7842   40.1470  -11.2763 C   0  0  0  0  0  0
   20.7066   39.3871  -12.5938 C   0  0  0  0  0  0
   21.4110   39.1755  -10.2521 C   0  0  0  0  0  0
   19.3768   40.5272  -10.8301 C   0  0  0  0  0  0
   18.7597   40.2354   -9.5802 C   0  0  0  0  0  0
   17.5120   40.7696   -9.6825 C   0  0  0  0  0  0
   16.3576   40.7937   -8.7287 C   0  0  0  0  0  0
   15.4830   39.5063   -8.6592 C   0  0  0  0  0  0
   14.9284   39.3572   -7.2262 C   0  0  0  0  0  0
   16.2710   38.2207   -9.0010 C   0  0  0  0  0  0
   14.3036   39.6333   -9.6409 C   0  0  0  0  0  0
   17.3606   41.3616  -10.8982 O   0  0  0  0  0  0
   18.5625   41.2309  -11.6108 N   0  0  0  0  0  0
   25.8486   43.7668  -11.0029 H   0  0  0  0  0  0
   24.6198   42.8391   -8.6919 H   0  0  0  0  0  0
   23.5210   43.0879  -11.3113 H   0  0  0  0  0  0
   27.9061   41.6206  -11.6815 H   0  0  0  0  0  0
   27.9876   43.3066  -12.1904 H   0  0  0  0  0  0
   26.6869   42.2850  -12.7652 H   0  0  0  0  0  0
   26.6939   43.3871   -8.5930 H   0  0  0  0  0  0
   27.9844   42.4593   -9.2498 H   0  0  0  0  0  0
   28.6965   44.7042   -8.6417 H   0  0  0  0  0  0
   28.9657   44.4153  -10.3262 H   0  0  0  0  0  0
   28.1090   46.7206   -9.7340 H   0  0  0  0  0  0
   27.2439   45.9067  -10.9982 H   0  0  0  0  0  0
   25.6983   47.0889   -9.5158 H   0  0  0  0  0  0
   25.3846   45.3890   -9.5587 H   0  0  0  0  0  0
   26.6939   45.2105   -7.3238 H   0  0  0  0  0  0
   26.6739   46.9495   -7.2658 H   0  0  0  0  0  0
   24.2310   46.9880   -7.1830 H   0  0  0  0  0  0
   24.1310   45.3372   -7.7068 H   0  0  0  0  0  0
   25.2595   44.6325   -5.4934 H   0  0  0  0  0  0
   25.0461   46.2776   -4.9697 H   0  0  0  0  0  0
   22.7314   45.9840   -4.8398 H   0  0  0  0  0  0
   24.2721   43.0524   -6.5783 H   0  0  0  0  0  0
   20.4609   41.1046   -7.0522 H   0  0  0  0  0  0
   19.3598   42.9495   -5.8406 H   0  0  0  0  0  0
   20.6838   44.8693   -5.0064 H   0  0  0  0  0  0
   24.1136   40.0840   -9.1777 H   0  0  0  0  0  0
   25.0999   41.2893  -11.2354 H   0  0  0  0  0  0
   26.0483   40.9814   -9.8226 H   0  0  0  0  0  0
   22.3549   44.6628  -10.2800 H   0  0  0  0  0  0
   21.4376   41.8343   -9.4550 H   0  0  0  0  0  0
   21.0091   43.0430  -10.5936 H   0  0  0  0  0  0
   22.5880   40.9818  -11.7697 H   0  0  0  0  0  0
   20.0604   38.5314  -12.4401 H   0  0  0  0  0  0
   21.6742   39.0267  -12.9352 H   0  0  0  0  0  0
   20.2843   40.0035  -13.3862 H   0  0  0  0  0  0
   20.8844   38.2206  -10.2340 H   0  0  0  0  0  0
   21.3490   39.5656   -9.2448 H   0  0  0  0  0  0
   22.4597   38.9639  -10.4533 H   0  0  0  0  0  0
   19.1525   39.6960   -8.7325 H   0  0  0  0  0  0
   16.7787   40.9800   -7.7384 H   0  0  0  0  0  0
   15.7327   41.6646   -8.9256 H   0  0  0  0  0  0
   14.2233   38.5294   -7.1496 H   0  0  0  0  0  0
   14.4155   40.2586   -6.8958 H   0  0  0  0  0  0
   15.7239   39.1606   -6.5065 H   0  0  0  0  0  0
   17.1369   38.1017   -8.3481 H   0  0  0  0  0  0
   16.6253   38.2148  -10.0322 H   0  0  0  0  0  0
   15.6565   37.3310   -8.8710 H   0  0  0  0  0  0
   13.6597   38.7548   -9.5959 H   0  0  0  0  0  0
   14.6499   39.7393  -10.6695 H   0  0  0  0  0  0
   13.6769   40.4963   -9.4114 H   0  0  0  0  0  0
  1  2  1  0  0  0
  1 42  1  0  0  0
  1 43  1  0  0  0
  1 44  1  0  0  0
  2 39  1  0  0  0
  2 21  1  0  0  0
  2  3  1  0  0  0
  3  4  1  0  0  0
  3 45  1  0  0  0
  3 46  1  0  0  0
  4  5  1  0  0  0
  4 47  1  0  0  0
  4 48  1  0  0  0
  5  6  1  0  0  0
  5 49  1  0  0  0
  5 50  1  0  0  0
  6  7  1  0  0  0
  6 51  1  0  0  0
  6 52  1  0  0  0
  7  8  1  0  0  0
  7 53  1  0  0  0
  7 54  1  0  0  0
  8  9  1  0  0  0
  8 55  1  0  0  0
  8 56  1  0  0  0
  9 10  1  0  0  0
  9 57  1  0  0  0
  9 58  1  0  0  0
 10 11  1  0  0  0
 10 59  1  0  0  0
 11 16  1  0  0  0
 11 12  2  0  0  0
 12 13  1  0  0  0
 12 60  1  0  0  0
 13 14  2  0  0  0
 13 17  1  0  0  0
 14 15  1  0  0  0
 14 61  1  0  0  0
 15 16  2  0  0  0
 15 62  1  0  0  0
 16 63  1  0  0  0
 17 18  2  0  0  0
 17 19  1  0  0  0
 19 20  1  0  0  0
 19 64  1  0  0  0
 20 40  1  0  0  0
 20 21  1  0  0  0
 20 22  1  0  0  0
 21 65  1  0  0  0
 21 66  1  0  0  0
 22 41  1  0  0  0
 22 23  1  0  0  0
 22 24  1  0  0  0
 23 67  1  0  0  0
 24 25  1  0  0  0
 24 68  1  0  0  0
 24 69  1  0  0  0
 25 26  1  0  0  0
 25 70  1  0  0  0
 26 27  1  0  0  0
 26 28  1  0  0  0
 26 29  1  0  0  0
 27 71  1  0  0  0
 27 72  1  0  0  0
 27 73  1  0  0  0
 28 74  1  0  0  0
 28 75  1  0  0  0
 28 76  1  0  0  0
 29 38  2  0  0  0
 29 30  1  0  0  0
 30 31  2  0  0  0
 30 77  1  0  0  0
 31 32  1  0  0  0
 31 37  1  0  0  0
 32 33  1  0  0  0
 32 78  1  0  0  0
 32 79  1  0  0  0
 33 34  1  0  0  0
 33 35  1  0  0  0
 33 36  1  0  0  0
 34 80  1  0  0  0
 34 81  1  0  0  0
 34 82  1  0  0  0
 35 83  1  0  0  0
 35 84  1  0  0  0
 35 85  1  0  0  0
 36 86  1  0  0  0
 36 87  1  0  0  0
 36 88  1  0  0  0
 37 38  1  0  0  0
M  END
> <s_m_source_file>
BACE_57.smi

> <i_m_source_file_index>
1

> <i_lp_mmshare_version>
42013

> <i_f3d_flags>
0

> <s_epik_input>
W05IXTFbQ0gyXVtDSDJdW0NIMl1bQ0gyXVtDSDJdW0NIMl1bQ0gyXVtDQEBIXShbQ0gzXSlbQ0gyXVtDQEhdKFtOSF1DKD1PKWMoW2NIXWMxMilbY0hdW2NIXVtjSF0yKVtDQEhdKFtPSF0pW0NIMl1bTkhdQyhbQ0gzXSkoW0NIM10pYzNbY0hdYyhvbjMpW0NIMl1DKFtDSDNdKShbQ0gzXSlbQ0gzXQ==

> <s_epik_cmdline>
J2VwaWtfcHl0aG9uJywgJy1waCcsICc3LjAnLCAnLXRuJywgJzgnLCAnLW1hJywgJzIwMCcsICctaW1hZScsICc8aW5maWxlLm1hZT4nLCAnLW9tYWUnLCAnPG91dGZpbGUubWFlPic=

> <r_epik_Ionization_Penalty>
  0.7072

> <r_epik_Ionization_Penalty_Charging>
  0.0000

> <r_epik_Ionization_Penalty_Neutral>
  0.7072

> <r_epik_State_Penalty>
  0.7296

> <r_epik_Charging_Adjusted_Penalty>
0.729607

> <i_epik_Tot_Q>
0

> <i_epik_Tot_abs_Q>
0

> <s_lp_Force_Field>
OPLS_2005

> <r_lp_Energy>
43.6663

> <b_lp_Chiralities_Consistent>
1

> <s_lp_Variant>
BACE_57.smi:1-2

> <chiral flag>
1

> <version>
0

> <s_i_glide_gridfile>
second_dock_grid_2

> <i_i_glide_lignum>
111

> <i_i_glide_rotatable_bonds>
8

> <r_i_docking_score>
-2.88478

> <r_i_glide_ligand_efficiency>
-0.0759154

> <r_i_glide_ligand_efficiency_sa>
-0.255226

> <r_i_glide_ligand_efficiency_ln>
-0.622044

> <r_glide_XP_GScore>
-3.61438

> <r_i_glide_gscore>
-3.61438

> <r_i_glide_evdw>
-39.0507

> <r_i_glide_ecoul>
-5.7849

> <r_i_glide_energy>
-44.8356

> <r_i_glide_einternal>
8.6776

> <r_i_glide_emodel>
-61.1621

> <r_glide_XP_HBond>
-0.453938

> <i_i_glide_confnum>
1

> <i_i_glide_posenum>
6

> <r_i_glide_eff_state_penalty>
0.7296

> <i_glide_XP_PoseRank>
1

$$$$
BACE_58.smi:1
                    3D
 Structure written by MMmdl.
 81 83  0  0  1  0            999 V2000
   19.0760   47.3894   -6.4131 C   0  0  0  0  0  0
   19.5492   46.3777   -7.4724 C   0  0  2  0  0  0
   20.3620   47.0684   -8.5933 C   0  0  0  0  0  0
   21.6849   47.7570   -8.1890 C   0  0  0  0  0  0
   22.7497   46.8885   -7.4799 C   0  0  0  0  0  0
   22.9595   45.4660   -8.0307 C   0  0  0  0  0  0
   23.2956   45.3589   -9.5291 C   0  0  0  0  0  0
   23.0313   43.9375  -10.0489 C   0  0  0  0  0  0
   22.9484   43.8533  -11.5797 C   0  0  0  0  0  0
   22.4714   42.5500  -12.0241 N   0  0  0  0  0  0
   21.1561   42.1197  -11.8069 C   0  0  0  0  0  0
   20.1045   43.0085  -11.4755 C   0  0  0  0  0  0
   18.7777   42.5425  -11.3776 C   0  0  0  0  0  0
   18.5082   41.1870  -11.6404 C   0  0  0  0  0  0
   19.5568   40.2853  -11.9001 C   0  0  0  0  0  0
   20.8771   40.7537  -11.9965 C   0  0  0  0  0  0
   17.6332   43.4656  -11.0776 C   0  0  0  0  0  0
   16.6707   43.4946  -11.8460 O   0  0  0  0  0  0
   17.6457   44.2004   -9.9472 N   0  0  0  0  0  0
   18.6347   44.3073   -8.8625 C   0  0  1  0  0  0
   18.3352   45.6208   -8.0683 C   0  0  0  0  0  0
   18.6665   42.9958   -8.0159 C   0  0  2  0  0  0
   17.4857   42.9502   -7.2401 O   0  0  0  0  0  0
   19.9115   42.8634   -7.1061 C   0  0  0  0  0  0
   20.0602   41.5514   -6.4308 N   0  3  0  0  0  0
   20.3941   40.3794   -7.2660 C   0  0  0  0  0  0
   19.1784   39.5183   -7.4391 C   0  0  0  0  0  0
   18.2667   39.5320   -8.5273 C   0  0  0  0  0  0
   17.2734   38.6712   -8.1710 C   0  0  0  0  0  0
   17.6601   38.1502   -6.9578 N   0  0  0  0  0  0
   18.8200   38.6656   -6.4932 N   0  0  0  0  0  0
   15.9992   38.2954   -8.8728 C   0  0  0  0  0  0
   15.8078   39.1499  -10.1376 C   0  0  0  0  0  0
   14.7817   38.5506   -7.9641 C   0  0  0  0  0  0
   16.0606   36.8179   -9.3003 C   0  0  0  0  0  0
   20.1881   45.6679   -6.9570 H   0  0  0  0  0  0
   19.6095   44.4184   -9.3261 H   0  0  0  0  0  0
   18.6602   42.1530   -8.6977 H   0  0  0  0  0  0
   18.4570   48.1695   -6.8560 H   0  0  0  0  0  0
   19.9192   47.8704   -5.9167 H   0  0  0  0  0  0
   18.4873   46.8985   -5.6381 H   0  0  0  0  0  0
   20.5824   46.3508   -9.3814 H   0  0  0  0  0  0
   19.7287   47.8167   -9.0741 H   0  0  0  0  0  0
   22.1314   48.1701   -9.0936 H   0  0  0  0  0  0
   21.4677   48.6228   -7.5633 H   0  0  0  0  0  0
   23.7017   47.4210   -7.4920 H   0  0  0  0  0  0
   22.4772   46.8027   -6.4269 H   0  0  0  0  0  0
   23.7442   44.9712   -7.4560 H   0  0  0  0  0  0
   22.0568   44.8975   -7.8252 H   0  0  0  0  0  0
   22.6864   46.0545  -10.1029 H   0  0  0  0  0  0
   24.3310   45.6464   -9.7108 H   0  0  0  0  0  0
   23.7941   43.2544   -9.6749 H   0  0  0  0  0  0
   22.0881   43.5848   -9.6351 H   0  0  0  0  0  0
   22.3054   44.6343  -11.9851 H   0  0  0  0  0  0
   23.9362   44.0213  -12.0099 H   0  0  0  0  0  0
   23.1574   41.8753  -12.3639 H   0  0  0  0  0  0
   20.3004   44.0638  -11.3574 H   0  0  0  0  0  0
   17.4924   40.8275  -11.6144 H   0  0  0  0  0  0
   19.3402   39.2383  -12.0403 H   0  0  0  0  0  0
   21.6707   40.0626  -12.2406 H   0  0  0  0  0  0
   16.8092   44.7443   -9.7985 H   0  0  0  0  0  0
   17.6126   45.4160   -7.2784 H   0  0  0  0  0  0
   17.8152   46.3246   -8.7205 H   0  0  0  0  0  0
   17.4321   42.1504   -6.7275 H   0  0  0  0  0  0
   20.8154   43.0461   -7.6834 H   0  0  0  0  0  0
   19.8751   43.6161   -6.3203 H   0  0  0  0  0  0
   20.7962   41.6444   -5.7465 H   0  0  0  0  0  0
   20.8030   40.6862   -8.2300 H   0  0  0  0  0  0
   21.1778   39.8104   -6.7640 H   0  0  0  0  0  0
   18.3100   40.1203   -9.4200 H   0  0  0  0  0  0
   17.1001   37.4621   -6.4400 H   0  0  0  0  0  0
   14.8691   38.9276  -10.6439 H   0  0  0  0  0  0
   16.6159   38.9637  -10.8402 H   0  0  0  0  0  0
   15.8024   40.2152   -9.9018 H   0  0  0  0  0  0
   14.7143   39.6004   -7.6723 H   0  0  0  0  0  0
   14.8298   37.9691   -7.0443 H   0  0  0  0  0  0
   13.8479   38.2913   -8.4639 H   0  0  0  0  0  0
   15.1784   36.5302   -9.8725 H   0  0  0  0  0  0
   16.1365   36.1519   -8.4400 H   0  0  0  0  0  0
   16.9267   36.6300   -9.9364 H   0  0  0  0  0  0
   19.1998   41.3464   -5.9189 H   0  0  0  0  0  0
  1  2  1  0  0  0
  1 39  1  0  0  0
  1 40  1  0  0  0
  1 41  1  0  0  0
  2 36  1  0  0  0
  2 21  1  0  0  0
  2  3  1  0  0  0
  3  4  1  0  0  0
  3 42  1  0  0  0
  3 43  1  0  0  0
  4  5  1  0  0  0
  4 44  1  0  0  0
  4 45  1  0  0  0
  5  6  1  0  0  0
  5 46  1  0  0  0
  5 47  1  0  0  0
  6  7  1  0  0  0
  6 48  1  0  0  0
  6 49  1  0  0  0
  7  8  1  0  0  0
  7 50  1  0  0  0
  7 51  1  0  0  0
  8  9  1  0  0  0
  8 52  1  0  0  0
  8 53  1  0  0  0
  9 10  1  0  0  0
  9 54  1  0  0  0
  9 55  1  0  0  0
 10 11  1  0  0  0
 10 56  1  0  0  0
 11 16  1  0  0  0
 11 12  2  0  0  0
 12 13  1  0  0  0
 12 57  1  0  0  0
 13 14  2  0  0  0
 13 17  1  0  0  0
 14 15  1  0  0  0
 14 58  1  0  0  0
 15 16  2  0  0  0
 15 59  1  0  0  0
 16 60  1  0  0  0
 17 18  2  0  0  0
 17 19  1  0  0  0
 19 20  1  0  0  0
 19 61  1  0  0  0
 20 37  1  0  0  0
 20 21  1  0  0  0
 20 22  1  0  0  0
 21 62  1  0  0  0
 21 63  1  0  0  0
 22 38  1  0  0  0
 22 23  1  0  0  0
 22 24  1  0  0  0
 23 64  1  0  0  0
 24 25  1  0  0  0
 24 65  1  0  0  0
 24 66  1  0  0  0
 25 26  1  0  0  0
 25 67  1  0  0  0
 25 81  1  0  0  0
 26 27  1  0  0  0
 26 68  1  0  0  0
 26 69  1  0  0  0
 27 31  2  0  0  0
 27 28  1  0  0  0
 28 29  2  0  0  0
 28 70  1  0  0  0
 29 30  1  0  0  0
 29 32  1  0  0  0
 30 31  1  0  0  0
 30 71  1  0  0  0
 32 33  1  0  0  0
 32 34  1  0  0  0
 32 35  1  0  0  0
 33 72  1  0  0  0
 33 73  1  0  0  0
 33 74  1  0  0  0
 34 75  1  0  0  0
 34 76  1  0  0  0
 34 77  1  0  0  0
 35 78  1  0  0  0
 35 79  1  0  0  0
 35 80  1  0  0  0
M  CHG  1  25   1
M  END
> <s_m_source_file>
BACE_58.smi

> <i_m_source_file_index>
1

> <i_lp_mmshare_version>
42013

> <i_f3d_flags>
0

> <s_epik_input>
W05IXTFbQ0gyXVtDSDJdW0NIMl1bQ0gyXVtDSDJdW0NIMl1bQ0gyXVtDQEBIXShbQ0gzXSlbQ0gyXVtDQEhdKFtOSF1DKD1PKWMoW2NIXWMxMilbY0hdW2NIXVtjSF0yKVtDQEhdKFtPSF0pW0NIMl1bTkhdW0NIMl1jM1tjSF1jKFtuSF1uMylDKFtDSDNdKShbQ0gzXSlbQ0gzXQ==

> <s_epik_cmdline>
J2VwaWtfcHl0aG9uJywgJy1waCcsICc3LjAnLCAnLXRuJywgJzgnLCAnLW1hJywgJzIwMCcsICctaW1hZScsICc8aW5maWxlLm1hZT4nLCAnLW9tYWUnLCAnPG91dGZpbGUubWFlPic=

> <r_lp_tautomer_probability>
0.5

> <r_epik_Ionization_Penalty>
  0.0582

> <r_epik_Ionization_Penalty_Charging>
  0.0575

> <r_epik_Ionization_Penalty_Neutral>
  0.0007

> <r_epik_State_Penalty>
  0.4239

> <r_epik_Charging_Adjusted_Penalty>
0.48144

> <i_epik_Tot_Q>
1

> <i_epik_Tot_abs_Q>
1

> <s_lp_Force_Field>
OPLS_2005

> <r_lp_Energy>
32.8454

> <b_lp_Chiralities_Consistent>
1

> <s_lp_Variant>
BACE_58.smi:1-1

> <chiral flag>
1

> <version>
0

> <s_i_glide_gridfile>
second_dock_grid_2

> <i_i_glide_lignum>
112

> <i_i_glide_rotatable_bonds>
7

> <r_i_docking_score>
-5.22663

> <r_i_glide_ligand_efficiency>
-0.149332

> <r_i_glide_ligand_efficiency_sa>
-0.488476

> <r_i_glide_ligand_efficiency_ln>
-1.14736

> <r_glide_XP_GScore>
-5.65053

> <r_i_glide_gscore>
-5.65053

> <r_i_glide_evdw>
-30.1674

> <r_i_glide_ecoul>
-19.8596

> <r_i_glide_energy>
-50.027

> <r_i_glide_einternal>
8.60151

> <r_i_glide_emodel>
-67.3693

> <r_glide_XP_HBond>
-1.30608

> <i_i_glide_confnum>
1

> <i_i_glide_posenum>
4

> <r_i_glide_eff_state_penalty>
0.4239

> <i_glide_XP_PoseRank>
1

$$$$
BACE_58.smi:1
                    3D
 Structure written by MMmdl.
 81 83  0  0  1  0            999 V2000
   21.3898   38.0530   -9.1929 C   0  0  0  0  0  0
   20.8696   39.4924   -9.0968 C   0  0  2  0  0  0
   19.8866   39.6739   -7.9219 C   0  0  0  0  0  0
   20.4360   39.3617   -6.5129 C   0  0  0  0  0  0
   21.7188   40.1038   -6.0692 C   0  0  0  0  0  0
   21.8063   41.6053   -6.4071 C   0  0  0  0  0  0
   20.6157   42.4661   -5.9457 C   0  0  0  0  0  0
   20.5242   43.7710   -6.7503 C   0  0  0  0  0  0
   19.1490   44.4453   -6.6381 C   0  0  0  0  0  0
   19.0306   45.5952   -7.5244 N   0  0  0  0  0  0
   18.9854   45.4341   -8.9188 C   0  0  0  0  0  0
   18.6455   44.2111   -9.5516 C   0  0  0  0  0  0
   18.6257   44.1120  -10.9623 C   0  0  0  0  0  0
   18.9089   45.2545  -11.7392 C   0  0  0  0  0  0
   19.2511   46.4690  -11.1198 C   0  0  0  0  0  0
   19.2910   46.5556   -9.7166 C   0  0  0  0  0  0
   18.2106   42.8480  -11.6591 C   0  0  0  0  0  0
   17.2605   42.8842  -12.4401 O   0  0  0  0  0  0
   18.9090   41.7119  -11.4666 N   0  0  0  0  0  0
   20.1273   41.4520  -10.6883 C   0  0  1  0  0  0
   20.2187   39.9204  -10.4321 C   0  0  0  0  0  0
   21.3632   42.0689  -11.4128 C   0  0  2  0  0  0
   21.6597   41.3474  -12.5952 O   0  0  0  0  0  0
   22.6343   42.2621  -10.5552 C   0  0  0  0  0  0
   23.4857   41.0532  -10.4401 N   0  3  0  0  0  0
   24.6827   41.2300   -9.5884 C   0  0  0  0  0  0
   25.7716   41.9732  -10.2934 C   0  0  0  0  0  0
   25.9475   43.3102  -10.5157 C   0  0  0  0  0  0
   27.1701   43.4032  -11.2493 C   0  0  0  0  0  0
   27.7076   42.2077  -11.4496 N   0  0  0  0  0  0
   26.8603   41.3500  -10.8590 N   0  0  0  0  0  0
   27.8759   44.6377  -11.7816 C   0  0  0  0  0  0
   29.2822   44.7449  -11.1596 C   0  0  0  0  0  0
   27.0865   45.9121  -11.4143 C   0  0  0  0  0  0
   27.9809   44.5593  -13.3166 C   0  0  0  0  0  0
   21.7306   40.1171   -8.9068 H   0  0  0  0  0  0
   20.0134   41.9481   -9.7275 H   0  0  0  0  0  0
   21.0889   43.0742  -11.7312 H   0  0  0  0  0  0
   20.5697   37.3499   -9.3314 H   0  0  0  0  0  0
   21.9342   37.7605   -8.2968 H   0  0  0  0  0  0
   22.0788   37.9392  -10.0290 H   0  0  0  0  0  0
   19.4981   40.6896   -7.9303 H   0  0  0  0  0  0
   19.0138   39.0417   -8.0890 H   0  0  0  0  0  0
   19.6469   39.5725   -5.7892 H   0  0  0  0  0  0
   20.6098   38.2887   -6.4388 H   0  0  0  0  0  0
   21.8366   39.9725   -4.9929 H   0  0  0  0  0  0
   22.5797   39.6069   -6.5178 H   0  0  0  0  0  0
   22.7238   42.0145   -5.9821 H   0  0  0  0  0  0
   21.9278   41.7073   -7.4819 H   0  0  0  0  0  0
   19.6826   41.9219   -6.0789 H   0  0  0  0  0  0
   20.6822   42.6742   -4.8764 H   0  0  0  0  0  0
   21.3112   44.4565   -6.4349 H   0  0  0  0  0  0
   20.7181   43.5505   -7.7996 H   0  0  0  0  0  0
   18.3443   43.7369   -6.8378 H   0  0  0  0  0  0
   19.0013   44.7912   -5.6166 H   0  0  0  0  0  0
   19.3675   46.4781   -7.1682 H   0  0  0  0  0  0
   18.3789   43.3450   -8.9647 H   0  0  0  0  0  0
   18.8596   45.2021  -12.8173 H   0  0  0  0  0  0
   19.4752   47.3378  -11.7211 H   0  0  0  0  0  0
   19.5529   47.4956   -9.2547 H   0  0  0  0  0  0
   18.5628   40.9143  -11.9794 H   0  0  0  0  0  0
   20.7315   39.4405  -11.2657 H   0  0  0  0  0  0
   19.2188   39.4832  -10.4541 H   0  0  0  0  0  0
   22.5213   41.5754  -12.9268 H   0  0  0  0  0  0
   23.2335   43.0473  -11.0174 H   0  0  0  0  0  0
   22.3615   42.6318   -9.5657 H   0  0  0  0  0  0
   22.9305   40.3032  -10.0538 H   0  0  0  0  0  0
   24.4102   41.7460   -8.6667 H   0  0  0  0  0  0
   25.0499   40.2549   -9.2714 H   0  0  0  0  0  0
   25.2975   44.1126  -10.2008 H   0  0  0  0  0  0
   27.0642   40.3535  -10.8399 H   0  0  0  0  0  0
   29.8048   45.6345  -11.5090 H   0  0  0  0  0  0
   29.9007   43.8830  -11.4187 H   0  0  0  0  0  0
   29.2297   44.7966  -10.0728 H   0  0  0  0  0  0
   26.9879   46.0246  -10.3338 H   0  0  0  0  0  0
   26.0814   45.8974  -11.8376 H   0  0  0  0  0  0
   27.5845   46.8068  -11.7889 H   0  0  0  0  0  0
   28.4793   45.4368  -13.7269 H   0  0  0  0  0  0
   26.9937   44.4943  -13.7728 H   0  0  0  0  0  0
   28.5500   43.6856  -13.6350 H   0  0  0  0  0  0
   23.7822   40.7741  -11.3709 H   0  0  0  0  0  0
  1  2  1  0  0  0
  1 39  1  0  0  0
  1 40  1  0  0  0
  1 41  1  0  0  0
  2 36  1  0  0  0
  2 21  1  0  0  0
  2  3  1  0  0  0
  3  4  1  0  0  0
  3 42  1  0  0  0
  3 43  1  0  0  0
  4  5  1  0  0  0
  4 44  1  0  0  0
  4 45  1  0  0  0
  5  6  1  0  0  0
  5 46  1  0  0  0
  5 47  1  0  0  0
  6  7  1  0  0  0
  6 48  1  0  0  0
  6 49  1  0  0  0
  7  8  1  0  0  0
  7 50  1  0  0  0
  7 51  1  0  0  0
  8  9  1  0  0  0
  8 52  1  0  0  0
  8 53  1  0  0  0
  9 10  1  0  0  0
  9 54  1  0  0  0
  9 55  1  0  0  0
 10 11  1  0  0  0
 10 56  1  0  0  0
 11 16  1  0  0  0
 11 12  2  0  0  0
 12 13  1  0  0  0
 12 57  1  0  0  0
 13 14  2  0  0  0
 13 17  1  0  0  0
 14 15  1  0  0  0
 14 58  1  0  0  0
 15 16  2  0  0  0
 15 59  1  0  0  0
 16 60  1  0  0  0
 17 18  2  0  0  0
 17 19  1  0  0  0
 19 20  1  0  0  0
 19 61  1  0  0  0
 20 37  1  0  0  0
 20 21  1  0  0  0
 20 22  1  0  0  0
 21 62  1  0  0  0
 21 63  1  0  0  0
 22 38  1  0  0  0
 22 23  1  0  0  0
 22 24  1  0  0  0
 23 64  1  0  0  0
 24 25  1  0  0  0
 24 65  1  0  0  0
 24 66  1  0  0  0
 25 26  1  0  0  0
 25 67  1  0  0  0
 25 81  1  0  0  0
 26 68  1  0  0  0
 26 69  1  0  0  0
 26 27  1  0  0  0
 27 31  1  0  0  0
 27 28  2  0  0  0
 28 29  1  0  0  0
 28 70  1  0  0  0
 29 32  1  0  0  0
 29 30  2  0  0  0
 30 31  1  0  0  0
 31 71  1  0  0  0
 32 33  1  0  0  0
 32 34  1  0  0  0
 32 35  1  0  0  0
 33 72  1  0  0  0
 33 73  1  0  0  0
 33 74  1  0  0  0
 34 75  1  0  0  0
 34 76  1  0  0  0
 34 77  1  0  0  0
 35 78  1  0  0  0
 35 79  1  0  0  0
 35 80  1  0  0  0
M  CHG  1  25   1
M  END
> <s_m_source_file>
BACE_58.smi

> <i_m_source_file_index>
1

> <i_lp_mmshare_version>
42013

> <i_f3d_flags>
0

> <s_epik_input>
W05IXTFbQ0gyXVtDSDJdW0NIMl1bQ0gyXVtDSDJdW0NIMl1bQ0gyXVtDQEBIXShbQ0gzXSlbQ0gyXVtDQEhdKFtOSF1DKD1PKWMoW2NIXWMxMilbY0hdW2NIXVtjSF0yKVtDQEhdKFtPSF0pW0NIMl1bTkhdW0NIMl1jM1tjSF1jKFtuSF1uMylDKFtDSDNdKShbQ0gzXSlbQ0gzXQ==

> <s_epik_cmdline>
J2VwaWtfcHl0aG9uJywgJy1waCcsICc3LjAnLCAnLXRuJywgJzgnLCAnLW1hJywgJzIwMCcsICctaW1hZScsICc8aW5maWxlLm1hZT4nLCAnLW9tYWUnLCAnPG91dGZpbGUubWFlPic=

> <r_lp_tautomer_probability>
0.5

> <r_epik_Ionization_Penalty>
  0.1265

> <r_epik_Ionization_Penalty_Charging>
  0.1258

> <r_epik_Ionization_Penalty_Neutral>
  0.0007

> <r_epik_State_Penalty>
  0.5570

> <r_epik_Charging_Adjusted_Penalty>
0.68279

> <i_epik_Tot_Q>
1

> <i_epik_Tot_abs_Q>
1

> <s_lp_Force_Field>
OPLS_2005

> <r_lp_Energy>
29.3488

> <b_lp_Chiralities_Consistent>
1

> <s_lp_Variant>
BACE_58.smi:1-2

> <chiral flag>
1

> <version>
0

> <s_i_glide_gridfile>
second_dock_grid_2

> <i_i_glide_lignum>
113

> <i_i_glide_rotatable_bonds>
7

> <r_i_docking_score>
-6.65437

> <r_i_glide_ligand_efficiency>
-0.190125

> <r_i_glide_ligand_efficiency_sa>
-0.621911

> <r_i_glide_ligand_efficiency_ln>
-1.46078

> <r_glide_XP_GScore>
-7.21137

> <r_i_glide_gscore>
-7.21137

> <r_i_glide_evdw>
-31.3903

> <r_i_glide_ecoul>
-16.5368

> <r_i_glide_energy>
-47.9271

> <r_i_glide_einternal>
6.08511

> <r_i_glide_emodel>
-65.6259

> <r_glide_XP_HBond>
-1.87006

> <i_i_glide_confnum>
1

> <i_i_glide_posenum>
10

> <r_i_glide_eff_state_penalty>
0.557

> <i_glide_XP_PoseRank>
1

$$$$
BACE_58.smi:1
                    3D
 Structure written by MMmdl.
 80 82  0  0  1  0            999 V2000
   20.1723   39.4950  -11.0868 C   0  0  0  0  0  0
   20.9467   40.3579  -10.0709 C   0  0  2  0  0  0
   20.0119   40.9051   -8.9657 C   0  0  0  0  0  0
   19.3272   39.8759   -8.0359 C   0  0  0  0  0  0
   20.2444   38.9864   -7.1651 C   0  0  0  0  0  0
   21.4583   39.6803   -6.5215 C   0  0  0  0  0  0
   21.1544   40.9349   -5.6771 C   0  0  0  0  0  0
   22.3997   41.8284   -5.5398 C   0  0  0  0  0  0
   22.0734   43.2807   -5.1524 C   0  0  0  0  0  0
   23.2603   44.1286   -5.1415 N   0  0  0  0  0  0
   23.9640   44.4200   -6.3233 C   0  0  0  0  0  0
   23.3782   44.3748   -7.6121 C   0  0  0  0  0  0
   24.1470   44.6764   -8.7624 C   0  0  0  0  0  0
   25.4954   45.0693   -8.6113 C   0  0  0  0  0  0
   26.0846   45.1094   -7.3369 C   0  0  0  0  0  0
   25.3208   44.7829   -6.2019 C   0  0  0  0  0  0
   23.5608   44.6534  -10.1475 C   0  0  0  0  0  0
   23.6207   45.6647  -10.8404 O   0  0  0  0  0  0
   23.0510   43.5124  -10.6537 N   0  0  0  0  0  0
   22.8420   42.1969  -10.0433 C   0  0  1  0  0  0
   21.6602   41.5271  -10.8000 C   0  0  0  0  0  0
   24.1088   41.2797  -10.0349 C   0  0  2  0  0  0
   24.0601   40.5498   -8.8327 O   0  0  0  0  0  0
   25.5269   41.8956  -10.0650 C   0  0  0  0  0  0
   25.8464   42.5356  -11.3426 N   0  0  0  0  0  0
   27.0759   42.0566  -11.9661 C   0  0  0  0  0  0
   28.3279   42.4766  -11.2699 C   0  0  0  0  0  0
   28.7294   43.6684  -10.7373 C   0  0  0  0  0  0
   30.0478   43.4216  -10.2452 C   0  0  0  0  0  0
   30.4181   42.1560  -10.4407 N   0  0  0  0  0  0
   29.3731   41.6079  -11.0842 N   0  0  0  0  0  0
   31.0033   44.3926   -9.5701 C   0  0  0  0  0  0
   32.3275   44.4631  -10.3601 C   0  0  0  0  0  0
   31.2602   43.9560   -8.1160 C   0  0  0  0  0  0
   30.3966   45.8110   -9.5334 C   0  0  0  0  0  0
   21.7005   39.7142   -9.6204 H   0  0  0  0  0  0
   22.5188   42.3685   -9.0212 H   0  0  0  0  0  0
   24.0403   40.5497  -10.8394 H   0  0  0  0  0  0
   19.3735   40.0629  -11.5684 H   0  0  0  0  0  0
   19.7226   38.6242  -10.6102 H   0  0  0  0  0  0
   20.8341   39.1236  -11.8717 H   0  0  0  0  0  0
   20.5608   41.6155   -8.3538 H   0  0  0  0  0  0
   19.2272   41.4985   -9.4381 H   0  0  0  0  0  0
   18.6657   40.4287   -7.3668 H   0  0  0  0  0  0
   18.6619   39.2359   -8.6143 H   0  0  0  0  0  0
   19.6381   38.5208   -6.3855 H   0  0  0  0  0  0
   20.6130   38.1637   -7.7779 H   0  0  0  0  0  0
   22.0064   38.9627   -5.9120 H   0  0  0  0  0  0
   22.1375   39.9431   -7.3275 H   0  0  0  0  0  0
   20.3587   41.5181   -6.1361 H   0  0  0  0  0  0
   20.7735   40.6506   -4.6943 H   0  0  0  0  0  0
   23.0909   41.3896   -4.8211 H   0  0  0  0  0  0
   22.9251   41.8444   -6.4948 H   0  0  0  0  0  0
   21.3228   43.7032   -5.8219 H   0  0  0  0  0  0
   21.6328   43.2994   -4.1567 H   0  0  0  0  0  0
   23.8021   44.1483   -4.2832 H   0  0  0  0  0  0
   22.3340   44.1291   -7.7241 H   0  0  0  0  0  0
   26.0876   45.3127   -9.4824 H   0  0  0  0  0  0
   27.1200   45.3947   -7.2295 H   0  0  0  0  0  0
   25.7914   44.8193   -5.2319 H   0  0  0  0  0  0
   22.7375   43.5869  -11.6104 H   0  0  0  0  0  0
   22.0309   41.1858  -11.7690 H   0  0  0  0  0  0
   20.9043   42.2792  -11.0383 H   0  0  0  0  0  0
   24.4336   39.6904   -9.0048 H   0  0  0  0  0  0
   25.6626   42.5913   -9.2412 H   0  0  0  0  0  0
   26.2433   41.0990   -9.8679 H   0  0  0  0  0  0
   25.0744   42.3806  -11.9866 H   0  0  0  0  0  0
   27.0455   40.9696  -12.0409 H   0  0  0  0  0  0
   27.1206   42.4414  -12.9833 H   0  0  0  0  0  0
   28.1581   44.5856  -10.7164 H   0  0  0  0  0  0
   29.3594   40.6278  -11.3457 H   0  0  0  0  0  0
   33.0353   45.1441   -9.8883 H   0  0  0  0  0  0
   32.1609   44.8163  -11.3783 H   0  0  0  0  0  0
   32.8109   43.4887  -10.4309 H   0  0  0  0  0  0
   31.6667   42.9490   -8.0585 H   0  0  0  0  0  0
   30.3383   43.9716   -7.5372 H   0  0  0  0  0  0
   31.9669   44.6216   -7.6177 H   0  0  0  0  0  0
   31.0732   46.5192   -9.0532 H   0  0  0  0  0  0
   29.4600   45.8311   -8.9727 H   0  0  0  0  0  0
   30.1900   46.1862  -10.5358 H   0  0  0  0  0  0
  1  2  1  0  0  0
  1 39  1  0  0  0
  1 40  1  0  0  0
  1 41  1  0  0  0
  2 36  1  0  0  0
  2 21  1  0  0  0
  2  3  1  0  0  0
  3  4  1  0  0  0
  3 42  1  0  0  0
  3 43  1  0  0  0
  4  5  1  0  0  0
  4 44  1  0  0  0
  4 45  1  0  0  0
  5  6  1  0  0  0
  5 46  1  0  0  0
  5 47  1  0  0  0
  6  7  1  0  0  0
  6 48  1  0  0  0
  6 49  1  0  0  0
  7  8  1  0  0  0
  7 50  1  0  0  0
  7 51  1  0  0  0
  8  9  1  0  0  0
  8 52  1  0  0  0
  8 53  1  0  0  0
  9 10  1  0  0  0
  9 54  1  0  0  0
  9 55  1  0  0  0
 10 11  1  0  0  0
 10 56  1  0  0  0
 11 16  1  0  0  0
 11 12  2  0  0  0
 12 13  1  0  0  0
 12 57  1  0  0  0
 13 14  2  0  0  0
 13 17  1  0  0  0
 14 15  1  0  0  0
 14 58  1  0  0  0
 15 16  2  0  0  0
 15 59  1  0  0  0
 16 60  1  0  0  0
 17 18  2  0  0  0
 17 19  1  0  0  0
 19 20  1  0  0  0
 19 61  1  0  0  0
 20 37  1  0  0  0
 20 21  1  0  0  0
 20 22  1  0  0  0
 21 62  1  0  0  0
 21 63  1  0  0  0
 22 38  1  0  0  0
 22 23  1  0  0  0
 22 24  1  0  0  0
 23 64  1  0  0  0
 24 25  1  0  0  0
 24 65  1  0  0  0
 24 66  1  0  0  0
 25 26  1  0  0  0
 25 67  1  0  0  0
 26 68  1  0  0  0
 26 69  1  0  0  0
 26 27  1  0  0  0
 27 31  1  0  0  0
 27 28  2  0  0  0
 28 29  1  0  0  0
 28 70  1  0  0  0
 29 32  1  0  0  0
 29 30  2  0  0  0
 30 31  1  0  0  0
 31 71  1  0  0  0
 32 33  1  0  0  0
 32 34  1  0  0  0
 32 35  1  0  0  0
 33 72  1  0  0  0
 33 73  1  0  0  0
 33 74  1  0  0  0
 34 75  1  0  0  0
 34 76  1  0  0  0
 34 77  1  0  0  0
 35 78  1  0  0  0
 35 79  1  0  0  0
 35 80  1  0  0  0
M  END
> <s_m_source_file>
BACE_58.smi

> <i_m_source_file_index>
1

> <i_lp_mmshare_version>
42013

> <i_f3d_flags>
0

> <s_epik_input>
W05IXTFbQ0gyXVtDSDJdW0NIMl1bQ0gyXVtDSDJdW0NIMl1bQ0gyXVtDQEBIXShbQ0gzXSlbQ0gyXVtDQEhdKFtOSF1DKD1PKWMoW2NIXWMxMilbY0hdW2NIXVtjSF0yKVtDQEhdKFtPSF0pW0NIMl1bTkhdW0NIMl1jM1tjSF1jKFtuSF1uMylDKFtDSDNdKShbQ0gzXSlbQ0gzXQ==

> <s_epik_cmdline>
J2VwaWtfcHl0aG9uJywgJy1waCcsICc3LjAnLCAnLXRuJywgJzgnLCAnLW1hJywgJzIwMCcsICctaW1hZScsICc8aW5maWxlLm1hZT4nLCAnLW9tYWUnLCAnPG91dGZpbGUubWFlPic=

> <r_lp_tautomer_probability>
0.5

> <r_epik_Ionization_Penalty>
  0.9815

> <r_epik_Ionization_Penalty_Charging>
  0.0000

> <r_epik_Ionization_Penalty_Neutral>
  0.9815

> <r_epik_State_Penalty>
  1.6017

> <r_epik_Charging_Adjusted_Penalty>
1.60166

> <i_epik_Tot_Q>
0

> <i_epik_Tot_abs_Q>
0

> <s_lp_Force_Field>
OPLS_2005

> <r_lp_Energy>
37.5199

> <b_lp_Chiralities_Consistent>
1

> <s_lp_Variant>
BACE_58.smi:1-3

> <chiral flag>
1

> <version>
0

> <s_i_glide_gridfile>
second_dock_grid_2

> <i_i_glide_lignum>
114

> <i_i_glide_rotatable_bonds>
7

> <r_i_docking_score>
-3.53607

> <r_i_glide_ligand_efficiency>
-0.101031

> <r_i_glide_ligand_efficiency_sa>
-0.330478

> <r_i_glide_ligand_efficiency_ln>
-0.776246

> <r_glide_XP_GScore>
-5.13777

> <r_i_glide_gscore>
-5.13777

> <r_i_glide_evdw>
-32.2966

> <r_i_glide_ecoul>
-13.0599

> <r_i_glide_energy>
-45.3565

> <r_i_glide_einternal>
3.18666

> <r_i_glide_emodel>
-63.7044

> <r_glide_XP_HBond>
-1.03979

> <i_i_glide_confnum>
1

> <i_i_glide_posenum>
6

> <r_i_glide_eff_state_penalty>
1.6017

> <i_glide_XP_PoseRank>
1

$$$$
BACE_58.smi:1
                    3D
 Structure written by MMmdl.
 80 82  0  0  1  0            999 V2000
   23.3551   40.8387   -9.8031 C   0  0  0  0  0  0
   21.8214   40.7708   -9.7389 C   0  0  2  0  0  0
   21.3127   39.3351   -9.9954 C   0  0  0  0  0  0
   21.6217   38.2955   -8.9004 C   0  0  0  0  0  0
   21.0512   38.5955   -7.4976 C   0  0  0  0  0  0
   19.5658   38.9953   -7.4560 C   0  0  0  0  0  0
   18.5561   38.0567   -8.1463 C   0  0  0  0  0  0
   17.1859   38.7392   -8.3112 C   0  0  0  0  0  0
   16.4387   38.3045   -9.5853 C   0  0  0  0  0  0
   15.2904   39.1606   -9.8675 N   0  0  0  0  0  0
   15.5010   40.5056  -10.2135 C   0  0  0  0  0  0
   16.6289   40.9546  -10.9500 C   0  0  0  0  0  0
   16.7852   42.3266  -11.2618 C   0  0  0  0  0  0
   15.8023   43.2483  -10.8405 C   0  0  0  0  0  0
   14.6847   42.8096  -10.1060 C   0  0  0  0  0  0
   14.5355   41.4456   -9.8016 C   0  0  0  0  0  0
   17.9115   42.8202  -12.1276 C   0  0  0  0  0  0
   17.6566   43.3533  -13.2075 O   0  0  0  0  0  0
   19.1812   42.7111  -11.7119 N   0  0  0  0  0  0
   19.7248   42.1782  -10.4671 C   0  0  1  0  0  0
   21.1934   41.7508  -10.7545 C   0  0  0  0  0  0
   19.5028   43.1981   -9.3008 C   0  0  2  0  0  0
   20.6573   43.9974   -9.1206 O   0  0  0  0  0  0
   19.1544   42.5013   -7.9669 C   0  0  0  0  0  0
   18.4782   43.3489   -6.9898 N   0  0  0  0  0  0
   19.3564   44.2655   -6.2679 C   0  0  0  0  0  0
   19.0301   45.6963   -6.5642 C   0  0  0  0  0  0
   18.3956   46.2321   -7.7218 C   0  0  0  0  0  0
   18.4306   47.5816   -7.5393 C   0  0  0  0  0  0
   19.0212   47.7758   -6.3075 N   0  0  0  0  0  0
   19.3642   46.6314   -5.6903 N   0  0  0  0  0  0
   17.9963   48.7115   -8.4266 C   0  0  0  0  0  0
   19.2280   49.3338   -9.1106 C   0  0  0  0  0  0
   17.2960   49.7849   -7.5873 C   0  0  0  0  0  0
   17.0221   48.2188   -9.5217 C   0  0  0  0  0  0
   21.5365   41.0822   -8.7384 H   0  0  0  0  0  0
   19.1586   41.2750  -10.2535 H   0  0  0  0  0  0
   18.6707   43.8518   -9.5556 H   0  0  0  0  0  0
   23.7235   40.5417  -10.7877 H   0  0  0  0  0  0
   23.8144   40.1851   -9.0633 H   0  0  0  0  0  0
   23.7180   41.8468   -9.6062 H   0  0  0  0  0  0
   20.2380   39.3500  -10.1640 H   0  0  0  0  0  0
   21.7288   38.9795  -10.9377 H   0  0  0  0  0  0
   21.2275   37.3389   -9.2396 H   0  0  0  0  0  0
   22.7008   38.1544   -8.8353 H   0  0  0  0  0  0
   21.2139   37.7498   -6.8389 H   0  0  0  0  0  0
   21.6312   39.4055   -7.0522 H   0  0  0  0  0  0
   19.2580   39.1632   -6.4235 H   0  0  0  0  0  0
   19.5038   39.9548   -7.9485 H   0  0  0  0  0  0
   18.9337   37.7724   -9.1261 H   0  0  0  0  0  0
   18.4391   37.1283   -7.5874 H   0  0  0  0  0  0
   16.5730   38.5531   -7.4258 H   0  0  0  0  0  0
   17.3286   39.8181   -8.3488 H   0  0  0  0  0  0
   17.1126   38.2930  -10.4403 H   0  0  0  0  0  0
   16.0830   37.2797   -9.4624 H   0  0  0  0  0  0
   14.4739   38.9777   -9.2981 H   0  0  0  0  0  0
   17.3624   40.2458  -11.3088 H   0  0  0  0  0  0
   15.8979   44.2961  -11.0840 H   0  0  0  0  0  0
   13.9391   43.5155   -9.7775 H   0  0  0  0  0  0
   13.6657   41.1229   -9.2441 H   0  0  0  0  0  0
   19.8721   43.1002  -12.3380 H   0  0  0  0  0  0
   21.8199   42.6367  -10.8639 H   0  0  0  0  0  0
   21.2411   41.2716  -11.7363 H   0  0  0  0  0  0
   21.3769   43.4319   -8.8817 H   0  0  0  0  0  0
   18.4559   41.6998   -8.2005 H   0  0  0  0  0  0
   20.0292   42.0340   -7.5150 H   0  0  0  0  0  0
   18.0386   42.7306   -6.3049 H   0  0  0  0  0  0
   19.2610   44.0839   -5.1972 H   0  0  0  0  0  0
   20.4023   44.0685   -6.4925 H   0  0  0  0  0  0
   18.0151   45.7016   -8.5800 H   0  0  0  0  0  0
   19.2001   48.6757   -5.8867 H   0  0  0  0  0  0
   18.9484   50.1635   -9.7595 H   0  0  0  0  0  0
   19.7532   48.5984   -9.7202 H   0  0  0  0  0  0
   19.9404   49.7140   -8.3759 H   0  0  0  0  0  0
   17.9877   50.1604   -6.8396 H   0  0  0  0  0  0
   16.4582   49.3651   -7.0408 H   0  0  0  0  0  0
   16.9438   50.6178   -8.1924 H   0  0  0  0  0  0
   16.6770   49.0439  -10.1434 H   0  0  0  0  0  0
   16.1445   47.7425   -9.0880 H   0  0  0  0  0  0
   17.4955   47.4920  -10.1798 H   0  0  0  0  0  0
  1  2  1  0  0  0
  1 39  1  0  0  0
  1 40  1  0  0  0
  1 41  1  0  0  0
  2 36  1  0  0  0
  2 21  1  0  0  0
  2  3  1  0  0  0
  3  4  1  0  0  0
  3 42  1  0  0  0
  3 43  1  0  0  0
  4  5  1  0  0  0
  4 44  1  0  0  0
  4 45  1  0  0  0
  5  6  1  0  0  0
  5 46  1  0  0  0
  5 47  1  0  0  0
  6  7  1  0  0  0
  6 48  1  0  0  0
  6 49  1  0  0  0
  7  8  1  0  0  0
  7 50  1  0  0  0
  7 51  1  0  0  0
  8  9  1  0  0  0
  8 52  1  0  0  0
  8 53  1  0  0  0
  9 10  1  0  0  0
  9 54  1  0  0  0
  9 55  1  0  0  0
 10 11  1  0  0  0
 10 56  1  0  0  0
 11 16  1  0  0  0
 11 12  2  0  0  0
 12 13  1  0  0  0
 12 57  1  0  0  0
 13 14  2  0  0  0
 13 17  1  0  0  0
 14 15  1  0  0  0
 14 58  1  0  0  0
 15 16  2  0  0  0
 15 59  1  0  0  0
 16 60  1  0  0  0
 17 18  2  0  0  0
 17 19  1  0  0  0
 19 20  1  0  0  0
 19 61  1  0  0  0
 20 37  1  0  0  0
 20 21  1  0  0  0
 20 22  1  0  0  0
 21 62  1  0  0  0
 21 63  1  0  0  0
 22 38  1  0  0  0
 22 23  1  0  0  0
 22 24  1  0  0  0
 23 64  1  0  0  0
 24 25  1  0  0  0
 24 65  1  0  0  0
 24 66  1  0  0  0
 25 26  1  0  0  0
 25 67  1  0  0  0
 26 27  1  0  0  0
 26 68  1  0  0  0
 26 69  1  0  0  0
 27 31  2  0  0  0
 27 28  1  0  0  0
 28 29  2  0  0  0
 28 70  1  0  0  0
 29 30  1  0  0  0
 29 32  1  0  0  0
 30 31  1  0  0  0
 30 71  1  0  0  0
 32 33  1  0  0  0
 32 34  1  0  0  0
 32 35  1  0  0  0
 33 72  1  0  0  0
 33 73  1  0  0  0
 33 74  1  0  0  0
 34 75  1  0  0  0
 34 76  1  0  0  0
 34 77  1  0  0  0
 35 78  1  0  0  0
 35 79  1  0  0  0
 35 80  1  0  0  0
M  END
> <s_m_source_file>
BACE_58.smi

> <i_m_source_file_index>
1

> <i_lp_mmshare_version>
42013

> <i_f3d_flags>
0

> <s_epik_input>
W05IXTFbQ0gyXVtDSDJdW0NIMl1bQ0gyXVtDSDJdW0NIMl1bQ0gyXVtDQEBIXShbQ0gzXSlbQ0gyXVtDQEhdKFtOSF1DKD1PKWMoW2NIXWMxMilbY0hdW2NIXVtjSF0yKVtDQEhdKFtPSF0pW0NIMl1bTkhdW0NIMl1jM1tjSF1jKFtuSF1uMylDKFtDSDNdKShbQ0gzXSlbQ0gzXQ==

> <s_epik_cmdline>
J2VwaWtfcHl0aG9uJywgJy1waCcsICc3LjAnLCAnLXRuJywgJzgnLCAnLW1hJywgJzIwMCcsICctaW1hZScsICc8aW5maWxlLm1hZT4nLCAnLW9tYWUnLCAnPG91dGZpbGUubWFlPic=

> <r_lp_tautomer_probability>
0.5

> <r_epik_Ionization_Penalty>
  1.4128

> <r_epik_Ionization_Penalty_Charging>
  0.0000

> <r_epik_Ionization_Penalty_Neutral>
  1.4128

> <r_epik_State_Penalty>
  1.7347

> <r_epik_Charging_Adjusted_Penalty>
1.73473

> <i_epik_Tot_Q>
0

> <i_epik_Tot_abs_Q>
0

> <s_lp_Force_Field>
OPLS_2005

> <r_lp_Energy>
41.8679

> <b_lp_Chiralities_Consistent>
1

> <s_lp_Variant>
BACE_58.smi:1-4

> <chiral flag>
1

> <version>
0

> <s_i_glide_gridfile>
second_dock_grid_2

> <i_i_glide_lignum>
115

> <i_i_glide_rotatable_bonds>
7

> <r_i_docking_score>
-3.62268

> <r_i_glide_ligand_efficiency>
-0.103505

> <r_i_glide_ligand_efficiency_sa>
-0.338572

> <r_i_glide_ligand_efficiency_ln>
-0.795258

> <r_glide_XP_GScore>
-5.35738

> <r_i_glide_gscore>
-5.35738

> <r_i_glide_evdw>
-38.7911

> <r_i_glide_ecoul>
-11.6071

> <r_i_glide_energy>
-50.3981

> <r_i_glide_einternal>
7.13601

> <r_i_glide_emodel>
-67.9549

> <r_glide_XP_HBond>
-1.58217

> <i_i_glide_confnum>
1

> <i_i_glide_posenum>
6

> <r_i_glide_eff_state_penalty>
1.7347

> <i_glide_XP_PoseRank>
1

$$$$
BACE_59.smi:1
                    3D
 Structure written by MMmdl.
 92 96  0  0  1  0            999 V2000
   24.8799   43.9543   -8.1356 C   0  0  0  0  0  0
   23.4694   44.5815   -8.0974 C   0  0  2  0  0  0
   23.5095   46.0140   -7.5002 C   0  0  0  0  0  0
   24.3509   47.0741   -8.2614 C   0  0  0  0  0  0
   23.9803   47.3385   -9.7399 C   0  0  0  0  0  0
   22.5026   47.7031   -9.9476 C   0  0  0  0  0  0
   22.1041   48.0366  -11.3974 C   0  0  0  0  0  0
   20.5726   48.0730  -11.5782 C   0  0  0  0  0  0
   19.9490   46.6729  -11.7608 C   0  0  0  0  0  0
   18.5216   46.6441  -11.4558 N   0  0  0  0  0  0
   18.0652   46.1114  -10.2359 C   0  0  0  0  0  0
   16.7462   45.6157  -10.1728 C   0  0  0  0  0  0
   16.2302   45.0697   -8.9745 C   0  0  0  0  0  0
   17.0570   45.0144   -7.8281 C   0  0  0  0  0  0
   18.3861   45.4888   -7.8755 C   0  0  0  0  0  0
   18.8683   46.0591   -9.0721 C   0  0  0  0  0  0
   19.2397   45.4706   -6.6349 C   0  0  0  0  0  0
   18.8608   46.0868   -5.6400 O   0  0  0  0  0  0
   20.4063   44.7853   -6.6257 N   0  0  0  0  0  0
   20.9640   43.8175   -7.5846 C   0  0  1  0  0  0
   22.4965   43.6284   -7.3438 C   0  0  0  0  0  0
   20.1608   42.4789   -7.5260 C   0  0  2  0  0  0
   20.1397   41.9875   -6.1970 O   0  0  0  0  0  0
   20.7497   41.3738   -8.4328 C   0  0  0  0  0  0
   20.5203   41.6711   -9.8508 N   0  0  0  0  0  0
   19.9561   40.6303  -10.7238 C   0  0  0  0  0  0
   20.8703   40.0096  -11.7530 C   0  0  0  0  0  0
   19.7824   40.9629  -12.1865 C   0  0  0  0  0  0
   18.9114   39.7326  -10.0763 C   0  0  0  0  0  0
   17.6643   40.2340   -9.6372 C   0  0  0  0  0  0
   16.7333   39.3576   -9.0202 C   0  0  0  0  0  0
   17.1283   38.0047   -8.8754 C   0  0  0  0  0  0
   18.3967   37.6010   -9.3360 C   0  0  0  0  0  0
   19.2753   38.4402   -9.9208 N   0  0  0  0  0  0
   15.3477   39.8210   -8.5159 C   0  0  0  0  0  0
   15.3261   41.3618   -8.3886 C   0  0  0  0  0  0
   14.2531   39.3764   -9.5132 C   0  0  0  0  0  0
   14.9777   39.2365   -7.1302 C   0  0  0  0  0  0
   14.8551   44.5689   -8.9271 C   0  0  0  0  0  0
   13.8973   44.8470   -8.0402 N   0  0  0  0  0  0
   12.7914   44.1161   -8.4485 C   0  0  0  0  0  0
   13.1367   43.4219   -9.5771 C   0  0  0  0  0  0
   14.4395   43.6991   -9.8910 O   0  0  0  0  0  0
   23.1259   44.6396   -9.1299 H   0  0  0  0  0  0
   20.8397   44.2251   -8.5864 H   0  0  0  0  0  0
   19.1304   42.6580   -7.8331 H   0  0  0  0  0  0
   25.3079   43.8704   -7.1359 H   0  0  0  0  0  0
   25.5699   44.5367   -8.7451 H   0  0  0  0  0  0
   24.8603   42.9540   -8.5696 H   0  0  0  0  0  0
   22.4962   46.3973   -7.3985 H   0  0  0  0  0  0
   23.8865   45.9559   -6.4781 H   0  0  0  0  0  0
   25.4083   46.8157   -8.2057 H   0  0  0  0  0  0
   24.2676   48.0159   -7.7176 H   0  0  0  0  0  0
   24.2310   46.4671  -10.3453 H   0  0  0  0  0  0
   24.6056   48.1495  -10.1152 H   0  0  0  0  0  0
   21.9140   46.8531   -9.6198 H   0  0  0  0  0  0
   22.2321   48.5371   -9.2985 H   0  0  0  0  0  0
   22.5392   47.3183  -12.0936 H   0  0  0  0  0  0
   22.5239   49.0080  -11.6611 H   0  0  0  0  0  0
   20.3226   48.6783  -12.4503 H   0  0  0  0  0  0
   20.1251   48.5871  -10.7263 H   0  0  0  0  0  0
   20.4747   45.9208  -11.1737 H   0  0  0  0  0  0
   20.0765   46.3603  -12.7976 H   0  0  0  0  0  0
   17.8938   46.5985  -12.2457 H   0  0  0  0  0  0
   16.1290   45.6610  -11.0588 H   0  0  0  0  0  0
   16.6788   44.6034   -6.9029 H   0  0  0  0  0  0
   19.8607   46.4734   -9.0742 H   0  0  0  0  0  0
   20.9403   44.8674   -5.7723 H   0  0  0  0  0  0
   22.7564   42.6185   -7.6588 H   0  0  0  0  0  0
   22.7153   43.6442   -6.2746 H   0  0  0  0  0  0
   19.2405   41.8425   -5.9452 H   0  0  0  0  0  0
   20.3188   40.4072   -8.1695 H   0  0  0  0  0  0
   21.8219   41.2991   -8.2526 H   0  0  0  0  0  0
   20.0318   42.5522   -9.9742 H   0  0  0  0  0  0
   21.8996   40.3659  -11.7942 H   0  0  0  0  0  0
   20.7334   38.9518  -11.9774 H   0  0  0  0  0  0
   18.9181   40.5425  -12.7006 H   0  0  0  0  0  0
   20.0844   41.9566  -12.5175 H   0  0  0  0  0  0
   17.4539   41.2820   -9.7832 H   0  0  0  0  0  0
   16.4794   37.2737   -8.4165 H   0  0  0  0  0  0
   18.7142   36.5741   -9.2301 H   0  0  0  0  0  0
   16.0957   41.7140   -7.7003 H   0  0  0  0  0  0
   14.3670   41.7186   -8.0107 H   0  0  0  0  0  0
   15.4909   41.8610   -9.3435 H   0  0  0  0  0  0
   14.2463   38.2927   -9.6380 H   0  0  0  0  0  0
   14.3866   39.8165  -10.5015 H   0  0  0  0  0  0
   13.2588   39.6684   -9.1724 H   0  0  0  0  0  0
   14.9333   38.1465   -7.1451 H   0  0  0  0  0  0
   13.9966   39.5826   -6.8021 H   0  0  0  0  0  0
   15.6872   39.5362   -6.3577 H   0  0  0  0  0  0
   11.8558   44.1470   -7.9098 H   0  0  0  0  0  0
   12.6129   42.7387  -10.2292 H   0  0  0  0  0  0
  1  2  1  0  0  0
  1 47  1  0  0  0
  1 48  1  0  0  0
  1 49  1  0  0  0
  2 44  1  0  0  0
  2 21  1  0  0  0
  2  3  1  0  0  0
  3  4  1  0  0  0
  3 50  1  0  0  0
  3 51  1  0  0  0
  4  5  1  0  0  0
  4 52  1  0  0  0
  4 53  1  0  0  0
  5  6  1  0  0  0
  5 54  1  0  0  0
  5 55  1  0  0  0
  6  7  1  0  0  0
  6 56  1  0  0  0
  6 57  1  0  0  0
  7  8  1  0  0  0
  7 58  1  0  0  0
  7 59  1  0  0  0
  8  9  1  0  0  0
  8 60  1  0  0  0
  8 61  1  0  0  0
  9 10  1  0  0  0
  9 62  1  0  0  0
  9 63  1  0  0  0
 10 11  1  0  0  0
 10 64  1  0  0  0
 11 16  1  0  0  0
 11 12  2  0  0  0
 12 13  1  0  0  0
 12 65  1  0  0  0
 13 14  2  0  0  0
 13 39  1  0  0  0
 14 15  1  0  0  0
 14 66  1  0  0  0
 15 16  2  0  0  0
 15 17  1  0  0  0
 16 67  1  0  0  0
 17 18  2  0  0  0
 17 19  1  0  0  0
 19 20  1  0  0  0
 19 68  1  0  0  0
 20 45  1  0  0  0
 20 21  1  0  0  0
 20 22  1  0  0  0
 21 69  1  0  0  0
 21 70  1  0  0  0
 22 46  1  0  0  0
 22 23  1  0  0  0
 22 24  1  0  0  0
 23 71  1  0  0  0
 24 25  1  0  0  0
 24 72  1  0  0  0
 24 73  1  0  0  0
 25 26  1  0  0  0
 25 74  1  0  0  0
 26 28  1  0  0  0
 26 27  1  0  0  0
 26 29  1  0  0  0
 27 28  1  0  0  0
 27 75  1  0  0  0
 27 76  1  0  0  0
 28 77  1  0  0  0
 28 78  1  0  0  0
 29 34  1  0  0  0
 29 30  2  0  0  0
 30 31  1  0  0  0
 30 79  1  0  0  0
 31 32  2  0  0  0
 31 35  1  0  0  0
 32 33  1  0  0  0
 32 80  1  0  0  0
 33 34  2  0  0  0
 33 81  1  0  0  0
 35 36  1  0  0  0
 35 37  1  0  0  0
 35 38  1  0  0  0
 36 82  1  0  0  0
 36 83  1  0  0  0
 36 84  1  0  0  0
 37 85  1  0  0  0
 37 86  1  0  0  0
 37 87  1  0  0  0
 38 88  1  0  0  0
 38 89  1  0  0  0
 38 90  1  0  0  0
 39 43  1  0  0  0
 39 40  2  0  0  0
 40 41  1  0  0  0
 41 42  2  0  0  0
 41 91  1  0  0  0
 42 43  1  0  0  0
 42 92  1  0  0  0
M  END
> <s_m_source_file>
BACE_59.smi

> <i_m_source_file_index>
1

> <i_lp_mmshare_version>
42013

> <i_f3d_flags>
0

> <s_epik_input>
W05IXTFbQ0gyXVtDSDJdW0NIMl1bQ0gyXVtDSDJdW0NIMl1bQ0gyXVtDQEBIXShbQ0gzXSlbQ0gyXVtDQEhdKFtOSF1DKD1PKWMoW2NIXTIpW2NIXWMoW2NIXWMxMiktYzNuW2NIXVtjSF1vMylbQ0BIXShbT0hdKVtDSDJdW05IXUM0KFtDSDJdW0NIMl00KWM1W2NIXWMoW2NIXVtjSF1uNSlDKFtDSDNdKShbQ0gzXSlbQ0gzXQ==

> <s_epik_cmdline>
J2VwaWtfcHl0aG9uJywgJy1waCcsICc3LjAnLCAnLXRuJywgJzgnLCAnLW1hJywgJzIwMCcsICctaW1hZScsICc8aW5maWxlLm1hZT4nLCAnLW9tYWUnLCAnPG91dGZpbGUubWFlPic=

> <r_epik_Ionization_Penalty>
  0.2181

> <r_epik_Ionization_Penalty_Charging>
  0.0000

> <r_epik_Ionization_Penalty_Neutral>
  0.2181

> <r_epik_State_Penalty>
  0.2027

> <r_epik_Charging_Adjusted_Penalty>
0.202694

> <i_epik_Tot_Q>
0

> <i_epik_Tot_abs_Q>
0

> <s_lp_Force_Field>
OPLS_2005

> <r_lp_Energy>
48.9034

> <b_lp_Chiralities_Consistent>
1

> <s_lp_Variant>
BACE_59.smi:1-1

> <chiral flag>
1

> <version>
0

> <s_i_glide_gridfile>
second_dock_grid_2

> <i_i_glide_lignum>
116

> <i_i_glide_rotatable_bonds>
8

> <r_i_docking_score>
-2.88364

> <r_i_glide_ligand_efficiency>
-0.0670615

> <r_i_glide_ligand_efficiency_sa>
-0.234943

> <r_i_glide_ligand_efficiency_ln>
-0.605655

> <r_glide_XP_GScore>
-3.08634

> <r_i_glide_gscore>
-3.08634

> <r_i_glide_evdw>
-38.274

> <r_i_glide_ecoul>
-11.3763

> <r_i_glide_energy>
-49.6503

> <r_i_glide_einternal>
7.75195

> <r_i_glide_emodel>
-68.0093

> <r_glide_XP_HBond>
-1.49966

> <i_i_glide_confnum>
1

> <i_i_glide_posenum>
3

> <r_i_glide_eff_state_penalty>
0.2027

> <i_glide_XP_PoseRank>
1

$$$$
BACE_59.smi:1
                    3D
 Structure written by MMmdl.
 93 97  0  0  1  0            999 V2000
   20.9346   40.3598   -6.8675 C   0  0  0  0  0  0
   20.1083   39.7725   -8.0248 C   0  0  2  0  0  0
   19.2824   38.5684   -7.5105 C   0  0  0  0  0  0
   18.1614   38.0503   -8.4378 C   0  0  0  0  0  0
   17.0643   39.0905   -8.7240 C   0  0  0  0  0  0
   15.8419   38.5112   -9.4557 C   0  0  0  0  0  0
   14.6612   39.4944   -9.6052 C   0  0  0  0  0  0
   14.9306   40.6901  -10.5348 C   0  0  0  0  0  0
   15.4501   41.9260   -9.7827 C   0  0  0  0  0  0
   15.8598   43.0015  -10.6780 N   0  0  0  0  0  0
   17.2500   43.1415  -10.7654 C   0  0  0  0  0  0
   17.8606   44.3066  -10.2582 C   0  0  0  0  0  0
   19.2633   44.4593  -10.3080 C   0  0  0  0  0  0
   20.0503   43.4401  -10.8822 C   0  0  0  0  0  0
   19.4507   42.2647  -11.3834 C   0  0  0  0  0  0
   18.0499   42.1267  -11.3329 C   0  0  0  0  0  0
   20.2725   41.2108  -12.0624 C   0  0  0  0  0  0
   20.0601   40.9499  -13.2399 O   0  0  0  0  0  0
   21.2437   40.5784  -11.3878 N   0  0  0  0  0  0
   21.6014   40.6476   -9.9698 C   0  0  1  0  0  0
   20.9987   39.4125   -9.2414 C   0  0  0  0  0  0
   23.1450   40.7498   -9.9240 C   0  0  2  0  0  0
   23.6593   40.5537   -8.6244 O   0  0  0  0  0  0
   23.6599   42.1138  -10.4138 C   0  0  0  0  0  0
   25.0704   42.0073  -10.8384 N   0  3  0  0  0  0
   25.7865   43.2329  -11.2714 C   0  0  0  0  0  0
   25.2133   43.8455  -12.5301 C   0  0  0  0  0  0
   25.0642   44.5718  -11.2113 C   0  0  0  0  0  0
   27.2629   43.0928  -11.0942 C   0  0  0  0  0  0
   27.9856   43.8856  -10.1847 C   0  0  0  0  0  0
   29.3826   43.6997  -10.0575 C   0  0  0  0  0  0
   29.9723   42.6926  -10.8580 C   0  0  0  0  0  0
   29.1594   41.9348  -11.7238 C   0  0  0  0  0  0
   27.8295   42.1264  -11.8422 N   0  0  0  0  0  0
   30.2394   44.5794   -9.1283 C   0  0  0  0  0  0
   29.4009   45.2747   -8.0326 C   0  0  0  0  0  0
   31.3154   43.7424   -8.4092 C   0  0  0  0  0  0
   30.9334   45.6600   -9.9794 C   0  0  0  0  0  0
   19.9067   45.6559   -9.7739 C   0  0  0  0  0  0
   21.2077   45.9498   -9.7476 N   0  0  0  0  0  0
   21.2874   47.1911   -9.1334 C   0  0  0  0  0  0
   20.0161   47.5914   -8.8172 C   0  0  0  0  0  0
   19.1302   46.6275   -9.2178 O   0  0  0  0  0  0
   19.4076   40.5483   -8.3340 H   0  0  0  0  0  0
   21.1989   41.5478   -9.5090 H   0  0  0  0  0  0
   23.5563   39.9739  -10.5655 H   0  0  0  0  0  0
   20.2947   40.6170   -6.0222 H   0  0  0  0  0  0
   21.4503   41.2741   -7.1604 H   0  0  0  0  0  0
   21.6830   39.6504   -6.5130 H   0  0  0  0  0  0
   19.9645   37.7500   -7.2795 H   0  0  0  0  0  0
   18.8190   38.8358   -6.5591 H   0  0  0  0  0  0
   17.7020   37.1912   -7.9456 H   0  0  0  0  0  0
   18.5722   37.6699   -9.3716 H   0  0  0  0  0  0
   17.4920   39.8892   -9.3263 H   0  0  0  0  0  0
   16.7381   39.5355   -7.7828 H   0  0  0  0  0  0
   15.4899   37.6388   -8.9045 H   0  0  0  0  0  0
   16.1436   38.1433  -10.4366 H   0  0  0  0  0  0
   13.8139   38.9501  -10.0189 H   0  0  0  0  0  0
   14.3253   39.8366   -8.6245 H   0  0  0  0  0  0
   13.9982   40.9653  -11.0303 H   0  0  0  0  0  0
   15.6101   40.3837  -11.3289 H   0  0  0  0  0  0
   16.2669   41.6635   -9.1107 H   0  0  0  0  0  0
   14.6594   42.3066   -9.1349 H   0  0  0  0  0  0
   15.3734   43.8570  -10.4516 H   0  0  0  0  0  0
   17.2485   45.0785   -9.8152 H   0  0  0  0  0  0
   21.1202   43.5690  -10.9456 H   0  0  0  0  0  0
   17.5942   41.2370  -11.7395 H   0  0  0  0  0  0
   21.7634   39.9071  -11.9341 H   0  0  0  0  0  0
   20.3954   38.8438   -9.9493 H   0  0  0  0  0  0
   21.7812   38.7181   -8.9366 H   0  0  0  0  0  0
   23.6718   39.6201   -8.4512 H   0  0  0  0  0  0
   23.5395   42.8591   -9.6255 H   0  0  0  0  0  0
   23.0831   42.4490  -11.2741 H   0  0  0  0  0  0
   25.1174   41.3446  -11.6027 H   0  0  0  0  0  0
   25.9130   44.2685  -13.2491 H   0  0  0  0  0  0
   24.3018   43.4328  -12.9585 H   0  0  0  0  0  0
   24.0487   44.6608  -10.8328 H   0  0  0  0  0  0
   25.6680   45.4680  -11.0841 H   0  0  0  0  0  0
   27.4577   44.6335   -9.6143 H   0  0  0  0  0  0
   31.0340   42.5028  -10.8385 H   0  0  0  0  0  0
   29.5905   41.1620  -12.3427 H   0  0  0  0  0  0
   28.6962   45.9960   -8.4472 H   0  0  0  0  0  0
   30.0350   45.8302   -7.3410 H   0  0  0  0  0  0
   28.8390   44.5504   -7.4428 H   0  0  0  0  0  0
   32.0599   43.3508   -9.0992 H   0  0  0  0  0  0
   30.8668   42.9034   -7.8799 H   0  0  0  0  0  0
   31.8648   44.3379   -7.6794 H   0  0  0  0  0  0
   31.5730   45.2149  -10.7439 H   0  0  0  0  0  0
   31.5599   46.3094   -9.3655 H   0  0  0  0  0  0
   30.2054   46.2908  -10.4913 H   0  0  0  0  0  0
   22.2330   47.6875   -8.9719 H   0  0  0  0  0  0
   19.6017   48.4669   -8.3409 H   0  0  0  0  0  0
   25.5860   41.6139  -10.0614 H   0  0  0  0  0  0
  1  2  1  0  0  0
  1 47  1  0  0  0
  1 48  1  0  0  0
  1 49  1  0  0  0
  2 44  1  0  0  0
  2 21  1  0  0  0
  2  3  1  0  0  0
  3  4  1  0  0  0
  3 50  1  0  0  0
  3 51  1  0  0  0
  4  5  1  0  0  0
  4 52  1  0  0  0
  4 53  1  0  0  0
  5  6  1  0  0  0
  5 54  1  0  0  0
  5 55  1  0  0  0
  6  7  1  0  0  0
  6 56  1  0  0  0
  6 57  1  0  0  0
  7  8  1  0  0  0
  7 58  1  0  0  0
  7 59  1  0  0  0
  8  9  1  0  0  0
  8 60  1  0  0  0
  8 61  1  0  0  0
  9 10  1  0  0  0
  9 62  1  0  0  0
  9 63  1  0  0  0
 10 11  1  0  0  0
 10 64  1  0  0  0
 11 16  1  0  0  0
 11 12  2  0  0  0
 12 13  1  0  0  0
 12 65  1  0  0  0
 13 14  2  0  0  0
 13 39  1  0  0  0
 14 15  1  0  0  0
 14 66  1  0  0  0
 15 16  2  0  0  0
 15 17  1  0  0  0
 16 67  1  0  0  0
 17 18  2  0  0  0
 17 19  1  0  0  0
 19 20  1  0  0  0
 19 68  1  0  0  0
 20 45  1  0  0  0
 20 21  1  0  0  0
 20 22  1  0  0  0
 21 69  1  0  0  0
 21 70  1  0  0  0
 22 46  1  0  0  0
 22 23  1  0  0  0
 22 24  1  0  0  0
 23 71  1  0  0  0
 24 25  1  0  0  0
 24 72  1  0  0  0
 24 73  1  0  0  0
 25 26  1  0  0  0
 25 74  1  0  0  0
 25 93  1  0  0  0
 26 28  1  0  0  0
 26 27  1  0  0  0
 26 29  1  0  0  0
 27 28  1  0  0  0
 27 75  1  0  0  0
 27 76  1  0  0  0
 28 77  1  0  0  0
 28 78  1  0  0  0
 29 34  1  0  0  0
 29 30  2  0  0  0
 30 31  1  0  0  0
 30 79  1  0  0  0
 31 32  2  0  0  0
 31 35  1  0  0  0
 32 33  1  0  0  0
 32 80  1  0  0  0
 33 34  2  0  0  0
 33 81  1  0  0  0
 35 36  1  0  0  0
 35 37  1  0  0  0
 35 38  1  0  0  0
 36 82  1  0  0  0
 36 83  1  0  0  0
 36 84  1  0  0  0
 37 85  1  0  0  0
 37 86  1  0  0  0
 37 87  1  0  0  0
 38 88  1  0  0  0
 38 89  1  0  0  0
 38 90  1  0  0  0
 39 43  1  0  0  0
 39 40  2  0  0  0
 40 41  1  0  0  0
 41 42  2  0  0  0
 41 91  1  0  0  0
 42 43  1  0  0  0
 42 92  1  0  0  0
M  CHG  1  25   1
M  END
> <s_m_source_file>
BACE_59.smi

> <i_m_source_file_index>
1

> <i_lp_mmshare_version>
42013

> <i_f3d_flags>
0

> <s_epik_input>
W05IXTFbQ0gyXVtDSDJdW0NIMl1bQ0gyXVtDSDJdW0NIMl1bQ0gyXVtDQEBIXShbQ0gzXSlbQ0gyXVtDQEhdKFtOSF1DKD1PKWMoW2NIXTIpW2NIXWMoW2NIXWMxMiktYzNuW2NIXVtjSF1vMylbQ0BIXShbT0hdKVtDSDJdW05IXUM0KFtDSDJdW0NIMl00KWM1W2NIXWMoW2NIXVtjSF1uNSlDKFtDSDNdKShbQ0gzXSlbQ0gzXQ==

> <s_epik_cmdline>
J2VwaWtfcHl0aG9uJywgJy1waCcsICc3LjAnLCAnLXRuJywgJzgnLCAnLW1hJywgJzIwMCcsICctaW1hZScsICc8aW5maWxlLm1hZT4nLCAnLW9tYWUnLCAnPG91dGZpbGUubWFlPic=

> <r_epik_Ionization_Penalty>
  0.7261

> <r_epik_Ionization_Penalty_Charging>
  0.7242

> <r_epik_Ionization_Penalty_Neutral>
  0.0019

> <r_epik_State_Penalty>
  0.7548

> <r_epik_Charging_Adjusted_Penalty>
1.479

> <i_epik_Tot_Q>
1

> <i_epik_Tot_abs_Q>
1

> <s_lp_Force_Field>
OPLS_2005

> <r_lp_Energy>
44.5479

> <b_lp_Chiralities_Consistent>
1

> <s_lp_Variant>
BACE_59.smi:1-2

> <chiral flag>
1

> <version>
0

> <s_i_glide_gridfile>
second_dock_grid_2

> <i_i_glide_lignum>
117

> <i_i_glide_rotatable_bonds>
8

> <r_i_docking_score>
-2.72721

> <r_i_glide_ligand_efficiency>
-0.0634235

> <r_i_glide_ligand_efficiency_sa>
-0.222198

> <r_i_glide_ligand_efficiency_ln>
-0.572799

> <r_glide_XP_GScore>
-3.48201

> <r_i_glide_gscore>
-3.48201

> <r_i_glide_evdw>
-40.5387

> <r_i_glide_ecoul>
-11.5032

> <r_i_glide_energy>
-52.0419

> <r_i_glide_einternal>
3.09163

> <r_i_glide_emodel>
-70.3316

> <r_glide_XP_HBond>
-1.0506

> <i_i_glide_confnum>
1

> <i_i_glide_posenum>
32

> <r_i_glide_eff_state_penalty>
0.7548

> <i_glide_XP_PoseRank>
1

$$$$
BACE_59.smi:1
                    3D
 Structure written by MMmdl.
 93 97  0  0  1  0            999 V2000
   21.7589   48.1577   -6.1372 C   0  0  0  0  0  0
   21.5698   46.6745   -6.4995 C   0  0  2  0  0  0
   22.9182   45.9196   -6.4663 C   0  0  0  0  0  0
   23.3796   45.5085   -5.0558 C   0  0  0  0  0  0
   22.5897   44.3387   -4.4374 C   0  0  0  0  0  0
   22.8554   42.9874   -5.1105 C   0  0  0  0  0  0
   22.1679   41.8230   -4.3781 C   0  0  0  0  0  0
   22.2246   40.5087   -5.1703 C   0  0  0  0  0  0
   21.3232   40.5317   -6.4205 C   0  0  0  0  0  0
   22.0596   40.1925   -7.6333 N   0  0  0  0  0  0
   22.3727   41.2042   -8.5553 C   0  0  0  0  0  0
   23.6625   41.2102   -9.1270 C   0  0  0  0  0  0
   24.0235   42.1809  -10.0864 C   0  0  0  0  0  0
   23.0770   43.1510  -10.4727 C   0  0  0  0  0  0
   21.7855   43.1698   -9.9075 C   0  0  0  0  0  0
   21.4314   42.1822   -8.9561 C   0  0  0  0  0  0
   20.7907   44.1674  -10.4309 C   0  0  0  0  0  0
   20.6001   44.2490  -11.6399 O   0  0  0  0  0  0
   20.1408   45.0010   -9.6057 N   0  0  0  0  0  0
   20.2113   45.1639   -8.1579 C   0  0  1  0  0  0
   20.8849   46.5340   -7.8767 C   0  0  0  0  0  0
   18.7699   45.0560   -7.5805 C   0  0  2  0  0  0
   18.8600   44.9499   -6.1761 O   0  0  0  0  0  0
   17.9560   43.8365   -8.0918 C   0  0  0  0  0  0
   16.5129   44.0818   -8.0298 N   0  0  0  0  0  0
   15.6872   43.1279   -8.7727 C   0  0  0  0  0  0
   15.4065   43.4418  -10.2250 C   0  0  0  0  0  0
   14.3087   43.5804   -9.1961 C   0  0  0  0  0  0
   15.8931   41.7026   -8.3492 C   0  0  0  0  0  0
   16.7458   40.8155   -9.0404 C   0  0  0  0  0  0
   16.9385   39.4967   -8.5612 C   0  0  0  0  0  0
   16.2481   39.1209   -7.3858 C   0  0  0  0  0  0
   15.3943   40.0291   -6.7441 C   0  0  0  0  0  0
   15.2602   41.2762   -7.2363 N   0  3  0  0  0  0
   17.8775   38.4935   -9.2531 C   0  0  0  0  0  0
   18.3826   39.0029  -10.6202 C   0  0  0  0  0  0
   19.1118   38.2570   -8.3694 C   0  0  0  0  0  0
   17.1526   37.1503   -9.4748 C   0  0  0  0  0  0
   25.3541   42.1691  -10.6909 C   0  0  0  0  0  0
   26.3728   41.3499  -10.4385 N   0  0  0  0  0  0
   27.3930   41.7516  -11.2854 C   0  0  0  0  0  0
   26.9405   42.8214  -12.0107 C   0  0  0  0  0  0
   25.6516   43.0966  -11.6439 O   0  0  0  0  0  0
   20.9103   46.2619   -5.7414 H   0  0  0  0  0  0
   20.8192   44.3732   -7.7250 H   0  0  0  0  0  0
   18.2277   45.9708   -7.8256 H   0  0  0  0  0  0
   22.2107   48.2744   -5.1523 H   0  0  0  0  0  0
   20.8027   48.6817   -6.1168 H   0  0  0  0  0  0
   22.4003   48.6632   -6.8601 H   0  0  0  0  0  0
   22.8839   45.0343   -7.0986 H   0  0  0  0  0  0
   23.6859   46.5476   -6.9199 H   0  0  0  0  0  0
   23.3322   46.3688   -4.3898 H   0  0  0  0  0  0
   24.4341   45.2339   -5.0972 H   0  0  0  0  0  0
   22.8600   44.2548   -3.3851 H   0  0  0  0  0  0
   21.5213   44.5485   -4.4403 H   0  0  0  0  0  0
   22.5132   43.0251   -6.1431 H   0  0  0  0  0  0
   23.9284   42.8041   -5.1502 H   0  0  0  0  0  0
   22.6459   41.6818   -3.4067 H   0  0  0  0  0  0
   21.1266   42.0708   -4.1714 H   0  0  0  0  0  0
   21.8964   39.6936   -4.5226 H   0  0  0  0  0  0
   23.2579   40.2735   -5.4231 H   0  0  0  0  0  0
   20.8213   41.4955   -6.5088 H   0  0  0  0  0  0
   20.5255   39.8019   -6.2844 H   0  0  0  0  0  0
   22.7678   39.4818   -7.5134 H   0  0  0  0  0  0
   24.3810   40.4554   -8.8398 H   0  0  0  0  0  0
   23.3361   43.8834  -11.2247 H   0  0  0  0  0  0
   20.4250   42.1571   -8.5641 H   0  0  0  0  0  0
   19.5165   45.6413  -10.0736 H   0  0  0  0  0  0
   21.6382   46.7405   -8.6390 H   0  0  0  0  0  0
   20.1367   47.3183   -7.9991 H   0  0  0  0  0  0
   19.2927   44.1341   -5.9683 H   0  0  0  0  0  0
   18.2234   42.9387   -7.5321 H   0  0  0  0  0  0
   18.2032   43.6174   -9.1290 H   0  0  0  0  0  0
   16.2146   44.0927   -7.0543 H   0  0  0  0  0  0
   15.8107   44.3636  -10.6390 H   0  0  0  0  0  0
   15.3315   42.6103  -10.9230 H   0  0  0  0  0  0
   13.5118   42.8395   -9.2158 H   0  0  0  0  0  0
   13.9988   44.5917   -8.9420 H   0  0  0  0  0  0
   17.2573   41.1794   -9.9168 H   0  0  0  0  0  0
   16.3744   38.1500   -6.9408 H   0  0  0  0  0  0
   14.8601   39.8126   -5.8260 H   0  0  0  0  0  0
   17.5508   39.2461  -11.2784 H   0  0  0  0  0  0
   18.9932   38.2540  -11.1249 H   0  0  0  0  0  0
   19.0041   39.8936  -10.5207 H   0  0  0  0  0  0
   18.8431   37.8847   -7.3800 H   0  0  0  0  0  0
   19.6584   39.1894   -8.2394 H   0  0  0  0  0  0
   19.7977   37.5387   -8.8209 H   0  0  0  0  0  0
   16.8891   36.6604   -8.5363 H   0  0  0  0  0  0
   17.7828   36.4564  -10.0284 H   0  0  0  0  0  0
   16.2314   37.2857  -10.0399 H   0  0  0  0  0  0
   28.3500   41.2508  -11.3053 H   0  0  0  0  0  0
   27.3740   43.4463  -12.7776 H   0  0  0  0  0  0
   14.6909   41.9265   -6.6802 H   0  0  0  0  0  0
  1  2  1  0  0  0
  1 47  1  0  0  0
  1 48  1  0  0  0
  1 49  1  0  0  0
  2 44  1  0  0  0
  2 21  1  0  0  0
  2  3  1  0  0  0
  3  4  1  0  0  0
  3 50  1  0  0  0
  3 51  1  0  0  0
  4  5  1  0  0  0
  4 52  1  0  0  0
  4 53  1  0  0  0
  5  6  1  0  0  0
  5 54  1  0  0  0
  5 55  1  0  0  0
  6  7  1  0  0  0
  6 56  1  0  0  0
  6 57  1  0  0  0
  7  8  1  0  0  0
  7 58  1  0  0  0
  7 59  1  0  0  0
  8  9  1  0  0  0
  8 60  1  0  0  0
  8 61  1  0  0  0
  9 10  1  0  0  0
  9 62  1  0  0  0
  9 63  1  0  0  0
 10 11  1  0  0  0
 10 64  1  0  0  0
 11 16  1  0  0  0
 11 12  2  0  0  0
 12 13  1  0  0  0
 12 65  1  0  0  0
 13 14  2  0  0  0
 13 39  1  0  0  0
 14 15  1  0  0  0
 14 66  1  0  0  0
 15 16  2  0  0  0
 15 17  1  0  0  0
 16 67  1  0  0  0
 17 18  2  0  0  0
 17 19  1  0  0  0
 19 20  1  0  0  0
 19 68  1  0  0  0
 20 45  1  0  0  0
 20 21  1  0  0  0
 20 22  1  0  0  0
 21 69  1  0  0  0
 21 70  1  0  0  0
 22 46  1  0  0  0
 22 23  1  0  0  0
 22 24  1  0  0  0
 23 71  1  0  0  0
 24 25  1  0  0  0
 24 72  1  0  0  0
 24 73  1  0  0  0
 25 26  1  0  0  0
 25 74  1  0  0  0
 26 28  1  0  0  0
 26 27  1  0  0  0
 26 29  1  0  0  0
 27 28  1  0  0  0
 27 75  1  0  0  0
 27 76  1  0  0  0
 28 77  1  0  0  0
 28 78  1  0  0  0
 29 34  1  0  0  0
 29 30  2  0  0  0
 30 31  1  0  0  0
 30 79  1  0  0  0
 31 32  2  0  0  0
 31 35  1  0  0  0
 32 33  1  0  0  0
 32 80  1  0  0  0
 33 34  2  0  0  0
 33 81  1  0  0  0
 34 93  1  0  0  0
 35 36  1  0  0  0
 35 37  1  0  0  0
 35 38  1  0  0  0
 36 82  1  0  0  0
 36 83  1  0  0  0
 36 84  1  0  0  0
 37 85  1  0  0  0
 37 86  1  0  0  0
 37 87  1  0  0  0
 38 88  1  0  0  0
 38 89  1  0  0  0
 38 90  1  0  0  0
 39 43  1  0  0  0
 39 40  2  0  0  0
 40 41  1  0  0  0
 41 42  2  0  0  0
 41 91  1  0  0  0
 42 43  1  0  0  0
 42 92  1  0  0  0
M  CHG  1  34   1
M  END
> <s_m_source_file>
BACE_59.smi

> <i_m_source_file_index>
1

> <i_lp_mmshare_version>
42013

> <i_f3d_flags>
0

> <s_epik_input>
W05IXTFbQ0gyXVtDSDJdW0NIMl1bQ0gyXVtDSDJdW0NIMl1bQ0gyXVtDQEBIXShbQ0gzXSlbQ0gyXVtDQEhdKFtOSF1DKD1PKWMoW2NIXTIpW2NIXWMoW2NIXWMxMiktYzNuW2NIXVtjSF1vMylbQ0BIXShbT0hdKVtDSDJdW05IXUM0KFtDSDJdW0NIMl00KWM1W2NIXWMoW2NIXVtjSF1uNSlDKFtDSDNdKShbQ0gzXSlbQ0gzXQ==

> <s_epik_cmdline>
J2VwaWtfcHl0aG9uJywgJy1waCcsICc3LjAnLCAnLXRuJywgJzgnLCAnLW1hJywgJzIwMCcsICctaW1hZScsICc8aW5maWxlLm1hZT4nLCAnLW9tYWUnLCAnPG91dGZpbGUubWFlPic=

> <r_epik_Ionization_Penalty>
  2.3775

> <r_epik_Ionization_Penalty_Charging>
  2.3769

> <r_epik_Ionization_Penalty_Neutral>
  0.0006

> <r_epik_State_Penalty>
  2.7274

> <r_epik_Charging_Adjusted_Penalty>
5.10428

> <i_epik_Tot_Q>
1

> <i_epik_Tot_abs_Q>
1

> <s_lp_Force_Field>
OPLS_2005

> <r_lp_Energy>
61.1971

> <b_lp_Chiralities_Consistent>
1

> <s_lp_Variant>
BACE_59.smi:1-3

> <chiral flag>
1

> <version>
0

> <s_i_glide_gridfile>
second_dock_grid_2

> <i_i_glide_lignum>
118

> <i_i_glide_rotatable_bonds>
8

> <r_i_docking_score>
-3.2246

> <r_i_glide_ligand_efficiency>
-0.0749906

> <r_i_glide_ligand_efficiency_sa>
-0.262722

> <r_i_glide_ligand_efficiency_ln>
-0.677265

> <r_glide_XP_GScore>
-5.952

> <r_i_glide_gscore>
-5.952

> <r_i_glide_evdw>
-42.9941

> <r_i_glide_ecoul>
-12.5813

> <r_i_glide_energy>
-55.5754

> <r_i_glide_einternal>
3.2307

> <r_i_glide_emodel>
-70.5525

> <r_glide_XP_HBond>
-0.7

> <i_i_glide_confnum>
1

> <i_i_glide_posenum>
3

> <r_i_glide_eff_state_penalty>
2.7274

> <i_glide_XP_PoseRank>
1

$$$$
BACE_60.smi:1
                    3D
 Structure written by MMmdl.
 96 99  0  0  1  0            999 V2000
   12.8644   44.5962  -12.6760 C   0  0  0  0  0  0
   13.0534   44.9471  -11.3114 O   0  0  0  0  0  0
   13.1581   43.8210  -10.4418 C   0  0  0  0  0  0
   14.4005   42.9643  -10.6415 C   0  0  0  0  0  0
   14.3991   41.6378  -10.1668 C   0  0  0  0  0  0
   15.5436   40.8264  -10.2918 C   0  0  0  0  0  0
   16.6947   41.3480  -10.9255 C   0  0  0  0  0  0
   16.7141   42.6806  -11.3887 C   0  0  0  0  0  0
   15.5681   43.4879  -11.2383 C   0  0  0  0  0  0
   17.9586   43.2488  -11.9986 C   0  0  0  0  0  0
   18.0594   43.3485  -13.2214 O   0  0  0  0  0  0
   18.9362   43.6410  -11.1595 N   0  0  0  0  0  0
   18.8507   43.8012   -9.6977 C   0  0  1  0  0  0
   20.0986   43.1603   -9.0329 C   0  0  0  0  0  0
   19.9916   41.6424   -8.7739 C   0  0  2  0  0  0
   19.1868   41.3926   -7.4828 C   0  0  0  0  0  0
   21.4007   40.9998   -8.7064 C   0  0  0  0  0  0
   21.4872   39.4808   -8.4203 C   0  0  0  0  0  0
   21.3173   38.5406   -9.6329 C   0  0  0  0  0  0
   19.8985   38.4135  -10.2135 C   0  0  0  0  0  0
   18.8674   37.7433   -9.2840 C   0  0  0  0  0  0
   17.4241   37.9483   -9.7729 C   0  0  0  0  0  0
   16.7007   39.0861   -9.0416 C   0  0  0  0  0  0
   15.5100   39.5325   -9.7537 N   0  0  0  0  0  0
   18.5763   45.2884   -9.2959 C   0  0  2  0  0  0
   17.6111   45.8594  -10.1614 O   0  0  0  0  0  0
   19.7993   46.2413   -9.2756 C   0  0  0  0  0  0
   20.7074   46.0829   -8.1067 N   0  3  0  0  0  0
   20.3132   46.4871   -6.7204 C   0  0  0  0  0  0
   19.0842   47.4155   -6.5923 C   0  0  0  0  0  0
   18.4609   46.5270   -5.6400 O   0  0  0  0  0  0
   19.4076   45.4859   -5.9795 C   0  0  0  0  0  0
   21.5960   46.7579   -5.9424 C   0  0  0  0  0  0
   21.9224   48.0348   -5.4320 C   0  0  0  0  0  0
   23.0923   48.2402   -4.6590 C   0  0  0  0  0  0
   23.9668   47.1456   -4.4700 C   0  0  0  0  0  0
   23.6609   45.8800   -4.9981 C   0  0  0  0  0  0
   22.4753   45.6813   -5.7154 C   0  0  0  0  0  0
   23.4252   49.6211   -4.0623 C   0  0  0  0  0  0
   24.3103   50.3822   -5.0651 C   0  0  0  0  0  0
   22.1480   50.4448   -3.7765 C   0  0  0  0  0  0
   24.1940   49.5009   -2.7241 C   0  0  0  0  0  0
   17.9898   43.2554   -9.3169 H   0  0  0  0  0  0
   19.4475   41.2157   -9.6089 H   0  0  0  0  0  0
   18.0707   45.2988   -8.3357 H   0  0  0  0  0  0
   12.6234   45.4909  -13.2521 H   0  0  0  0  0  0
   12.0499   43.8842  -12.7973 H   0  0  0  0  0  0
   13.7550   44.1504  -13.1154 H   0  0  0  0  0  0
   12.2646   43.1988  -10.5355 H   0  0  0  0  0  0
   13.1679   44.1892   -9.4156 H   0  0  0  0  0  0
   13.5167   41.2469   -9.6781 H   0  0  0  0  0  0
   17.5728   40.7313  -11.0446 H   0  0  0  0  0  0
   15.5918   44.5159  -11.5715 H   0  0  0  0  0  0
   19.7769   43.9822  -11.5983 H   0  0  0  0  0  0
   20.9778   43.3792   -9.6425 H   0  0  0  0  0  0
   20.2954   43.6027   -8.0616 H   0  0  0  0  0  0
   18.9911   40.3347   -7.3165 H   0  0  0  0  0  0
   18.2118   41.8804   -7.5099 H   0  0  0  0  0  0
   19.7138   41.7610   -6.6030 H   0  0  0  0  0  0
   21.9595   41.5104   -7.9209 H   0  0  0  0  0  0
   21.9452   41.2122   -9.6276 H   0  0  0  0  0  0
   22.4950   39.3000   -8.0430 H   0  0  0  0  0  0
   20.8417   39.1831   -7.5972 H   0  0  0  0  0  0
   21.9974   38.8595  -10.4237 H   0  0  0  0  0  0
   21.6578   37.5454   -9.3431 H   0  0  0  0  0  0
   19.5423   39.3797  -10.5524 H   0  0  0  0  0  0
   19.9590   37.8202  -11.1243 H   0  0  0  0  0  0
   19.0785   36.6761   -9.2401 H   0  0  0  0  0  0
   18.9590   38.0979   -8.2600 H   0  0  0  0  0  0
   16.8509   37.0288   -9.6491 H   0  0  0  0  0  0
   17.4395   38.1509  -10.8400 H   0  0  0  0  0  0
   17.3823   39.9210   -8.8830 H   0  0  0  0  0  0
   16.4076   38.7539   -8.0440 H   0  0  0  0  0  0
   14.6436   39.2838   -9.2929 H   0  0  0  0  0  0
   17.2425   46.6327   -9.7613 H   0  0  0  0  0  0
   19.4958   47.2858   -9.3472 H   0  0  0  0  0  0
   20.3892   46.0655  -10.1769 H   0  0  0  0  0  0
   21.5167   46.6499   -8.3167 H   0  0  0  0  0  0
   19.2706   48.4004   -6.1694 H   0  0  0  0  0  0
   18.4436   47.5218   -7.4631 H   0  0  0  0  0  0
   19.8608   45.0476   -5.0879 H   0  0  0  0  0  0
   18.9505   44.6917   -6.5646 H   0  0  0  0  0  0
   21.2590   48.8597   -5.6235 H   0  0  0  0  0  0
   24.8905   47.2489   -3.9231 H   0  0  0  0  0  0
   24.3390   45.0541   -4.8420 H   0  0  0  0  0  0
   22.2542   44.6912   -6.0900 H   0  0  0  0  0  0
   25.2220   49.8255   -5.2860 H   0  0  0  0  0  0
   24.6130   51.3503   -4.6690 H   0  0  0  0  0  0
   23.7930   50.5481   -6.0096 H   0  0  0  0  0  0
   21.4376   49.8764   -3.1738 H   0  0  0  0  0  0
   21.6351   50.7597   -4.6854 H   0  0  0  0  0  0
   22.3793   51.3527   -3.2199 H   0  0  0  0  0  0
   23.6596   48.8780   -2.0063 H   0  0  0  0  0  0
   24.3360   50.4790   -2.2626 H   0  0  0  0  0  0
   25.1924   49.0823   -2.8504 H   0  0  0  0  0  0
   21.0249   45.1241   -8.0698 H   0  0  0  0  0  0
  1  2  1  0  0  0
  1 46  1  0  0  0
  1 47  1  0  0  0
  1 48  1  0  0  0
  2  3  1  0  0  0
  3  4  1  0  0  0
  3 49  1  0  0  0
  3 50  1  0  0  0
  4  9  1  0  0  0
  4  5  2  0  0  0
  5  6  1  0  0  0
  5 51  1  0  0  0
  6 24  1  0  0  0
  6  7  2  0  0  0
  7  8  1  0  0  0
  7 52  1  0  0  0
  8  9  2  0  0  0
  8 10  1  0  0  0
  9 53  1  0  0  0
 10 11  2  0  0  0
 10 12  1  0  0  0
 12 13  1  0  0  0
 12 54  1  0  0  0
 13 43  1  0  0  0
 13 14  1  0  0  0
 13 25  1  0  0  0
 14 15  1  0  0  0
 14 55  1  0  0  0
 14 56  1  0  0  0
 15 44  1  0  0  0
 15 16  1  0  0  0
 15 17  1  0  0  0
 16 57  1  0  0  0
 16 58  1  0  0  0
 16 59  1  0  0  0
 17 18  1  0  0  0
 17 60  1  0  0  0
 17 61  1  0  0  0
 18 19  1  0  0  0
 18 62  1  0  0  0
 18 63  1  0  0  0
 19 20  1  0  0  0
 19 64  1  0  0  0
 19 65  1  0  0  0
 20 21  1  0  0  0
 20 66  1  0  0  0
 20 67  1  0  0  0
 21 22  1  0  0  0
 21 68  1  0  0  0
 21 69  1  0  0  0
 22 23  1  0  0  0
 22 70  1  0  0  0
 22 71  1  0  0  0
 23 24  1  0  0  0
 23 72  1  0  0  0
 23 73  1  0  0  0
 24 74  1  0  0  0
 25 45  1  0  0  0
 25 26  1  0  0  0
 25 27  1  0  0  0
 26 75  1  0  0  0
 27 28  1  0  0  0
 27 76  1  0  0  0
 27 77  1  0  0  0
 28 29  1  0  0  0
 28 78  1  0  0  0
 28 96  1  0  0  0
 29 32  1  0  0  0
 29 30  1  0  0  0
 29 33  1  0  0  0
 30 31  1  0  0  0
 30 79  1  0  0  0
 30 80  1  0  0  0
 31 32  1  0  0  0
 32 81  1  0  0  0
 32 82  1  0  0  0
 33 38  1  0  0  0
 33 34  2  0  0  0
 34 35  1  0  0  0
 34 83  1  0  0  0
 35 36  2  0  0  0
 35 39  1  0  0  0
 36 37  1  0  0  0
 36 84  1  0  0  0
 37 38  2  0  0  0
 37 85  1  0  0  0
 38 86  1  0  0  0
 39 40  1  0  0  0
 39 41  1  0  0  0
 39 42  1  0  0  0
 40 87  1  0  0  0
 40 88  1  0  0  0
 40 89  1  0  0  0
 41 90  1  0  0  0
 41 91  1  0  0  0
 41 92  1  0  0  0
 42 93  1  0  0  0
 42 94  1  0  0  0
 42 95  1  0  0  0
M  CHG  1  28   1
M  END
> <s_m_source_file>
BACE_60.smi

> <i_m_source_file_index>
1

> <i_lp_mmshare_version>
42013

> <i_f3d_flags>
0

> <s_epik_input>
W2NIXTFbY0hdW2NIXWMoQyhbQ0gzXSkoW0NIM10pW0NIM10pW2NIXWMxQzIoW0NIMl1PW0NIMl0yKVtOSF1bQ0gyXVtDQEBIXShbT0hdKVtDQEBIXShbTkhdQyg9TyljKFtjSF0zKVtjSF1jKFtjSF1jMzQpW0NIMl1PW0NIM10pW0NIMl1bQ0BIXShbQ0gzXSlbQ0gyXVtDSDJdW0NIMl1bQ0gyXVtDSDJdW0NIMl1bQ0gyXVtOSF00

> <s_epik_cmdline>
J2VwaWtfcHl0aG9uJywgJy1waCcsICc3LjAnLCAnLXRuJywgJzgnLCAnLW1hJywgJzIwMCcsICctaW1hZScsICc8aW5maWxlLm1hZT4nLCAnLW9tYWUnLCAnPG91dGZpbGUubWFlPic=

> <r_epik_Ionization_Penalty>
  0.2026

> <r_epik_Ionization_Penalty_Charging>
  0.2020

> <r_epik_Ionization_Penalty_Neutral>
  0.0005

> <r_epik_State_Penalty>
  0.1919

> <r_epik_Charging_Adjusted_Penalty>
0.393931

> <i_epik_Tot_Q>
1

> <i_epik_Tot_abs_Q>
1

> <s_lp_Force_Field>
OPLS_2005

> <r_lp_Energy>
50.3916

> <b_lp_Chiralities_Consistent>
1

> <s_lp_Variant>
BACE_60.smi:1-1

> <chiral flag>
1

> <version>
0

> <s_i_glide_gridfile>
second_dock_grid_2

> <i_i_glide_lignum>
119

> <i_i_glide_rotatable_bonds>
9

> <r_i_docking_score>
-3.99174

> <r_i_glide_ligand_efficiency>
-0.0950414

> <r_i_glide_ligand_efficiency_sa>
-0.330366

> <r_i_glide_ligand_efficiency_ln>
-0.842553

> <r_glide_XP_GScore>
-4.18364

> <r_i_glide_gscore>
-4.18364

> <r_i_glide_evdw>
-40.1435

> <r_i_glide_ecoul>
-13.4062

> <r_i_glide_energy>
-53.5497

> <r_i_glide_einternal>
3.57707

> <r_i_glide_emodel>
-74.9293

> <r_glide_XP_HBond>
-1.50588

> <i_i_glide_confnum>
1

> <i_i_glide_posenum>
7

> <r_i_glide_eff_state_penalty>
0.1919

> <i_glide_XP_PoseRank>
1

$$$$
BACE_60.smi:1
                    3D
 Structure written by MMmdl.
 95 98  0  0  1  0            999 V2000
   30.5325   42.3335  -12.3665 C   0  0  0  0  0  0
   29.6098   41.4426  -11.7589 O   0  0  0  0  0  0
   28.2494   41.7871  -11.9955 C   0  0  0  0  0  0
   27.6425   42.7017  -10.9413 C   0  0  0  0  0  0
   28.4227   43.2342   -9.8883 C   0  0  0  0  0  0
   27.8403   44.0525   -8.8985 C   0  0  0  0  0  0
   26.4566   44.3200   -8.9652 C   0  0  0  0  0  0
   25.6628   43.7932   -9.9997 C   0  0  0  0  0  0
   26.2665   43.0067  -11.0036 C   0  0  0  0  0  0
   24.1970   44.0976  -10.0386 C   0  0  0  0  0  0
   23.7173   44.6992  -10.9976 O   0  0  0  0  0  0
   23.4425   43.7392   -8.9837 N   0  0  0  0  0  0
   23.6934   42.6680   -8.0037 C   0  0  1  0  0  0
   22.8023   42.8887   -6.7516 C   0  0  0  0  0  0
   23.3533   43.8240   -5.6469 C   0  0  2  0  0  0
   22.4717   43.6830   -4.3886 C   0  0  0  0  0  0
   23.4737   45.2986   -6.0930 C   0  0  0  0  0  0
   24.2429   46.1981   -5.1045 C   0  0  0  0  0  0
   24.5061   47.6225   -5.6303 C   0  0  0  0  0  0
   25.6150   47.7039   -6.6943 C   0  0  0  0  0  0
   27.0466   47.5721   -6.1299 C   0  0  0  0  0  0
   28.0014   46.8269   -7.0786 C   0  0  0  0  0  0
   28.0937   45.3228   -6.7634 C   0  0  0  0  0  0
   28.6524   44.5557   -7.8716 N   0  0  0  0  0  0
   23.3846   41.2810   -8.6419 C   0  0  2  0  0  0
   24.4211   40.9500   -9.5465 O   0  0  0  0  0  0
   21.9901   41.1991   -9.3131 C   0  0  0  0  0  0
   21.9634   40.2334  -10.4067 N   0  0  0  0  0  0
   20.7729   40.3232  -11.2508 C   0  0  0  0  0  0
   20.9444   39.7811  -12.6771 C   0  0  0  0  0  0
   20.2419   40.9125  -13.2380 O   0  0  0  0  0  0
   20.5536   41.6367  -12.0316 C   0  0  0  0  0  0
   19.5792   39.6840  -10.5142 C   0  0  0  0  0  0
   18.4174   40.4117  -10.1462 C   0  0  0  0  0  0
   17.3380   39.7872   -9.4649 C   0  0  0  0  0  0
   17.4489   38.4139   -9.1541 C   0  0  0  0  0  0
   18.5977   37.6861   -9.4978 C   0  0  0  0  0  0
   19.6562   38.3189  -10.1686 C   0  0  0  0  0  0
   16.0547   40.5415   -9.0602 C   0  0  0  0  0  0
   16.1268   42.0584   -9.3439 C   0  0  0  0  0  0
   14.8620   39.9653   -9.8475 C   0  0  0  0  0  0
   15.7864   40.3713   -7.5486 C   0  0  0  0  0  0
   24.7333   42.6738   -7.6770 H   0  0  0  0  0  0
   24.3513   43.4703   -5.3869 H   0  0  0  0  0  0
   23.4418   40.5101   -7.8730 H   0  0  0  0  0  0
   31.5474   42.0406  -12.1032 H   0  0  0  0  0  0
   30.3807   43.3603  -12.0333 H   0  0  0  0  0  0
   30.4480   42.3025  -13.4538 H   0  0  0  0  0  0
   27.6717   40.8633  -12.0004 H   0  0  0  0  0  0
   28.1141   42.2252  -12.9893 H   0  0  0  0  0  0
   29.4766   43.0089   -9.8300 H   0  0  0  0  0  0
   25.9771   44.9348   -8.2248 H   0  0  0  0  0  0
   25.6627   42.5968  -11.7997 H   0  0  0  0  0  0
   22.4901   44.0664   -9.0177 H   0  0  0  0  0  0
   22.6481   41.9179   -6.2809 H   0  0  0  0  0  0
   21.8049   43.2115   -7.0524 H   0  0  0  0  0  0
   21.4537   44.0214   -4.5712 H   0  0  0  0  0  0
   22.8601   44.2538   -3.5471 H   0  0  0  0  0  0
   22.4194   42.6457   -4.0585 H   0  0  0  0  0  0
   23.9925   45.3337   -7.0452 H   0  0  0  0  0  0
   22.4825   45.7135   -6.2764 H   0  0  0  0  0  0
   25.1905   45.7299   -4.8413 H   0  0  0  0  0  0
   23.6792   46.2772   -4.1771 H   0  0  0  0  0  0
   24.7678   48.2759   -4.7984 H   0  0  0  0  0  0
   23.5786   48.0229   -6.0418 H   0  0  0  0  0  0
   25.4363   46.9575   -7.4647 H   0  0  0  0  0  0
   25.5423   48.6607   -7.2139 H   0  0  0  0  0  0
   27.0447   47.0778   -5.1572 H   0  0  0  0  0  0
   27.4327   48.5742   -5.9383 H   0  0  0  0  0  0
   29.0030   47.2557   -6.9993 H   0  0  0  0  0  0
   27.6957   46.9928   -8.1142 H   0  0  0  0  0  0
   27.1233   44.9215   -6.4719 H   0  0  0  0  0  0
   28.7349   45.1802   -5.8922 H   0  0  0  0  0  0
   29.6394   44.3339   -7.8560 H   0  0  0  0  0  0
   24.4584   40.0014   -9.6394 H   0  0  0  0  0  0
   21.6959   42.1774   -9.6977 H   0  0  0  0  0  0
   21.2391   40.9445   -8.5605 H   0  0  0  0  0  0
   22.7977   40.3643  -10.9822 H   0  0  0  0  0  0
   21.9819   39.7488  -13.0220 H   0  0  0  0  0  0
   20.4605   38.8244  -12.8396 H   0  0  0  0  0  0
   21.4662   42.2249  -12.1532 H   0  0  0  0  0  0
   19.7447   42.2804  -11.6959 H   0  0  0  0  0  0
   18.3611   41.4575  -10.3819 H   0  0  0  0  0  0
   16.6509   37.9033   -8.6416 H   0  0  0  0  0  0
   18.6667   36.6398   -9.2399 H   0  0  0  0  0  0
   20.5391   37.7509  -10.4169 H   0  0  0  0  0  0
   16.9496   42.5282   -8.8026 H   0  0  0  0  0  0
   15.2119   42.5603   -9.0251 H   0  0  0  0  0  0
   16.2506   42.2726  -10.4065 H   0  0  0  0  0  0
   14.6935   38.9123   -9.6191 H   0  0  0  0  0  0
   15.0215   40.0424  -10.9237 H   0  0  0  0  0  0
   13.9345   40.4903   -9.6159 H   0  0  0  0  0  0
   15.6173   39.3328   -7.2642 H   0  0  0  0  0  0
   14.8992   40.9216   -7.2313 H   0  0  0  0  0  0
   16.6193   40.7356   -6.9496 H   0  0  0  0  0  0
  1  2  1  0  0  0
  1 46  1  0  0  0
  1 47  1  0  0  0
  1 48  1  0  0  0
  2  3  1  0  0  0
  3  4  1  0  0  0
  3 49  1  0  0  0
  3 50  1  0  0  0
  4  9  1  0  0  0
  4  5  2  0  0  0
  5  6  1  0  0  0
  5 51  1  0  0  0
  6 24  1  0  0  0
  6  7  2  0  0  0
  7  8  1  0  0  0
  7 52  1  0  0  0
  8  9  2  0  0  0
  8 10  1  0  0  0
  9 53  1  0  0  0
 10 11  2  0  0  0
 10 12  1  0  0  0
 12 13  1  0  0  0
 12 54  1  0  0  0
 13 43  1  0  0  0
 13 14  1  0  0  0
 13 25  1  0  0  0
 14 15  1  0  0  0
 14 55  1  0  0  0
 14 56  1  0  0  0
 15 44  1  0  0  0
 15 16  1  0  0  0
 15 17  1  0  0  0
 16 57  1  0  0  0
 16 58  1  0  0  0
 16 59  1  0  0  0
 17 18  1  0  0  0
 17 60  1  0  0  0
 17 61  1  0  0  0
 18 19  1  0  0  0
 18 62  1  0  0  0
 18 63  1  0  0  0
 19 20  1  0  0  0
 19 64  1  0  0  0
 19 65  1  0  0  0
 20 21  1  0  0  0
 20 66  1  0  0  0
 20 67  1  0  0  0
 21 22  1  0  0  0
 21 68  1  0  0  0
 21 69  1  0  0  0
 22 23  1  0  0  0
 22 70  1  0  0  0
 22 71  1  0  0  0
 23 24  1  0  0  0
 23 72  1  0  0  0
 23 73  1  0  0  0
 24 74  1  0  0  0
 25 45  1  0  0  0
 25 26  1  0  0  0
 25 27  1  0  0  0
 26 75  1  0  0  0
 27 28  1  0  0  0
 27 76  1  0  0  0
 27 77  1  0  0  0
 28 29  1  0  0  0
 28 78  1  0  0  0
 29 32  1  0  0  0
 29 30  1  0  0  0
 29 33  1  0  0  0
 30 31  1  0  0  0
 30 79  1  0  0  0
 30 80  1  0  0  0
 31 32  1  0  0  0
 32 81  1  0  0  0
 32 82  1  0  0  0
 33 38  1  0  0  0
 33 34  2  0  0  0
 34 35  1  0  0  0
 34 83  1  0  0  0
 35 36  2  0  0  0
 35 39  1  0  0  0
 36 37  1  0  0  0
 36 84  1  0  0  0
 37 38  2  0  0  0
 37 85  1  0  0  0
 38 86  1  0  0  0
 39 40  1  0  0  0
 39 41  1  0  0  0
 39 42  1  0  0  0
 40 87  1  0  0  0
 40 88  1  0  0  0
 40 89  1  0  0  0
 41 90  1  0  0  0
 41 91  1  0  0  0
 41 92  1  0  0  0
 42 93  1  0  0  0
 42 94  1  0  0  0
 42 95  1  0  0  0
M  END
> <s_m_source_file>
BACE_60.smi

> <i_m_source_file_index>
1

> <i_lp_mmshare_version>
42013

> <i_f3d_flags>
0

> <s_epik_input>
W2NIXTFbY0hdW2NIXWMoQyhbQ0gzXSkoW0NIM10pW0NIM10pW2NIXWMxQzIoW0NIMl1PW0NIMl0yKVtOSF1bQ0gyXVtDQEBIXShbT0hdKVtDQEBIXShbTkhdQyg9TyljKFtjSF0zKVtjSF1jKFtjSF1jMzQpW0NIMl1PW0NIM10pW0NIMl1bQ0BIXShbQ0gzXSlbQ0gyXVtDSDJdW0NIMl1bQ0gyXVtDSDJdW0NIMl1bQ0gyXVtOSF00

> <s_epik_cmdline>
J2VwaWtfcHl0aG9uJywgJy1waCcsICc3LjAnLCAnLXRuJywgJzgnLCAnLW1hJywgJzIwMCcsICctaW1hZScsICc8aW5maWxlLm1hZT4nLCAnLW9tYWUnLCAnPG91dGZpbGUubWFlPic=

> <r_epik_Ionization_Penalty>
  0.7362

> <r_epik_Ionization_Penalty_Charging>
  0.0000

> <r_epik_Ionization_Penalty_Neutral>
  0.7362

> <r_epik_State_Penalty>
  0.7613

> <r_epik_Charging_Adjusted_Penalty>
0.761291

> <i_epik_Tot_Q>
0

> <i_epik_Tot_abs_Q>
0

> <s_lp_Force_Field>
OPLS_2005

> <r_lp_Energy>
58.7869

> <b_lp_Chiralities_Consistent>
1

> <s_lp_Variant>
BACE_60.smi:1-2

> <chiral flag>
1

> <version>
0

> <s_i_glide_gridfile>
second_dock_grid_2

> <i_i_glide_lignum>
120

> <i_i_glide_rotatable_bonds>
9

> <r_i_docking_score>
-3.36216

> <r_i_glide_ligand_efficiency>
-0.0800515

> <r_i_glide_ligand_efficiency_sa>
-0.278261

> <r_i_glide_ligand_efficiency_ln>
-0.709666

> <r_glide_XP_GScore>
-4.12346

> <r_i_glide_gscore>
-4.12346

> <r_i_glide_evdw>
-42.215

> <r_i_glide_ecoul>
-7.16748

> <r_i_glide_energy>
-49.3825

> <r_i_glide_einternal>
9.62144

> <r_i_glide_emodel>
-64.0817

> <r_glide_XP_HBond>
-1.35978

> <i_i_glide_confnum>
1

> <i_i_glide_posenum>
11

> <r_i_glide_eff_state_penalty>
0.7613

> <i_glide_XP_PoseRank>
1

$$$$
BACE_61.smi:1
                    3D
 Structure written by MMmdl.
 87 89  0  0  1  0            999 V2000
   21.2445   40.8329   -5.4012 C   0  0  0  0  0  0
   22.3423   40.4853   -6.2331 O   0  0  0  0  0  0
   22.2441   39.1850   -6.7979 C   0  0  0  0  0  0
   21.1779   39.0768   -7.8633 C   0  0  0  0  0  0
   19.9037   38.5502   -7.5709 C   0  0  0  0  0  0
   18.9217   38.4516   -8.5775 C   0  0  0  0  0  0
   19.2264   38.9194   -9.8813 C   0  0  0  0  0  0
   20.4851   39.5014  -10.1577 C   0  0  0  0  0  0
   21.4711   39.5258   -9.1576 C   0  0  0  0  0  0
   20.7813   40.0833  -11.5043 C   0  0  0  0  0  0
   20.8599   39.3500  -12.4832 O   0  0  0  0  0  0
   20.9695   41.4125  -11.6277 N   0  0  0  0  0  0
   20.9659   42.5368  -10.6710 C   0  0  1  0  0  0
   19.7819   42.5602   -9.6724 C   0  0  0  0  0  0
   18.3649   42.4757  -10.2781 C   0  0  2  0  0  0
   18.0233   43.7331  -11.1020 C   0  0  0  0  0  0
   17.3597   42.2293   -9.1342 C   0  0  0  0  0  0
   15.8972   42.0825   -9.5809 C   0  0  0  0  0  0
   14.9510   41.6500   -8.4507 C   0  0  0  0  0  0
   15.1662   40.2443   -7.8399 C   0  0  0  0  0  0
   14.7375   39.0604   -8.7310 C   0  0  0  0  0  0
   15.7958   38.5629   -9.7360 C   0  0  0  0  0  0
   16.7202   37.4486   -9.2164 C   0  0  0  0  0  0
   17.6763   37.9074   -8.2233 N   0  0  0  0  0  0
   22.3359   42.7548   -9.9688 C   0  0  2  0  0  0
   22.3785   44.0739   -9.4613 O   0  0  0  0  0  0
   23.5596   42.6046  -10.9026 C   0  0  0  0  0  0
   24.3358   41.3833  -10.6052 N   0  3  0  0  0  0
   25.4374   41.5202   -9.6400 C   0  0  0  0  0  0
   26.5376   42.4437  -10.1339 C   0  0  0  0  0  0
   27.4930   41.9772  -11.0604 C   0  0  0  0  0  0
   28.5091   42.8436  -11.5328 C   0  0  0  0  0  0
   28.5427   44.1722  -11.0674 C   0  0  0  0  0  0
   27.6063   44.6506  -10.1310 C   0  0  0  0  0  0
   26.6025   43.7703   -9.6616 C   0  0  0  0  0  0
   27.7327   45.9640   -9.7335 O   0  0  0  0  0  0
   26.7973   46.4733   -8.7932 C   0  0  0  0  0  0
   29.4829   42.4786  -12.4360 O   0  0  0  0  0  0
   29.6552   41.0965  -12.7013 C   0  0  0  0  0  0
   20.8394   43.4003  -11.3241 H   0  0  0  0  0  0
   18.3144   41.6139  -10.9443 H   0  0  0  0  0  0
   22.4320   42.1006   -9.1025 H   0  0  0  0  0  0
   21.4270   41.8058   -4.9443 H   0  0  0  0  0  0
   21.1112   40.1074   -4.5981 H   0  0  0  0  0  0
   20.3152   40.9024   -5.9670 H   0  0  0  0  0  0
   23.2077   38.9530   -7.2518 H   0  0  0  0  0  0
   22.0748   38.4277   -6.0399 H   0  0  0  0  0  0
   19.6826   38.2120   -6.5680 H   0  0  0  0  0  0
   18.4930   38.8713  -10.6722 H   0  0  0  0  0  0
   22.4542   39.9063   -9.3676 H   0  0  0  0  0  0
   21.1580   41.6892  -12.5793 H   0  0  0  0  0  0
   19.9126   41.7676   -8.9376 H   0  0  0  0  0  0
   19.8327   43.4762   -9.0836 H   0  0  0  0  0  0
   18.0317   44.6289  -10.4804 H   0  0  0  0  0  0
   17.0395   43.6558  -11.5626 H   0  0  0  0  0  0
   18.7295   43.8848  -11.9171 H   0  0  0  0  0  0
   17.6623   41.3201   -8.6154 H   0  0  0  0  0  0
   17.4281   43.0285   -8.3954 H   0  0  0  0  0  0
   15.5467   43.0472   -9.9453 H   0  0  0  0  0  0
   15.8109   41.4084  -10.4301 H   0  0  0  0  0  0
   15.0138   42.3816   -7.6431 H   0  0  0  0  0  0
   13.9375   41.7230   -8.8401 H   0  0  0  0  0  0
   16.1844   40.1127   -7.4764 H   0  0  0  0  0  0
   14.5487   40.1978   -6.9406 H   0  0  0  0  0  0
   14.4438   38.2265   -8.0920 H   0  0  0  0  0  0
   13.8278   39.3371   -9.2661 H   0  0  0  0  0  0
   15.2601   38.1503  -10.5855 H   0  0  0  0  0  0
   16.3838   39.3819  -10.1373 H   0  0  0  0  0  0
   16.1210   36.6555   -8.7683 H   0  0  0  0  0  0
   17.2594   36.9856  -10.0422 H   0  0  0  0  0  0
   17.4960   37.6108   -7.2686 H   0  0  0  0  0  0
   21.7079   44.1690   -8.8003 H   0  0  0  0  0  0
   23.2473   42.5520  -11.9454 H   0  0  0  0  0  0
   24.2018   43.4843  -10.8679 H   0  0  0  0  0  0
   23.7095   40.6589  -10.2893 H   0  0  0  0  0  0
   25.0323   41.8688   -8.6898 H   0  0  0  0  0  0
   25.8599   40.5306   -9.4718 H   0  0  0  0  0  0
   27.4318   40.9521  -11.3982 H   0  0  0  0  0  0
   29.3136   44.8380  -11.4283 H   0  0  0  0  0  0
   25.8628   44.0985   -8.9470 H   0  0  0  0  0  0
   27.0287   47.5178   -8.5827 H   0  0  0  0  0  0
   26.8443   45.9296   -7.8489 H   0  0  0  0  0  0
   25.7795   46.4344   -9.1846 H   0  0  0  0  0  0
   30.5228   40.9539  -13.3444 H   0  0  0  0  0  0
   28.8033   40.6705  -13.2261 H   0  0  0  0  0  0
   29.8195   40.5471  -11.7739 H   0  0  0  0  0  0
   24.7248   41.0673  -11.4860 H   0  0  0  0  0  0
  1  2  1  0  0  0
  1 43  1  0  0  0
  1 44  1  0  0  0
  1 45  1  0  0  0
  2  3  1  0  0  0
  3  4  1  0  0  0
  3 46  1  0  0  0
  3 47  1  0  0  0
  4  9  1  0  0  0
  4  5  2  0  0  0
  5  6  1  0  0  0
  5 48  1  0  0  0
  6 24  1  0  0  0
  6  7  2  0  0  0
  7  8  1  0  0  0
  7 49  1  0  0  0
  8  9  2  0  0  0
  8 10  1  0  0  0
  9 50  1  0  0  0
 10 11  2  0  0  0
 10 12  1  0  0  0
 12 13  1  0  0  0
 12 51  1  0  0  0
 13 40  1  0  0  0
 13 14  1  0  0  0
 13 25  1  0  0  0
 14 15  1  0  0  0
 14 52  1  0  0  0
 14 53  1  0  0  0
 15 41  1  0  0  0
 15 16  1  0  0  0
 15 17  1  0  0  0
 16 54  1  0  0  0
 16 55  1  0  0  0
 16 56  1  0  0  0
 17 18  1  0  0  0
 17 57  1  0  0  0
 17 58  1  0  0  0
 18 19  1  0  0  0
 18 59  1  0  0  0
 18 60  1  0  0  0
 19 20  1  0  0  0
 19 61  1  0  0  0
 19 62  1  0  0  0
 20 21  1  0  0  0
 20 63  1  0  0  0
 20 64  1  0  0  0
 21 22  1  0  0  0
 21 65  1  0  0  0
 21 66  1  0  0  0
 22 23  1  0  0  0
 22 67  1  0  0  0
 22 68  1  0  0  0
 23 24  1  0  0  0
 23 69  1  0  0  0
 23 70  1  0  0  0
 24 71  1  0  0  0
 25 42  1  0  0  0
 25 26  1  0  0  0
 25 27  1  0  0  0
 26 72  1  0  0  0
 27 28  1  0  0  0
 27 73  1  0  0  0
 27 74  1  0  0  0
 28 29  1  0  0  0
 28 75  1  0  0  0
 28 87  1  0  0  0
 29 30  1  0  0  0
 29 76  1  0  0  0
 29 77  1  0  0  0
 30 35  1  0  0  0
 30 31  2  0  0  0
 31 32  1  0  0  0
 31 78  1  0  0  0
 32 33  2  0  0  0
 32 38  1  0  0  0
 33 34  1  0  0  0
 33 79  1  0  0  0
 34 35  2  0  0  0
 34 36  1  0  0  0
 35 80  1  0  0  0
 36 37  1  0  0  0
 37 81  1  0  0  0
 37 82  1  0  0  0
 37 83  1  0  0  0
 38 39  1  0  0  0
 39 84  1  0  0  0
 39 85  1  0  0  0
 39 86  1  0  0  0
M  CHG  1  28   1
M  END
> <s_m_source_file>
BACE_61.smi

> <i_m_source_file_index>
1

> <i_lp_mmshare_version>
42013

> <i_f3d_flags>
0

> <s_epik_input>
W05IXTFbQ0gyXVtDSDJdW0NIMl1bQ0gyXVtDSDJdW0NIMl1bQ0gyXVtDQEBIXShbQ0gzXSlbQ0gyXVtDQEhdKFtOSF1DKD1PKWMoW2NIXTIpW2NIXWMoW2NIXWMxMilbQ0gyXU9bQ0gzXSlbQ0BIXShbT0hdKVtDSDJdW05IXVtDSDJdYzNbY0hdYyhPW0NIM10pW2NIXWMoW2NIXTMpT1tDSDNd

> <s_epik_cmdline>
J2VwaWtfcHl0aG9uJywgJy1waCcsICc3LjAnLCAnLXRuJywgJzgnLCAnLW1hJywgJzIwMCcsICctaW1hZScsICc8aW5maWxlLm1hZT4nLCAnLW9tYWUnLCAnPG91dGZpbGUubWFlPic=

> <r_lp_tautomer_probability>
1

> <r_epik_Ionization_Penalty>
  0.0186

> <r_epik_Ionization_Penalty_Charging>
  0.0181

> <r_epik_Ionization_Penalty_Neutral>
  0.0006

> <r_epik_State_Penalty>
  0.0144

> <r_epik_Charging_Adjusted_Penalty>
0.032455

> <i_epik_Tot_Q>
1

> <i_epik_Tot_abs_Q>
1

> <s_lp_Force_Field>
OPLS_2005

> <r_lp_Energy>
42.1782

> <b_lp_Chiralities_Consistent>
1

> <s_lp_Variant>
BACE_61.smi:1-1

> <chiral flag>
1

> <version>
0

> <s_i_glide_gridfile>
second_dock_grid_2

> <i_i_glide_lignum>
121

> <i_i_glide_rotatable_bonds>
10

> <r_i_docking_score>
-4.7867

> <r_i_glide_ligand_efficiency>
-0.122736

> <r_i_glide_ligand_efficiency_sa>
-0.416223

> <r_i_glide_ligand_efficiency_ln>
-1.0264

> <r_glide_XP_GScore>
-4.8011

> <r_i_glide_gscore>
-4.8011

> <r_i_glide_evdw>
-42.1601

> <r_i_glide_ecoul>
-8.53745

> <r_i_glide_energy>
-50.6976

> <r_i_glide_einternal>
6.42751

> <r_i_glide_emodel>
-71.1295

> <r_glide_XP_HBond>
-0.226916

> <i_i_glide_confnum>
1

> <i_i_glide_posenum>
2

> <r_i_glide_eff_state_penalty>
0.0144

> <i_glide_XP_PoseRank>
1

$$$$
BACE_61.smi:1
                    3D
 Structure written by MMmdl.
 86 88  0  0  1  0            999 V2000
   20.0237   42.7388   -1.6098 C   0  0  0  0  0  0
   20.4613   42.6280   -2.9514 O   0  0  0  0  0  0
   20.9411   41.3320   -3.2737 C   0  0  0  0  0  0
   21.4201   41.2594   -4.7100 C   0  0  0  0  0  0
   21.0988   40.1501   -5.5166 C   0  0  0  0  0  0
   21.5497   40.0567   -6.8473 C   0  0  0  0  0  0
   22.2923   41.1289   -7.3905 C   0  0  0  0  0  0
   22.5567   42.2770   -6.6129 C   0  0  0  0  0  0
   22.1802   42.3110   -5.2557 C   0  0  0  0  0  0
   23.2020   43.4601   -7.2574 C   0  0  0  0  0  0
   24.3774   43.4021   -7.6059 O   0  0  0  0  0  0
   22.4561   44.5556   -7.4937 N   0  0  0  0  0  0
   21.0541   44.8924   -7.1790 C   0  0  1  0  0  0
   19.9955   43.8326   -7.5961 C   0  0  0  0  0  0
   20.0041   43.3769   -9.0743 C   0  0  2  0  0  0
   19.6454   44.5319  -10.0298 C   0  0  0  0  0  0
   19.0399   42.1786   -9.2261 C   0  0  0  0  0  0
   18.9135   41.6010  -10.6489 C   0  0  0  0  0  0
   18.1135   40.2866  -10.7114 C   0  0  0  0  0  0
   18.7111   39.0744   -9.9634 C   0  0  0  0  0  0
   20.0148   38.5134  -10.5624 C   0  0  0  0  0  0
   21.3238   39.1697  -10.0748 C   0  0  0  0  0  0
   21.9312   38.5559   -8.8008 C   0  0  0  0  0  0
   21.2116   38.9123   -7.5846 N   0  0  0  0  0  0
   20.8743   45.4287   -5.7302 C   0  0  2  0  0  0
   19.5738   45.9842   -5.6453 O   0  0  0  0  0  0
   21.8537   46.5798   -5.4076 C   0  0  0  0  0  0
   23.0507   46.1724   -4.6569 N   0  0  0  0  0  0
   24.1248   47.1768   -4.5989 C   0  0  0  0  0  0
   23.7025   48.5005   -3.9752 C   0  0  0  0  0  0
   24.1147   48.8750   -2.6794 C   0  0  0  0  0  0
   23.6601   50.0918   -2.1072 C   0  0  0  0  0  0
   22.7590   50.8957   -2.8394 C   0  0  0  0  0  0
   22.3607   50.5472   -4.1488 C   0  0  0  0  0  0
   22.8774   49.3633   -4.7163 C   0  0  0  0  0  0
   21.4892   51.3662   -4.8357 O   0  0  0  0  0  0
   20.8593   50.8393   -5.9965 C   0  0  0  0  0  0
   24.0181   50.5300   -0.8499 O   0  0  0  0  0  0
   25.0743   49.8551   -0.1787 C   0  0  0  0  0  0
   20.8711   45.7566   -7.8164 H   0  0  0  0  0  0
   21.0032   43.0257   -9.3325 H   0  0  0  0  0  0
   20.9257   44.6406   -4.9811 H   0  0  0  0  0  0
   19.6603   43.7480   -1.4263 H   0  0  0  0  0  0
   20.8399   42.5457   -0.9128 H   0  0  0  0  0  0
   19.2091   42.0448   -1.4016 H   0  0  0  0  0  0
   21.7727   41.0670   -2.6176 H   0  0  0  0  0  0
   20.1500   40.5969   -3.1119 H   0  0  0  0  0  0
   20.5015   39.3510   -5.1134 H   0  0  0  0  0  0
   22.6236   41.1105   -8.4161 H   0  0  0  0  0  0
   22.4345   43.1581   -4.6371 H   0  0  0  0  0  0
   22.9611   45.2886   -7.9691 H   0  0  0  0  0  0
   20.0665   42.9655   -6.9431 H   0  0  0  0  0  0
   18.9986   44.2246   -7.3962 H   0  0  0  0  0  0
   18.6472   44.9213   -9.8276 H   0  0  0  0  0  0
   19.6749   44.2168  -11.0727 H   0  0  0  0  0  0
   20.3505   45.3572   -9.9456 H   0  0  0  0  0  0
   19.3873   41.3944   -8.5546 H   0  0  0  0  0  0
   18.0458   42.4530   -8.8689 H   0  0  0  0  0  0
   18.3988   42.3266  -11.2770 H   0  0  0  0  0  0
   19.8911   41.4714  -11.1091 H   0  0  0  0  0  0
   17.1134   40.4716  -10.3181 H   0  0  0  0  0  0
   17.9718   40.0142  -11.7568 H   0  0  0  0  0  0
   18.8251   39.2747   -8.8986 H   0  0  0  0  0  0
   17.9661   38.2778  -10.0153 H   0  0  0  0  0  0
   20.0587   37.4466  -10.3480 H   0  0  0  0  0  0
   19.9574   38.5824  -11.6483 H   0  0  0  0  0  0
   22.0605   39.0434  -10.8647 H   0  0  0  0  0  0
   21.2156   40.2434   -9.9553 H   0  0  0  0  0  0
   21.9654   37.4695   -8.8895 H   0  0  0  0  0  0
   22.9688   38.8741   -8.7016 H   0  0  0  0  0  0
   20.6669   38.1901   -7.1343 H   0  0  0  0  0  0
   18.9737   45.3671   -6.0401 H   0  0  0  0  0  0
   22.1439   47.0600   -6.3425 H   0  0  0  0  0  0
   21.3259   47.3447   -4.8406 H   0  0  0  0  0  0
   23.4268   45.3052   -5.0323 H   0  0  0  0  0  0
   24.9682   46.7755   -4.0362 H   0  0  0  0  0  0
   24.5023   47.3721   -5.6033 H   0  0  0  0  0  0
   24.7716   48.2103   -2.1387 H   0  0  0  0  0  0
   22.3809   51.8037   -2.3920 H   0  0  0  0  0  0
   22.6194   49.0753   -5.7219 H   0  0  0  0  0  0
   20.1133   51.5429   -6.3671 H   0  0  0  0  0  0
   20.3462   49.9008   -5.7780 H   0  0  0  0  0  0
   21.5721   50.6783   -6.8049 H   0  0  0  0  0  0
   25.2973   50.3745    0.7540 H   0  0  0  0  0  0
   25.9855   49.8472   -0.7784 H   0  0  0  0  0  0
   24.7977   48.8307    0.0717 H   0  0  0  0  0  0
  1  2  1  0  0  0
  1 43  1  0  0  0
  1 44  1  0  0  0
  1 45  1  0  0  0
  2  3  1  0  0  0
  3  4  1  0  0  0
  3 46  1  0  0  0
  3 47  1  0  0  0
  4  9  1  0  0  0
  4  5  2  0  0  0
  5  6  1  0  0  0
  5 48  1  0  0  0
  6 24  1  0  0  0
  6  7  2  0  0  0
  7  8  1  0  0  0
  7 49  1  0  0  0
  8  9  2  0  0  0
  8 10  1  0  0  0
  9 50  1  0  0  0
 10 11  2  0  0  0
 10 12  1  0  0  0
 12 13  1  0  0  0
 12 51  1  0  0  0
 13 40  1  0  0  0
 13 14  1  0  0  0
 13 25  1  0  0  0
 14 15  1  0  0  0
 14 52  1  0  0  0
 14 53  1  0  0  0
 15 41  1  0  0  0
 15 16  1  0  0  0
 15 17  1  0  0  0
 16 54  1  0  0  0
 16 55  1  0  0  0
 16 56  1  0  0  0
 17 18  1  0  0  0
 17 57  1  0  0  0
 17 58  1  0  0  0
 18 19  1  0  0  0
 18 59  1  0  0  0
 18 60  1  0  0  0
 19 20  1  0  0  0
 19 61  1  0  0  0
 19 62  1  0  0  0
 20 21  1  0  0  0
 20 63  1  0  0  0
 20 64  1  0  0  0
 21 22  1  0  0  0
 21 65  1  0  0  0
 21 66  1  0  0  0
 22 23  1  0  0  0
 22 67  1  0  0  0
 22 68  1  0  0  0
 23 24  1  0  0  0
 23 69  1  0  0  0
 23 70  1  0  0  0
 24 71  1  0  0  0
 25 42  1  0  0  0
 25 26  1  0  0  0
 25 27  1  0  0  0
 26 72  1  0  0  0
 27 28  1  0  0  0
 27 73  1  0  0  0
 27 74  1  0  0  0
 28 29  1  0  0  0
 28 75  1  0  0  0
 29 30  1  0  0  0
 29 76  1  0  0  0
 29 77  1  0  0  0
 30 35  1  0  0  0
 30 31  2  0  0  0
 31 32  1  0  0  0
 31 78  1  0  0  0
 32 33  2  0  0  0
 32 38  1  0  0  0
 33 34  1  0  0  0
 33 79  1  0  0  0
 34 35  2  0  0  0
 34 36  1  0  0  0
 35 80  1  0  0  0
 36 37  1  0  0  0
 37 81  1  0  0  0
 37 82  1  0  0  0
 37 83  1  0  0  0
 38 39  1  0  0  0
 39 84  1  0  0  0
 39 85  1  0  0  0
 39 86  1  0  0  0
M  END
> <s_m_source_file>
BACE_61.smi

> <i_m_source_file_index>
1

> <i_lp_mmshare_version>
42013

> <i_f3d_flags>
0

> <s_epik_input>
W05IXTFbQ0gyXVtDSDJdW0NIMl1bQ0gyXVtDSDJdW0NIMl1bQ0gyXVtDQEBIXShbQ0gzXSlbQ0gyXVtDQEhdKFtOSF1DKD1PKWMoW2NIXTIpW2NIXWMoW2NIXWMxMilbQ0gyXU9bQ0gzXSlbQ0BIXShbT0hdKVtDSDJdW05IXVtDSDJdYzNbY0hdYyhPW0NIM10pW2NIXWMoW2NIXTMpT1tDSDNd

> <s_epik_cmdline>
J2VwaWtfcHl0aG9uJywgJy1waCcsICc3LjAnLCAnLXRuJywgJzgnLCAnLW1hJywgJzIwMCcsICctaW1hZScsICc8aW5maWxlLm1hZT4nLCAnLW9tYWUnLCAnPG91dGZpbGUubWFlPic=

> <r_lp_tautomer_probability>
1

> <r_epik_Ionization_Penalty>
  2.0770

> <r_epik_Ionization_Penalty_Charging>
  0.0000

> <r_epik_Ionization_Penalty_Neutral>
  2.0770

> <r_epik_State_Penalty>
  2.2107

> <r_epik_Charging_Adjusted_Penalty>
2.21072

> <i_epik_Tot_Q>
0

> <i_epik_Tot_abs_Q>
0

> <s_lp_Force_Field>
OPLS_2005

> <r_lp_Energy>
57.8544

> <b_lp_Chiralities_Consistent>
1

> <s_lp_Variant>
BACE_61.smi:1-2

> <chiral flag>
1

> <version>
0

> <s_i_glide_gridfile>
second_dock_grid_2

> <i_i_glide_lignum>
122

> <i_i_glide_rotatable_bonds>
10

> <r_i_docking_score>
-2.93717

> <r_i_glide_ligand_efficiency>
-0.0753122

> <r_i_glide_ligand_efficiency_sa>
-0.255399

> <r_i_glide_ligand_efficiency_ln>
-0.629814

> <r_glide_XP_GScore>
-5.14787

> <r_i_glide_gscore>
-5.14787

> <r_i_glide_evdw>
-44.2158

> <r_i_glide_ecoul>
-5.66302

> <r_i_glide_energy>
-49.8788

> <r_i_glide_einternal>
8.05748

> <r_i_glide_emodel>
-70.9015

> <r_glide_XP_HBond>
-1.3811

> <i_i_glide_confnum>
1

> <i_i_glide_posenum>
42

> <r_i_glide_eff_state_penalty>
2.2107

> <i_glide_XP_PoseRank>
1

$$$$
BACE_62.smi:1
                    3D
 Structure written by MMmdl.
 88 91  0  0  1  0            999 V2000
   16.9327   47.6391   -9.2704 C   0  0  0  0  0  0
   18.3008   47.4098   -8.9764 O   0  0  0  0  0  0
   18.9793   46.7123  -10.0090 C   0  0  0  0  0  0
   18.4814   45.2843  -10.1335 C   0  0  0  0  0  0
   17.4658   44.8109   -9.2779 C   0  0  0  0  0  0
   16.9860   43.4889   -9.3878 C   0  0  0  0  0  0
   17.5453   42.6336  -10.3704 C   0  0  0  0  0  0
   18.5646   43.0979  -11.2333 C   0  0  0  0  0  0
   19.0195   44.4290  -11.1164 C   0  0  0  0  0  0
   19.0910   42.2319  -12.3430 C   0  0  0  0  0  0
   18.8572   42.5495  -13.5081 O   0  0  0  0  0  0
   19.8174   41.1305  -12.0577 N   0  0  0  0  0  0
   20.3469   40.6166  -10.7849 C   0  0  1  0  0  0
   19.8457   39.1453  -10.6198 C   0  0  0  0  0  0
   18.9776   38.8446   -9.3670 C   0  0  2  0  0  0
   19.8175   38.8105   -8.0728 C   0  0  0  0  0  0
   18.1725   37.5325   -9.5755 C   0  0  0  0  0  0
   17.1691   37.1246   -8.4685 C   0  0  0  0  0  0
   16.1150   38.1762   -8.0609 C   0  0  0  0  0  0
   15.1436   38.5965   -9.1842 C   0  0  0  0  0  0
   14.1235   39.6797   -8.7693 C   0  0  0  0  0  0
   14.5265   41.1345   -9.0948 C   0  0  0  0  0  0
   15.6721   41.6985   -8.2330 C   0  0  0  0  0  0
   15.9526   43.0999   -8.5180 N   0  0  0  0  0  0
   21.9050   40.7187  -10.8030 C   0  0  2  0  0  0
   22.4288   40.1634   -9.6114 O   0  0  0  0  0  0
   22.4662   42.1573  -10.9023 C   0  0  0  0  0  0
   23.9151   42.1561  -11.2001 N   0  3  0  0  0  0
   24.7720   41.7721  -10.0598 C   0  0  0  0  0  0
   26.2112   42.2103  -10.2906 C   0  0  0  0  0  0
   27.0454   41.4666  -11.1465 C   0  0  0  0  0  0
   28.3779   41.8658  -11.3747 C   0  0  0  0  0  0
   29.1510   41.0739  -12.1858 O   0  0  0  0  0  0
   29.6803   41.7157  -13.3370 C   0  0  0  0  0  0
   30.9211   42.5422  -12.9937 C   0  0  0  0  0  0
   30.5893   43.7823  -12.1614 C   0  0  0  0  0  0
   30.1877   43.4303  -10.8454 O   0  0  0  0  0  0
   28.8851   43.0182  -10.7187 C   0  0  0  0  0  0
   28.0489   43.7471   -9.8490 C   0  0  0  0  0  0
   26.7137   43.3525   -9.6408 C   0  0  0  0  0  0
   19.9819   41.2194   -9.9540 H   0  0  0  0  0  0
   18.2578   39.6555   -9.2762 H   0  0  0  0  0  0
   22.2874   40.1347  -11.6419 H   0  0  0  0  0  0
   16.4675   48.1761   -8.4438 H   0  0  0  0  0  0
   16.3921   46.7013   -9.4055 H   0  0  0  0  0  0
   16.8151   48.2446  -10.1701 H   0  0  0  0  0  0
   20.0526   46.7010   -9.8110 H   0  0  0  0  0  0
   18.8396   47.2252  -10.9622 H   0  0  0  0  0  0
   17.0441   45.4715   -8.5334 H   0  0  0  0  0  0
   17.1769   41.6269  -10.4984 H   0  0  0  0  0  0
   19.7823   44.7998  -11.7866 H   0  0  0  0  0  0
   20.1062   40.5945  -12.8635 H   0  0  0  0  0  0
   19.2629   38.8774  -11.5029 H   0  0  0  0  0  0
   20.6821   38.4457  -10.6495 H   0  0  0  0  0  0
   19.2018   38.6350   -7.1915 H   0  0  0  0  0  0
   20.3230   39.7595   -7.8999 H   0  0  0  0  0  0
   20.5756   38.0273   -8.1065 H   0  0  0  0  0  0
   18.8734   36.7081   -9.7144 H   0  0  0  0  0  0
   17.6242   37.5960  -10.5156 H   0  0  0  0  0  0
   17.7210   36.8249   -7.5774 H   0  0  0  0  0  0
   16.6518   36.2207   -8.7925 H   0  0  0  0  0  0
   16.6166   39.0413   -7.6344 H   0  0  0  0  0  0
   15.5284   37.7602   -7.2407 H   0  0  0  0  0  0
   15.6852   38.9290  -10.0693 H   0  0  0  0  0  0
   14.5921   37.7083   -9.4956 H   0  0  0  0  0  0
   13.8611   39.5813   -7.7152 H   0  0  0  0  0  0
   13.1990   39.4803   -9.3128 H   0  0  0  0  0  0
   14.7722   41.2157  -10.1539 H   0  0  0  0  0  0
   13.6488   41.7659   -8.9494 H   0  0  0  0  0  0
   15.4009   41.6274   -7.1793 H   0  0  0  0  0  0
   16.5826   41.1161   -8.3507 H   0  0  0  0  0  0
   15.6413   43.7725   -7.8319 H   0  0  0  0  0  0
   22.9784   39.4292   -9.8391 H   0  0  0  0  0  0
   22.2795   42.7044   -9.9766 H   0  0  0  0  0  0
   21.9780   42.7105  -11.7038 H   0  0  0  0  0  0
   24.1803   43.0828  -11.5017 H   0  0  0  0  0  0
   24.7364   40.6909   -9.9182 H   0  0  0  0  0  0
   24.3938   42.2260   -9.1427 H   0  0  0  0  0  0
   26.6593   40.5826  -11.6322 H   0  0  0  0  0  0
   29.9531   40.9386  -14.0510 H   0  0  0  0  0  0
   28.9224   42.3279  -13.8258 H   0  0  0  0  0  0
   31.6589   41.9256  -12.4803 H   0  0  0  0  0  0
   31.3882   42.8659  -13.9239 H   0  0  0  0  0  0
   29.8308   44.3934  -12.6507 H   0  0  0  0  0  0
   31.4786   44.4071  -12.0783 H   0  0  0  0  0  0
   28.4343   44.6165   -9.3371 H   0  0  0  0  0  0
   26.0794   43.9209   -8.9767 H   0  0  0  0  0  0
   24.0843   41.5097  -11.9574 H   0  0  0  0  0  0
  1  2  1  0  0  0
  1 44  1  0  0  0
  1 45  1  0  0  0
  1 46  1  0  0  0
  2  3  1  0  0  0
  3  4  1  0  0  0
  3 47  1  0  0  0
  3 48  1  0  0  0
  4  9  1  0  0  0
  4  5  2  0  0  0
  5  6  1  0  0  0
  5 49  1  0  0  0
  6 24  1  0  0  0
  6  7  2  0  0  0
  7  8  1  0  0  0
  7 50  1  0  0  0
  8  9  2  0  0  0
  8 10  1  0  0  0
  9 51  1  0  0  0
 10 11  2  0  0  0
 10 12  1  0  0  0
 12 13  1  0  0  0
 12 52  1  0  0  0
 13 41  1  0  0  0
 13 14  1  0  0  0
 13 25  1  0  0  0
 14 15  1  0  0  0
 14 53  1  0  0  0
 14 54  1  0  0  0
 15 42  1  0  0  0
 15 16  1  0  0  0
 15 17  1  0  0  0
 16 55  1  0  0  0
 16 56  1  0  0  0
 16 57  1  0  0  0
 17 18  1  0  0  0
 17 58  1  0  0  0
 17 59  1  0  0  0
 18 19  1  0  0  0
 18 60  1  0  0  0
 18 61  1  0  0  0
 19 20  1  0  0  0
 19 62  1  0  0  0
 19 63  1  0  0  0
 20 21  1  0  0  0
 20 64  1  0  0  0
 20 65  1  0  0  0
 21 22  1  0  0  0
 21 66  1  0  0  0
 21 67  1  0  0  0
 22 23  1  0  0  0
 22 68  1  0  0  0
 22 69  1  0  0  0
 23 24  1  0  0  0
 23 70  1  0  0  0
 23 71  1  0  0  0
 24 72  1  0  0  0
 25 43  1  0  0  0
 25 26  1  0  0  0
 25 27  1  0  0  0
 26 73  1  0  0  0
 27 28  1  0  0  0
 27 74  1  0  0  0
 27 75  1  0  0  0
 28 29  1  0  0  0
 28 76  1  0  0  0
 28 88  1  0  0  0
 29 30  1  0  0  0
 29 77  1  0  0  0
 29 78  1  0  0  0
 30 40  1  0  0  0
 30 31  2  0  0  0
 31 32  1  0  0  0
 31 79  1  0  0  0
 32 38  2  0  0  0
 32 33  1  0  0  0
 33 34  1  0  0  0
 34 35  1  0  0  0
 34 80  1  0  0  0
 34 81  1  0  0  0
 35 36  1  0  0  0
 35 82  1  0  0  0
 35 83  1  0  0  0
 36 37  1  0  0  0
 36 84  1  0  0  0
 36 85  1  0  0  0
 37 38  1  0  0  0
 38 39  1  0  0  0
 39 40  2  0  0  0
 39 86  1  0  0  0
 40 87  1  0  0  0
M  CHG  1  28   1
M  END
> <s_m_source_file>
BACE_62.smi

> <i_m_source_file_index>
1

> <i_lp_mmshare_version>
42013

> <i_f3d_flags>
0

> <s_epik_input>
W05IXTFbQ0gyXVtDSDJdW0NIMl1bQ0gyXVtDSDJdW0NIMl1bQ0gyXVtDQEBIXShbQ0gzXSlbQ0gyXVtDQEhdKFtOSF1DKD1PKWMoW2NIXTIpW2NIXWMoW2NIXWMxMilbQ0gyXU9bQ0gzXSlbQ0BIXShbT0hdKVtDSDJdW05IXVtDSDJdYyhbY0hdMylbY0hdW2NIXWMoYzM0KU9bQ0gyXVtDSDJdW0NIMl1PNA==

> <s_epik_cmdline>
J2VwaWtfcHl0aG9uJywgJy1waCcsICc3LjAnLCAnLXRuJywgJzgnLCAnLW1hJywgJzIwMCcsICctaW1hZScsICc8aW5maWxlLm1hZT4nLCAnLW9tYWUnLCAnPG91dGZpbGUubWFlPic=

> <r_lp_tautomer_probability>
1

> <r_epik_Ionization_Penalty>
  0.0169

> <r_epik_Ionization_Penalty_Charging>
  0.0163

> <r_epik_Ionization_Penalty_Neutral>
  0.0006

> <r_epik_State_Penalty>
  0.0129

> <r_epik_Charging_Adjusted_Penalty>
0.0292154

> <i_epik_Tot_Q>
1

> <i_epik_Tot_abs_Q>
1

> <s_lp_Force_Field>
OPLS_2005

> <r_lp_Energy>
53.9557

> <b_lp_Chiralities_Consistent>
1

> <s_lp_Variant>
BACE_62.smi:1-1

> <chiral flag>
1

> <version>
0

> <s_i_glide_gridfile>
second_dock_grid_2

> <i_i_glide_lignum>
123

> <i_i_glide_rotatable_bonds>
8

> <r_i_docking_score>
-5.66791

> <r_i_glide_ligand_efficiency>
-0.141698

> <r_i_glide_ligand_efficiency_sa>
-0.4846

> <r_i_glide_ligand_efficiency_ln>
-1.2088

> <r_glide_XP_GScore>
-5.68081

> <r_i_glide_gscore>
-5.68081

> <r_i_glide_evdw>
-32.7737

> <r_i_glide_ecoul>
-15.295

> <r_i_glide_energy>
-48.0687

> <r_i_glide_einternal>
4.58664

> <r_i_glide_emodel>
-72.5113

> <r_glide_XP_HBond>
-1.52014

> <i_i_glide_confnum>
1

> <i_i_glide_posenum>
4

> <r_i_glide_eff_state_penalty>
0.0129

> <i_glide_XP_PoseRank>
1

$$$$
BACE_62.smi:1
                    3D
 Structure written by MMmdl.
 87 90  0  0  1  0            999 V2000
   19.8577   45.7154   -6.6783 C   0  0  0  0  0  0
   19.6452   46.4705   -7.8617 O   0  0  0  0  0  0
   18.3058   46.4436   -8.3379 C   0  0  0  0  0  0
   17.8729   45.0853   -8.8590 C   0  0  0  0  0  0
   17.1125   44.2292   -8.0373 C   0  0  0  0  0  0
   16.7128   42.9612   -8.4969 C   0  0  0  0  0  0
   17.0649   42.5558   -9.8027 C   0  0  0  0  0  0
   17.8123   43.4115  -10.6366 C   0  0  0  0  0  0
   18.2177   44.6773  -10.1638 C   0  0  0  0  0  0
   18.1360   42.9849  -12.0324 C   0  0  0  0  0  0
   17.4371   43.3650  -12.9694 O   0  0  0  0  0  0
   19.1776   42.1612  -12.2209 N   0  0  0  0  0  0
   20.1777   41.6711  -11.2695 C   0  0  1  0  0  0
   20.1342   40.1226  -11.2966 C   0  0  0  0  0  0
   19.4071   39.4829  -10.0962 C   0  0  2  0  0  0
   20.2908   39.5325   -8.8409 C   0  0  0  0  0  0
   18.9703   38.0589  -10.4780 C   0  0  0  0  0  0
   18.5306   37.1238   -9.3427 C   0  0  0  0  0  0
   17.3866   37.6224   -8.4564 C   0  0  0  0  0  0
   16.0524   37.8227   -9.1952 C   0  0  0  0  0  0
   14.9694   38.4884   -8.3291 C   0  0  0  0  0  0
   14.9602   40.0224   -8.3792 C   0  0  0  0  0  0
   16.1372   40.7091   -7.6810 C   0  0  0  0  0  0
   15.9627   42.1500   -7.6399 N   0  0  0  0  0  0
   21.5503   42.2973  -11.6422 C   0  0  2  0  0  0
   22.0517   41.7502  -12.8400 O   0  0  0  0  0  0
   22.6383   42.3066  -10.5543 C   0  0  0  0  0  0
   22.9484   40.9787  -10.0261 N   0  0  0  0  0  0
   23.8563   40.9716   -8.8813 C   0  0  0  0  0  0
   23.2599   41.6381   -7.6556 C   0  0  0  0  0  0
   22.4623   40.9048   -6.7530 C   0  0  0  0  0  0
   21.9248   41.5202   -5.6084 C   0  0  0  0  0  0
   21.2595   40.7035   -4.7208 O   0  0  0  0  0  0
   21.4047   41.0418   -3.3488 C   0  0  0  0  0  0
   20.4060   42.1221   -2.9336 C   0  0  0  0  0  0
   20.2350   43.1815   -4.0194 C   0  0  0  0  0  0
   21.5013   43.6578   -4.4399 O   0  0  0  0  0  0
   22.1131   42.9211   -5.4225 C   0  0  0  0  0  0
   22.9421   43.6360   -6.3055 C   0  0  0  0  0  0
   23.5224   42.9992   -7.4127 C   0  0  0  0  0  0
   19.9401   42.0194  -10.2650 H   0  0  0  0  0  0
   18.5020   40.0521   -9.8921 H   0  0  0  0  0  0
   21.3736   43.3525  -11.8574 H   0  0  0  0  0  0
   20.8747   45.8752   -6.3233 H   0  0  0  0  0  0
   19.7347   44.6468   -6.8563 H   0  0  0  0  0  0
   19.1756   46.0187   -5.8831 H   0  0  0  0  0  0
   18.2245   47.1670   -9.1498 H   0  0  0  0  0  0
   17.6208   46.7876   -7.5595 H   0  0  0  0  0  0
   16.8503   44.5393   -7.0362 H   0  0  0  0  0  0
   16.7458   41.5953  -10.1803 H   0  0  0  0  0  0
   18.7934   45.3353  -10.7983 H   0  0  0  0  0  0
   19.3407   41.8728  -13.1714 H   0  0  0  0  0  0
   21.1359   39.7004  -11.3597 H   0  0  0  0  0  0
   19.6609   39.7944  -12.2240 H   0  0  0  0  0  0
   19.7952   39.1501   -7.9517 H   0  0  0  0  0  0
   20.5635   40.5604   -8.6139 H   0  0  0  0  0  0
   21.2086   38.9608   -8.9783 H   0  0  0  0  0  0
   19.7879   37.5699  -11.0034 H   0  0  0  0  0  0
   18.1699   38.1502  -11.2069 H   0  0  0  0  0  0
   19.3964   36.9500   -8.7112 H   0  0  0  0  0  0
   18.2605   36.1522   -9.7559 H   0  0  0  0  0  0
   17.6905   38.5284   -7.9472 H   0  0  0  0  0  0
   17.2580   36.8989   -7.6541 H   0  0  0  0  0  0
   16.1915   38.4108  -10.1018 H   0  0  0  0  0  0
   15.6955   36.8468   -9.5221 H   0  0  0  0  0  0
   13.9943   38.1603   -8.6909 H   0  0  0  0  0  0
   15.0304   38.1492   -7.2943 H   0  0  0  0  0  0
   14.0601   40.3448   -7.8688 H   0  0  0  0  0  0
   14.8690   40.3640   -9.4101 H   0  0  0  0  0  0
   17.0793   40.4786   -8.1696 H   0  0  0  0  0  0
   16.2177   40.3475   -6.6540 H   0  0  0  0  0  0
   15.6772   42.5330   -6.7360 H   0  0  0  0  0  0
   22.9245   41.3710  -12.7244 H   0  0  0  0  0  0
   22.2772   42.9503   -9.7532 H   0  0  0  0  0  0
   23.5436   42.7795  -10.9386 H   0  0  0  0  0  0
   23.3213   40.3812  -10.7583 H   0  0  0  0  0  0
   24.8021   41.4500   -9.1417 H   0  0  0  0  0  0
   24.0985   39.9435   -8.6131 H   0  0  0  0  0  0
   22.3017   39.8489   -6.9131 H   0  0  0  0  0  0
   21.2379   40.1500   -2.7514 H   0  0  0  0  0  0
   22.4300   41.3568   -3.1401 H   0  0  0  0  0  0
   19.4392   41.6711   -2.7151 H   0  0  0  0  0  0
   20.7430   42.5863   -2.0061 H   0  0  0  0  0  0
   19.6631   44.0176   -3.6382 H   0  0  0  0  0  0
   19.6603   42.8020   -4.8658 H   0  0  0  0  0  0
   23.1088   44.6908   -6.1472 H   0  0  0  0  0  0
   24.1458   43.5622   -8.0914 H   0  0  0  0  0  0
  1  2  1  0  0  0
  1 44  1  0  0  0
  1 45  1  0  0  0
  1 46  1  0  0  0
  2  3  1  0  0  0
  3  4  1  0  0  0
  3 47  1  0  0  0
  3 48  1  0  0  0
  4  9  1  0  0  0
  4  5  2  0  0  0
  5  6  1  0  0  0
  5 49  1  0  0  0
  6 24  1  0  0  0
  6  7  2  0  0  0
  7  8  1  0  0  0
  7 50  1  0  0  0
  8  9  2  0  0  0
  8 10  1  0  0  0
  9 51  1  0  0  0
 10 11  2  0  0  0
 10 12  1  0  0  0
 12 13  1  0  0  0
 12 52  1  0  0  0
 13 41  1  0  0  0
 13 14  1  0  0  0
 13 25  1  0  0  0
 14 15  1  0  0  0
 14 53  1  0  0  0
 14 54  1  0  0  0
 15 42  1  0  0  0
 15 16  1  0  0  0
 15 17  1  0  0  0
 16 55  1  0  0  0
 16 56  1  0  0  0
 16 57  1  0  0  0
 17 18  1  0  0  0
 17 58  1  0  0  0
 17 59  1  0  0  0
 18 19  1  0  0  0
 18 60  1  0  0  0
 18 61  1  0  0  0
 19 20  1  0  0  0
 19 62  1  0  0  0
 19 63  1  0  0  0
 20 21  1  0  0  0
 20 64  1  0  0  0
 20 65  1  0  0  0
 21 22  1  0  0  0
 21 66  1  0  0  0
 21 67  1  0  0  0
 22 23  1  0  0  0
 22 68  1  0  0  0
 22 69  1  0  0  0
 23 24  1  0  0  0
 23 70  1  0  0  0
 23 71  1  0  0  0
 24 72  1  0  0  0
 25 43  1  0  0  0
 25 26  1  0  0  0
 25 27  1  0  0  0
 26 73  1  0  0  0
 27 28  1  0  0  0
 27 74  1  0  0  0
 27 75  1  0  0  0
 28 29  1  0  0  0
 28 76  1  0  0  0
 29 30  1  0  0  0
 29 77  1  0  0  0
 29 78  1  0  0  0
 30 40  1  0  0  0
 30 31  2  0  0  0
 31 32  1  0  0  0
 31 79  1  0  0  0
 32 38  2  0  0  0
 32 33  1  0  0  0
 33 34  1  0  0  0
 34 35  1  0  0  0
 34 80  1  0  0  0
 34 81  1  0  0  0
 35 36  1  0  0  0
 35 82  1  0  0  0
 35 83  1  0  0  0
 36 37  1  0  0  0
 36 84  1  0  0  0
 36 85  1  0  0  0
 37 38  1  0  0  0
 38 39  1  0  0  0
 39 40  2  0  0  0
 39 86  1  0  0  0
 40 87  1  0  0  0
M  END
> <s_m_source_file>
BACE_62.smi

> <i_m_source_file_index>
1

> <i_lp_mmshare_version>
42013

> <i_f3d_flags>
0

> <s_epik_input>
W05IXTFbQ0gyXVtDSDJdW0NIMl1bQ0gyXVtDSDJdW0NIMl1bQ0gyXVtDQEBIXShbQ0gzXSlbQ0gyXVtDQEhdKFtOSF1DKD1PKWMoW2NIXTIpW2NIXWMoW2NIXWMxMilbQ0gyXU9bQ0gzXSlbQ0BIXShbT0hdKVtDSDJdW05IXVtDSDJdYyhbY0hdMylbY0hdW2NIXWMoYzM0KU9bQ0gyXVtDSDJdW0NIMl1PNA==

> <s_epik_cmdline>
J2VwaWtfcHl0aG9uJywgJy1waCcsICc3LjAnLCAnLXRuJywgJzgnLCAnLW1hJywgJzIwMCcsICctaW1hZScsICc8aW5maWxlLm1hZT4nLCAnLW9tYWUnLCAnPG91dGZpbGUubWFlPic=

> <r_lp_tautomer_probability>
1

> <r_epik_Ionization_Penalty>
  2.1365

> <r_epik_Ionization_Penalty_Charging>
  0.0000

> <r_epik_Ionization_Penalty_Neutral>
  2.1365

> <r_epik_State_Penalty>
  2.2746

> <r_epik_Charging_Adjusted_Penalty>
2.27465

> <i_epik_Tot_Q>
0

> <i_epik_Tot_abs_Q>
0

> <s_lp_Force_Field>
OPLS_2005

> <r_lp_Energy>
56.6392

> <b_lp_Chiralities_Consistent>
1

> <s_lp_Variant>
BACE_62.smi:1-2

> <chiral flag>
1

> <version>
0

> <s_i_glide_gridfile>
second_dock_grid_2

> <i_i_glide_lignum>
124

> <i_i_glide_rotatable_bonds>
8

> <r_i_docking_score>
-3.74566

> <r_i_glide_ligand_efficiency>
-0.0936414

> <r_i_glide_ligand_efficiency_sa>
-0.320249

> <r_i_glide_ligand_efficiency_ln>
-0.798838

> <r_glide_XP_GScore>
-6.02026

> <r_i_glide_gscore>
-6.02026

> <r_i_glide_evdw>
-34.232

> <r_i_glide_ecoul>
-15.096

> <r_i_glide_energy>
-49.3281

> <r_i_glide_einternal>
10.6693

> <r_i_glide_emodel>
-69.0688

> <r_glide_XP_HBond>
-2.09427

> <i_i_glide_confnum>
1

> <i_i_glide_posenum>
9

> <r_i_glide_eff_state_penalty>
2.2746

> <i_glide_XP_PoseRank>
1

$$$$
