BACE_158.smi:1
                    3D
 Structure written by MMmdl.
 76 78  0  0  1  0            999 V2000
   30.5646   44.0277  -15.1769 C   0  0  0  0  0  0
   30.4597   42.5016  -15.2934 C   0  0  0  0  0  0
   31.2639   41.7400  -14.2225 C   0  0  0  0  0  0
   30.8354   42.0000  -12.7664 C   0  0  0  0  0  0
   29.4006   41.8217  -12.5649 N   0  0  0  0  0  0
   28.7749   42.1499  -11.4242 C   0  0  0  0  0  0
   29.4050   42.3916  -10.3939 O   0  0  0  0  0  0
   27.2323   42.2683  -11.4696 C   0  0  2  0  0  0
   26.8578   43.4522  -12.3880 C   0  0  0  0  0  0
   26.6005   42.3639  -10.0435 C   0  0  0  0  0  0
   25.2107   43.0434   -9.9060 C   0  0  2  0  0  0
   25.0586   43.5375   -8.5896 O   0  0  0  0  0  0
   23.9809   42.1773  -10.2872 C   0  0  2  0  0  0
   22.7101   43.0408  -10.5113 C   0  0  0  0  0  0
   21.4067   42.2918  -10.7600 C   0  0  0  0  0  0
   21.2456   41.4903  -11.9078 C   0  0  0  0  0  0
   20.0032   40.8902  -12.1798 C   0  0  0  0  0  0
   18.9098   41.0921  -11.3141 C   0  0  0  0  0  0
   17.7022   40.5500  -11.6399 O   0  0  0  0  0  0
   19.0683   41.8591  -10.1345 C   0  0  0  0  0  0
   17.9218   42.0874   -9.1455 C   0  0  0  0  0  0
   17.0612   40.8705   -8.8126 C   0  0  0  0  0  0
   15.6623   40.9433   -8.9869 C   0  0  0  0  0  0
   14.8518   39.8298   -8.7004 C   0  0  0  0  0  0
   15.4288   38.6465   -8.2112 C   0  0  0  0  0  0
   16.8210   38.5617   -8.0459 C   0  0  0  0  0  0
   17.6486   39.6669   -8.3565 C   0  0  0  0  0  0
   19.0154   39.6236   -8.2355 O   0  0  0  0  0  0
   19.6386   38.3602   -8.3905 C   0  0  0  0  0  0
   21.1304   38.6209   -8.5874 C   0  0  0  0  0  0
   21.7755   39.1325   -7.2923 C   0  0  0  0  0  0
   23.2024   39.6538   -7.4793 C   0  0  0  0  0  0
   23.2602   41.0058   -8.1786 C   0  0  0  0  0  0
   22.8786   42.0198   -7.5956 O   0  0  0  0  0  0
   23.7883   41.0139   -9.4123 N   0  0  0  0  0  0
   20.3221   42.4529   -9.8703 C   0  0  0  0  0  0
   26.8581   41.3576  -11.9388 H   0  0  0  0  0  0
   25.1974   43.9471  -10.5117 H   0  0  0  0  0  0
   24.2165   41.7267  -11.2422 H   0  0  0  0  0  0
   30.0590   44.5149  -16.0103 H   0  0  0  0  0  0
   31.6058   44.3512  -15.1870 H   0  0  0  0  0  0
   30.1081   44.3894  -14.2548 H   0  0  0  0  0  0
   29.4141   42.1967  -15.2659 H   0  0  0  0  0  0
   30.8246   42.2001  -16.2758 H   0  0  0  0  0  0
   31.1968   40.6731  -14.4348 H   0  0  0  0  0  0
   32.3209   41.9855  -14.3275 H   0  0  0  0  0  0
   31.3876   41.3501  -12.0876 H   0  0  0  0  0  0
   31.1047   43.0207  -12.4896 H   0  0  0  0  0  0
   28.8507   41.5759  -13.3737 H   0  0  0  0  0  0
   27.4160   43.4423  -13.3224 H   0  0  0  0  0  0
   27.0599   44.4092  -11.9052 H   0  0  0  0  0  0
   25.8027   43.4227  -12.6606 H   0  0  0  0  0  0
   26.5584   41.3535   -9.6402 H   0  0  0  0  0  0
   27.2719   42.9221   -9.3900 H   0  0  0  0  0  0
   24.4189   42.9938   -8.1407 H   0  0  0  0  0  0
   22.5676   43.7041   -9.6576 H   0  0  0  0  0  0
   22.8757   43.7025  -11.3617 H   0  0  0  0  0  0
   22.0601   41.3543  -12.6016 H   0  0  0  0  0  0
   19.8886   40.2920  -13.0713 H   0  0  0  0  0  0
   17.7533   39.8708  -12.2982 H   0  0  0  0  0  0
   18.3245   42.4610   -8.2033 H   0  0  0  0  0  0
   17.2936   42.8841   -9.5427 H   0  0  0  0  0  0
   15.2018   41.8516   -9.3448 H   0  0  0  0  0  0
   13.7811   39.8859   -8.8394 H   0  0  0  0  0  0
   14.8087   37.8038   -7.9469 H   0  0  0  0  0  0
   17.2301   37.6402   -7.6594 H   0  0  0  0  0  0
   19.4731   37.7501   -7.5037 H   0  0  0  0  0  0
   19.2374   37.8339   -9.2589 H   0  0  0  0  0  0
   21.6320   37.7072   -8.9072 H   0  0  0  0  0  0
   21.2568   39.3395   -9.3977 H   0  0  0  0  0  0
   21.1623   39.9235   -6.8559 H   0  0  0  0  0  0
   21.7818   38.3270   -6.5571 H   0  0  0  0  0  0
   23.6428   39.7506   -6.4930 H   0  0  0  0  0  0
   23.8239   38.9498   -8.0224 H   0  0  0  0  0  0
   24.0846   40.1167   -9.7806 H   0  0  0  0  0  0
   20.4480   43.0544   -8.9816 H   0  0  0  0  0  0
  1  2  1  0  0  0
  1 40  1  0  0  0
  1 41  1  0  0  0
  1 42  1  0  0  0
  2  3  1  0  0  0
  2 43  1  0  0  0
  2 44  1  0  0  0
  3  4  1  0  0  0
  3 45  1  0  0  0
  3 46  1  0  0  0
  4  5  1  0  0  0
  4 47  1  0  0  0
  4 48  1  0  0  0
  5  6  1  0  0  0
  5 49  1  0  0  0
  6  7  2  0  0  0
  6  8  1  0  0  0
  8 37  1  0  0  0
  8  9  1  0  0  0
  8 10  1  0  0  0
  9 50  1  0  0  0
  9 51  1  0  0  0
  9 52  1  0  0  0
 10 11  1  0  0  0
 10 53  1  0  0  0
 10 54  1  0  0  0
 11 38  1  0  0  0
 11 12  1  0  0  0
 11 13  1  0  0  0
 12 55  1  0  0  0
 13 39  1  0  0  0
 13 35  1  0  0  0
 13 14  1  0  0  0
 14 15  1  0  0  0
 14 56  1  0  0  0
 14 57  1  0  0  0
 15 36  1  0  0  0
 15 16  2  0  0  0
 16 17  1  0  0  0
 16 58  1  0  0  0
 17 18  2  0  0  0
 17 59  1  0  0  0
 18 19  1  0  0  0
 18 20  1  0  0  0
 19 60  1  0  0  0
 20 21  1  0  0  0
 20 36  2  0  0  0
 21 22  1  0  0  0
 21 61  1  0  0  0
 21 62  1  0  0  0
 22 27  2  0  0  0
 22 23  1  0  0  0
 23 24  2  0  0  0
 23 63  1  0  0  0
 24 25  1  0  0  0
 24 64  1  0  0  0
 25 26  2  0  0  0
 25 65  1  0  0  0
 26 27  1  0  0  0
 26 66  1  0  0  0
 27 28  1  0  0  0
 28 29  1  0  0  0
 29 30  1  0  0  0
 29 67  1  0  0  0
 29 68  1  0  0  0
 30 31  1  0  0  0
 30 69  1  0  0  0
 30 70  1  0  0  0
 31 32  1  0  0  0
 31 71  1  0  0  0
 31 72  1  0  0  0
 32 33  1  0  0  0
 32 73  1  0  0  0
 32 74  1  0  0  0
 33 34  2  0  0  0
 33 35  1  0  0  0
 35 75  1  0  0  0
 36 76  1  0  0  0
M  END
> <s_m_source_file>
BACE_158.smi

> <i_m_source_file_index>
1

> <i_lp_mmshare_version>
42013

> <i_f3d_flags>
0

> <s_epik_input>
W0NIM11bQ0gyXVtDSDJdW0NIMl1bTkhdQyg9TylbQ0BIXShbQ0gzXSlbQ0gyXVtDQEhdKFtPSF0pW0NASF0oW0NIMl0xKVtOSF1DKD1PKVtDSDJdW0NIMl1bQ0gyXVtDSDJdT2MoW2NIXVtjSF1bY0hdW2NIXTIpYzJbQ0gyXWMoW2NIXTMpYyhbT0hdKVtjSF1bY0hdYzEz

> <s_epik_cmdline>
J2VwaWtfcHl0aG9uJywgJy1waCcsICc3LjAnLCAnLXRuJywgJzgnLCAnLW1hJywgJzIwMCcsICctaW1hZScsICc8aW5maWxlLm1hZT4nLCAnLW9tYWUnLCAnPG91dGZpbGUubWFlPic=

> <r_lp_tautomer_probability>
1

> <r_epik_Ionization_Penalty>
  0.0002

> <r_epik_Ionization_Penalty_Charging>
  0.0000

> <r_epik_Ionization_Penalty_Neutral>
  0.0002

> <r_epik_State_Penalty>
 -0.0000

> <r_epik_Charging_Adjusted_Penalty>
0

> <i_epik_Tot_Q>
0

> <i_epik_Tot_abs_Q>
0

> <s_lp_Force_Field>
OPLS_2005

> <r_lp_Energy>
22.0574

> <b_lp_Chiralities_Consistent>
1

> <s_lp_Variant>
BACE_158.smi:1-1

> <chiral flag>
1

> <version>
0

> <s_i_glide_gridfile>
second_dock_grid_2

> <i_i_glide_lignum>
1

> <i_i_glide_rotatable_bonds>
10

> <r_i_docking_score>
-3.88864

> <r_i_glide_ligand_efficiency>
-0.108018

> <r_i_glide_ligand_efficiency_sa>
-0.356667

> <r_i_glide_ligand_efficiency_ln>
-0.848397

> <r_glide_XP_GScore>
-3.88864

> <r_i_glide_gscore>
-3.88864

> <r_i_glide_evdw>
-41.1432

> <r_i_glide_ecoul>
-6.2866

> <r_i_glide_energy>
-47.4298

> <r_i_glide_einternal>
8.57903

> <r_i_glide_emodel>
-57.5031

> <r_glide_XP_HBond>
-0.7

> <i_i_glide_confnum>
1

> <i_i_glide_posenum>
1

> <r_i_glide_eff_state_penalty>
-0

> <i_glide_XP_PoseRank>
1

$$$$
