BACE_23.smi:1
                    3D
 Structure written by MMmdl.
 91 93  0  0  1  0            999 V2000
   20.0302   43.5328   -9.1466 C   0  0  0  0  0  0
   20.8272   42.9665  -10.3364 C   0  0  2  0  0  0
   22.0382   43.8543  -10.7187 C   0  0  0  0  0  0
   21.7441   45.2577  -11.2944 C   0  0  0  0  0  0
   21.4110   46.3382  -10.2476 C   0  0  0  0  0  0
   21.2660   47.7546  -10.8353 C   0  0  0  0  0  0
   20.1926   47.9143  -11.9315 C   0  0  0  0  0  0
   18.7848   47.4028  -11.5738 C   0  0  0  0  0  0
   18.1604   48.0893  -10.3442 C   0  0  0  0  0  0
   16.6951   47.6911  -10.0743 C   0  0  0  0  0  0
   16.5369   46.1992   -9.7195 C   0  0  0  0  0  0
   17.0244   45.8310   -8.6517 O   0  0  0  0  0  0
   15.8940   45.3498  -10.5658 N   0  0  0  0  0  0
   15.3160   45.8239  -11.8344 C   0  0  0  0  0  0
   15.8804   43.8880  -10.2940 C   0  0  1  0  0  0
   14.4546   43.3057  -10.4080 C   0  0  0  0  0  0
   16.8474   43.1400  -11.2301 C   0  0  0  0  0  0
   16.8567   43.3523  -12.4427 O   0  0  0  0  0  0
   17.6834   42.2645  -10.6600 N   0  0  0  0  0  0
   18.7764   41.5949  -11.3628 C   0  0  1  0  0  0
   19.9645   42.5819  -11.5753 C   0  0  0  0  0  0
   19.1854   40.3168  -10.6100 C   0  0  2  0  0  0
   20.1683   39.6124  -11.3502 O   0  0  0  0  0  0
   18.0589   39.3122  -10.3043 C   0  0  0  0  0  0
   18.5242   38.2036   -9.4543 N   0  0  0  0  0  0
   18.7198   38.5076   -8.0212 C   0  0  0  0  0  0
   18.1088   37.5236   -7.0628 C   0  0  0  0  0  0
   17.4501   38.8636   -7.2652 C   0  0  0  0  0  0
   20.0714   39.1125   -7.6551 C   0  0  0  0  0  0
   20.3270   39.7774   -6.4310 C   0  0  0  0  0  0
   21.5344   40.4969   -6.2267 C   0  0  0  0  0  0
   22.4786   40.4829   -7.2801 C   0  0  0  0  0  0
   22.2315   39.7317   -8.4390 C   0  0  0  0  0  0
   21.0732   39.0608   -8.5666 N   0  3  0  0  0  0
   21.8303   41.2546   -4.9126 C   0  0  0  0  0  0
   22.6913   40.3611   -4.0058 C   0  0  0  0  0  0
   22.5643   42.5924   -5.1757 C   0  0  0  0  0  0
   20.5537   41.6209   -4.1300 C   0  0  0  0  0  0
   21.2877   42.0482   -9.9741 H   0  0  0  0  0  0
   16.1937   43.6833   -9.2679 H   0  0  0  0  0  0
   18.4085   41.2940  -12.3454 H   0  0  0  0  0  0
   19.5893   40.6651   -9.6683 H   0  0  0  0  0  0
   20.6893   43.9676   -8.3950 H   0  0  0  0  0  0
   19.4551   42.7561   -8.6444 H   0  0  0  0  0  0
   19.3224   44.2965   -9.4663 H   0  0  0  0  0  0
   22.7058   43.9509   -9.8607 H   0  0  0  0  0  0
   22.6199   43.3100  -11.4646 H   0  0  0  0  0  0
   20.9535   45.2010  -12.0405 H   0  0  0  0  0  0
   22.6334   45.5856  -11.8362 H   0  0  0  0  0  0
   20.4964   46.0920   -9.7148 H   0  0  0  0  0  0
   22.1963   46.3553   -9.4900 H   0  0  0  0  0  0
   22.2284   48.0704  -11.2390 H   0  0  0  0  0  0
   21.0513   48.4467  -10.0209 H   0  0  0  0  0  0
   20.1309   48.9694  -12.2029 H   0  0  0  0  0  0
   20.5276   47.4047  -12.8363 H   0  0  0  0  0  0
   18.8143   46.3223  -11.4279 H   0  0  0  0  0  0
   18.1373   47.5702  -12.4354 H   0  0  0  0  0  0
   18.7589   47.8736   -9.4577 H   0  0  0  0  0  0
   18.2082   49.1711  -10.4768 H   0  0  0  0  0  0
   16.0634   48.0193  -10.8958 H   0  0  0  0  0  0
   16.3481   48.2568   -9.2108 H   0  0  0  0  0  0
   14.8854   45.0278  -12.4385 H   0  0  0  0  0  0
   16.0794   46.2940  -12.4560 H   0  0  0  0  0  0
   14.5183   46.5439  -11.6514 H   0  0  0  0  0  0
   14.4311   42.2765  -10.0442 H   0  0  0  0  0  0
   14.0762   43.2867  -11.4287 H   0  0  0  0  0  0
   13.7508   43.8733   -9.7988 H   0  0  0  0  0  0
   17.6209   42.1302   -9.6607 H   0  0  0  0  0  0
   20.6314   42.1465  -12.3189 H   0  0  0  0  0  0
   19.5786   43.4870  -12.0404 H   0  0  0  0  0  0
   19.7898   39.3517  -12.1786 H   0  0  0  0  0  0
   17.6684   38.9167  -11.2401 H   0  0  0  0  0  0
   17.2185   39.8143   -9.8258 H   0  0  0  0  0  0
   19.3604   37.8064   -9.8625 H   0  0  0  0  0  0
   17.6602   36.6412   -7.5122 H   0  0  0  0  0  0
   18.5610   37.3683   -6.0856 H   0  0  0  0  0  0
   17.4970   39.5721   -6.4439 H   0  0  0  0  0  0
   16.4914   38.8319   -7.7787 H   0  0  0  0  0  0
   19.5723   39.7500   -5.6652 H   0  0  0  0  0  0
   23.3942   41.0438   -7.2402 H   0  0  0  0  0  0
   22.8934   39.7059   -9.2919 H   0  0  0  0  0  0
   22.2039   39.4050   -3.8172 H   0  0  0  0  0  0
   22.8601   40.8349   -3.0386 H   0  0  0  0  0  0
   23.6643   40.1506   -4.4437 H   0  0  0  0  0  0
   21.9933   43.2299   -5.8529 H   0  0  0  0  0  0
   23.5583   42.4708   -5.6009 H   0  0  0  0  0  0
   22.7061   43.1539   -4.2509 H   0  0  0  0  0  0
   19.8954   42.2465   -4.7299 H   0  0  0  0  0  0
   20.7903   42.1894   -3.2278 H   0  0  0  0  0  0
   20.0083   40.7398   -3.7948 H   0  0  0  0  0  0
   20.8957   38.6102   -9.4640 H   0  0  0  0  0  0
  1  2  1  0  0  0
  1 43  1  0  0  0
  1 44  1  0  0  0
  1 45  1  0  0  0
  2 39  1  0  0  0
  2 21  1  0  0  0
  2  3  1  0  0  0
  3  4  1  0  0  0
  3 46  1  0  0  0
  3 47  1  0  0  0
  4  5  1  0  0  0
  4 48  1  0  0  0
  4 49  1  0  0  0
  5  6  1  0  0  0
  5 50  1  0  0  0
  5 51  1  0  0  0
  6  7  1  0  0  0
  6 52  1  0  0  0
  6 53  1  0  0  0
  7  8  1  0  0  0
  7 54  1  0  0  0
  7 55  1  0  0  0
  8  9  1  0  0  0
  8 56  1  0  0  0
  8 57  1  0  0  0
  9 10  1  0  0  0
  9 58  1  0  0  0
  9 59  1  0  0  0
 10 11  1  0  0  0
 10 60  1  0  0  0
 10 61  1  0  0  0
 11 12  2  0  0  0
 11 13  1  0  0  0
 13 14  1  0  0  0
 13 15  1  0  0  0
 14 62  1  0  0  0
 14 63  1  0  0  0
 14 64  1  0  0  0
 15 40  1  0  0  0
 15 16  1  0  0  0
 15 17  1  0  0  0
 16 65  1  0  0  0
 16 66  1  0  0  0
 16 67  1  0  0  0
 17 18  2  0  0  0
 17 19  1  0  0  0
 19 20  1  0  0  0
 19 68  1  0  0  0
 20 41  1  0  0  0
 20 21  1  0  0  0
 20 22  1  0  0  0
 21 69  1  0  0  0
 21 70  1  0  0  0
 22 42  1  0  0  0
 22 23  1  0  0  0
 22 24  1  0  0  0
 23 71  1  0  0  0
 24 25  1  0  0  0
 24 72  1  0  0  0
 24 73  1  0  0  0
 25 26  1  0  0  0
 25 74  1  0  0  0
 26 28  1  0  0  0
 26 27  1  0  0  0
 26 29  1  0  0  0
 27 28  1  0  0  0
 27 75  1  0  0  0
 27 76  1  0  0  0
 28 77  1  0  0  0
 28 78  1  0  0  0
 29 34  1  0  0  0
 29 30  2  0  0  0
 30 31  1  0  0  0
 30 79  1  0  0  0
 31 32  2  0  0  0
 31 35  1  0  0  0
 32 33  1  0  0  0
 32 80  1  0  0  0
 33 34  2  0  0  0
 33 81  1  0  0  0
 34 91  1  0  0  0
 35 36  1  0  0  0
 35 37  1  0  0  0
 35 38  1  0  0  0
 36 82  1  0  0  0
 36 83  1  0  0  0
 36 84  1  0  0  0
 37 85  1  0  0  0
 37 86  1  0  0  0
 37 87  1  0  0  0
 38 88  1  0  0  0
 38 89  1  0  0  0
 38 90  1  0  0  0
M  CHG  1  34   1
M  END
> <s_m_source_file>
BACE_23.smi

> <i_m_source_file_index>
1

> <i_lp_mmshare_version>
42013

> <i_f3d_flags>
0

> <s_epik_input>
W0NIM11bQ0BASF0xW0NIMl1bQ0gyXVtDSDJdW0NIMl1bQ0gyXVtDSDJdW0NIMl1bQ0gyXUMoPU8pTihbQ0gzXSlbQ0BASF0oW0NIM10pQyg9TylbTkhdW0NAQEhdKFtDSDJdMSlbQ0BIXShbT0hdKVtDSDJdW05IXUMyKFtDSDJdW0NIMl0yKWMzW2NIXWMoW2NIXVtjSF1uMylDKFtDSDNdKShbQ0gzXSlbQ0gzXQ==

> <s_epik_cmdline>
J2VwaWtfcHl0aG9uJywgJy1waCcsICc3LjAnLCAnLXRuJywgJzgnLCAnLW1hJywgJzIwMCcsICctaW1hZScsICc8aW5maWxlLm1hZT4nLCAnLW9tYWUnLCAnPG91dGZpbGUubWFlPic=

> <r_epik_Ionization_Penalty>
  2.3622

> <r_epik_Ionization_Penalty_Charging>
  2.3621

> <r_epik_Ionization_Penalty_Neutral>
  0.0000

> <r_epik_State_Penalty>
  1.4993

> <r_epik_Charging_Adjusted_Penalty>
3.86143

> <i_epik_Tot_Q>
1

> <i_epik_Tot_abs_Q>
1

> <s_lp_Force_Field>
OPLS_2005

> <r_lp_Energy>
57.9636

> <b_lp_Chiralities_Consistent>
1

> <s_lp_Variant>
BACE_23.smi:1-2

> <chiral flag>
1

> <version>
0

> <s_i_glide_gridfile>
second_dock_grid_2

> <i_i_glide_lignum>
37

> <i_i_glide_rotatable_bonds>
7

> <r_i_docking_score>
-2.00817

> <r_i_glide_ligand_efficiency>
-0.0528466

> <r_i_glide_ligand_efficiency_sa>
-0.177669

> <r_i_glide_ligand_efficiency_ln>
-0.433021

> <r_glide_XP_GScore>
-3.50747

> <r_i_glide_gscore>
-3.50747

> <r_i_glide_evdw>
-34.8402

> <r_i_glide_ecoul>
-10.9764

> <r_i_glide_energy>
-45.8166

> <r_i_glide_einternal>
10.9629

> <r_i_glide_emodel>
-55.4181

> <r_glide_XP_HBond>
-0.55174

> <i_i_glide_confnum>
1

> <i_i_glide_posenum>
3

> <r_i_glide_eff_state_penalty>
1.4993

> <i_glide_XP_PoseRank>
1

$$$$
BACE_23.smi:1
                    3D
 Structure written by MMmdl.
 91 93  0  0  1  0            999 V2000
   22.9601   44.0408   -7.9462 C   0  0  0  0  0  0
   22.4420   43.8571   -6.5033 C   0  0  2  0  0  0
   23.5367   44.1943   -5.4591 C   0  0  0  0  0  0
   23.9680   45.6755   -5.4154 C   0  0  0  0  0  0
   22.9355   46.6051   -4.7567 C   0  0  0  0  0  0
   23.1539   48.1030   -5.0388 C   0  0  0  0  0  0
   22.9417   48.5385   -6.5059 C   0  0  0  0  0  0
   21.5862   48.1442   -7.1264 C   0  0  0  0  0  0
   20.3664   48.7670   -6.4182 C   0  0  0  0  0  0
   19.0131   48.3320   -7.0139 C   0  0  0  0  0  0
   18.7116   46.8349   -6.7853 C   0  0  0  0  0  0
   18.8605   46.4023   -5.6404 O   0  0  0  0  0  0
   18.2737   46.0496   -7.8029 N   0  0  0  0  0  0
   18.2813   46.5307   -9.1939 C   0  0  0  0  0  0
   17.9122   44.6322   -7.5429 C   0  0  1  0  0  0
   16.6087   44.2586   -8.2822 C   0  0  0  0  0  0
   19.0560   43.6912   -7.9631 C   0  0  0  0  0  0
   19.4772   43.6978   -9.1230 O   0  0  0  0  0  0
   19.5744   42.8922   -7.0118 N   0  0  0  0  0  0
   20.7224   41.9971   -7.1789 C   0  0  1  0  0  0
   21.9067   42.4202   -6.2713 C   0  0  0  0  0  0
   20.2665   40.5235   -7.0249 C   0  0  2  0  0  0
   20.2053   40.1540   -5.6653 O   0  0  0  0  0  0
   21.1632   39.4715   -7.7238 C   0  0  0  0  0  0
   21.4209   39.6893   -9.1751 N   0  3  0  0  0  0
   20.2712   39.8155  -10.1117 C   0  0  0  0  0  0
   20.2574   41.1098  -10.8973 C   0  0  0  0  0  0
   20.7236   39.8345  -11.5565 C   0  0  0  0  0  0
   19.0179   39.0830   -9.7280 C   0  0  0  0  0  0
   17.8451   39.7620   -9.3469 C   0  0  0  0  0  0
   16.7476   39.0260   -8.8503 C   0  0  0  0  0  0
   16.8637   37.6202   -8.8403 C   0  0  0  0  0  0
   18.0600   37.0326   -9.2804 C   0  0  0  0  0  0
   19.1261   37.7440   -9.7062 N   0  0  0  0  0  0
   15.5283   39.7613   -8.2832 C   0  0  0  0  0  0
   15.9696   40.5733   -7.0502 C   0  0  0  0  0  0
   14.9342   40.6915   -9.3592 C   0  0  0  0  0  0
   14.4238   38.7991   -7.8118 C   0  0  0  0  0  0
   21.6100   44.5459   -6.3578 H   0  0  0  0  0  0
   17.7007   44.4730   -6.4844 H   0  0  0  0  0  0
   21.0678   42.0835   -8.2065 H   0  0  0  0  0  0
   19.2523   40.4287   -7.3941 H   0  0  0  0  0  0
   23.3167   45.0526   -8.1288 H   0  0  0  0  0  0
   22.1792   43.8771   -8.6873 H   0  0  0  0  0  0
   23.7803   43.3551   -8.1655 H   0  0  0  0  0  0
   23.1997   43.9065   -4.4622 H   0  0  0  0  0  0
   24.4153   43.5771   -5.6591 H   0  0  0  0  0  0
   24.2235   46.0198   -6.4146 H   0  0  0  0  0  0
   24.8929   45.7525   -4.8406 H   0  0  0  0  0  0
   21.9204   46.3254   -5.0343 H   0  0  0  0  0  0
   23.0030   46.4484   -3.6836 H   0  0  0  0  0  0
   24.1633   48.3808   -4.7298 H   0  0  0  0  0  0
   22.4863   48.6787   -4.3960 H   0  0  0  0  0  0
   23.0636   49.6206   -6.5744 H   0  0  0  0  0  0
   23.7388   48.1228   -7.1234 H   0  0  0  0  0  0
   21.5015   47.0569   -7.1495 H   0  0  0  0  0  0
   21.5792   48.4573   -8.1715 H   0  0  0  0  0  0
   20.3813   48.5235   -5.3580 H   0  0  0  0  0  0
   20.4395   49.8534   -6.4696 H   0  0  0  0  0  0
   18.9728   48.6372   -8.0574 H   0  0  0  0  0  0
   18.2172   48.8929   -6.5206 H   0  0  0  0  0  0
   18.0636   45.7547   -9.9263 H   0  0  0  0  0  0
   19.2669   46.9127   -9.4631 H   0  0  0  0  0  0
   17.5425   47.3202   -9.3387 H   0  0  0  0  0  0
   16.2213   43.3092   -7.9200 H   0  0  0  0  0  0
   16.7386   44.1558   -9.3587 H   0  0  0  0  0  0
   15.8328   45.0027   -8.1028 H   0  0  0  0  0  0
   19.1306   42.8925   -6.1009 H   0  0  0  0  0  0
   21.5943   42.3362   -5.2275 H   0  0  0  0  0  0
   22.7268   41.7084   -6.3919 H   0  0  0  0  0  0
   19.4241   40.5504   -5.2899 H   0  0  0  0  0  0
   20.7325   38.4789   -7.5917 H   0  0  0  0  0  0
   22.1345   39.4335   -7.2316 H   0  0  0  0  0  0
   21.9605   38.8951   -9.4923 H   0  0  0  0  0  0
   19.2949   41.5054  -11.2146 H   0  0  0  0  0  0
   21.0199   41.8609  -10.6928 H   0  0  0  0  0  0
   21.7856   39.7616  -11.7806 H   0  0  0  0  0  0
   20.0613   39.3918  -12.2973 H   0  0  0  0  0  0
   17.8244   40.8429   -9.3521 H   0  0  0  0  0  0
   16.0822   36.9799   -8.4649 H   0  0  0  0  0  0
   18.1668   35.9595   -9.2748 H   0  0  0  0  0  0
   16.3090   39.9024   -6.2599 H   0  0  0  0  0  0
   15.1489   41.1644   -6.6425 H   0  0  0  0  0  0
   16.7872   41.2550   -7.2717 H   0  0  0  0  0  0
   14.6155   40.1231  -10.2335 H   0  0  0  0  0  0
   15.6423   41.4472   -9.6928 H   0  0  0  0  0  0
   14.0618   41.2225   -8.9830 H   0  0  0  0  0  0
   14.0455   38.1752   -8.6231 H   0  0  0  0  0  0
   13.5819   39.3491   -7.4039 H   0  0  0  0  0  0
   14.7720   38.1486   -7.0083 H   0  0  0  0  0  0
   21.9988   40.5099   -9.2779 H   0  0  0  0  0  0
  1  2  1  0  0  0
  1 43  1  0  0  0
  1 44  1  0  0  0
  1 45  1  0  0  0
  2 39  1  0  0  0
  2 21  1  0  0  0
  2  3  1  0  0  0
  3  4  1  0  0  0
  3 46  1  0  0  0
  3 47  1  0  0  0
  4  5  1  0  0  0
  4 48  1  0  0  0
  4 49  1  0  0  0
  5  6  1  0  0  0
  5 50  1  0  0  0
  5 51  1  0  0  0
  6  7  1  0  0  0
  6 52  1  0  0  0
  6 53  1  0  0  0
  7  8  1  0  0  0
  7 54  1  0  0  0
  7 55  1  0  0  0
  8  9  1  0  0  0
  8 56  1  0  0  0
  8 57  1  0  0  0
  9 10  1  0  0  0
  9 58  1  0  0  0
  9 59  1  0  0  0
 10 11  1  0  0  0
 10 60  1  0  0  0
 10 61  1  0  0  0
 11 12  2  0  0  0
 11 13  1  0  0  0
 13 14  1  0  0  0
 13 15  1  0  0  0
 14 62  1  0  0  0
 14 63  1  0  0  0
 14 64  1  0  0  0
 15 40  1  0  0  0
 15 16  1  0  0  0
 15 17  1  0  0  0
 16 65  1  0  0  0
 16 66  1  0  0  0
 16 67  1  0  0  0
 17 18  2  0  0  0
 17 19  1  0  0  0
 19 20  1  0  0  0
 19 68  1  0  0  0
 20 41  1  0  0  0
 20 21  1  0  0  0
 20 22  1  0  0  0
 21 69  1  0  0  0
 21 70  1  0  0  0
 22 42  1  0  0  0
 22 23  1  0  0  0
 22 24  1  0  0  0
 23 71  1  0  0  0
 24 25  1  0  0  0
 24 72  1  0  0  0
 24 73  1  0  0  0
 25 26  1  0  0  0
 25 74  1  0  0  0
 25 91  1  0  0  0
 26 28  1  0  0  0
 26 27  1  0  0  0
 26 29  1  0  0  0
 27 28  1  0  0  0
 27 75  1  0  0  0
 27 76  1  0  0  0
 28 77  1  0  0  0
 28 78  1  0  0  0
 29 34  1  0  0  0
 29 30  2  0  0  0
 30 31  1  0  0  0
 30 79  1  0  0  0
 31 32  2  0  0  0
 31 35  1  0  0  0
 32 33  1  0  0  0
 32 80  1  0  0  0
 33 34  2  0  0  0
 33 81  1  0  0  0
 35 36  1  0  0  0
 35 37  1  0  0  0
 35 38  1  0  0  0
 36 82  1  0  0  0
 36 83  1  0  0  0
 36 84  1  0  0  0
 37 85  1  0  0  0
 37 86  1  0  0  0
 37 87  1  0  0  0
 38 88  1  0  0  0
 38 89  1  0  0  0
 38 90  1  0  0  0
M  CHG  1  25   1
M  END
> <s_m_source_file>
BACE_23.smi

> <i_m_source_file_index>
1

> <i_lp_mmshare_version>
42013

> <i_f3d_flags>
0

> <s_epik_input>
W0NIM11bQ0BASF0xW0NIMl1bQ0gyXVtDSDJdW0NIMl1bQ0gyXVtDSDJdW0NIMl1bQ0gyXUMoPU8pTihbQ0gzXSlbQ0BASF0oW0NIM10pQyg9TylbTkhdW0NAQEhdKFtDSDJdMSlbQ0BIXShbT0hdKVtDSDJdW05IXUMyKFtDSDJdW0NIMl0yKWMzW2NIXWMoW2NIXVtjSF1uMylDKFtDSDNdKShbQ0gzXSlbQ0gzXQ==

> <s_epik_cmdline>
J2VwaWtfcHl0aG9uJywgJy1waCcsICc3LjAnLCAnLXRuJywgJzgnLCAnLW1hJywgJzIwMCcsICctaW1hZScsICc8aW5maWxlLm1hZT4nLCAnLW9tYWUnLCAnPG91dGZpbGUubWFlPic=

> <r_epik_Ionization_Penalty>
  0.7664

> <r_epik_Ionization_Penalty_Charging>
  0.7650

> <r_epik_Ionization_Penalty_Neutral>
  0.0014

> <r_epik_State_Penalty>
  1.7857

> <r_epik_Charging_Adjusted_Penalty>
2.5507

> <i_epik_Tot_Q>
1

> <i_epik_Tot_abs_Q>
1

> <s_lp_Force_Field>
OPLS_2005

> <r_lp_Energy>
42.0277

> <b_lp_Chiralities_Consistent>
1

> <s_lp_Variant>
BACE_23.smi:1-3

> <chiral flag>
1

> <version>
0

> <s_i_glide_gridfile>
second_dock_grid_2

> <i_i_glide_lignum>
38

> <i_i_glide_rotatable_bonds>
7

> <r_i_docking_score>
-2.20733

> <r_i_glide_ligand_efficiency>
-0.0580878

> <r_i_glide_ligand_efficiency_sa>
-0.19529

> <r_i_glide_ligand_efficiency_ln>
-0.475966

> <r_glide_XP_GScore>
-3.99303

> <r_i_glide_gscore>
-3.99303

> <r_i_glide_evdw>
-38.5567

> <r_i_glide_ecoul>
-12.7047

> <r_i_glide_energy>
-51.2614

> <r_i_glide_einternal>
5.35466

> <r_i_glide_emodel>
-75.1182

> <r_glide_XP_HBond>
-1.33

> <i_i_glide_confnum>
1

> <i_i_glide_posenum>
1

> <r_i_glide_eff_state_penalty>
1.7857

> <i_glide_XP_PoseRank>
1

$$$$
BACE_24.smi:1
                    3D
 Structure written by MMmdl.
 86 87  0  0  1  0            999 V2000
   14.7764   39.7520   -6.8760 C   0  0  0  0  0  0
   14.8271   38.6966   -7.9925 C   0  0  0  0  0  0
   15.5430   39.1278   -9.1448 O   0  0  0  0  0  0
   16.9201   39.0787   -9.1450 C   0  0  0  0  0  0
   17.7175   38.7943   -8.0114 C   0  0  0  0  0  0
   19.1256   38.8524   -8.0837 C   0  0  0  0  0  0
   19.9072   38.7065   -6.7912 C   0  0  0  0  0  0
   20.0603   40.0411   -6.1809 N   0  3  0  0  0  0
   21.2569   40.2177   -5.3365 C   0  0  0  0  0  0
   21.3304   41.6304   -4.7196 C   0  0  1  0  0  0
   22.4668   41.6187   -3.8795 O   0  0  0  0  0  0
   21.4157   42.7832   -5.7667 C   0  0  2  0  0  0
   22.1714   44.0382   -5.2555 C   0  0  0  0  0  0
   22.1493   45.2819   -6.1808 C   0  0  2  0  0  0
   22.7983   44.9850   -7.5469 C   0  0  0  0  0  0
   22.8298   46.4815   -5.4762 C   0  0  0  0  0  0
   22.5766   47.8554   -6.1274 C   0  0  0  0  0  0
   21.1485   48.3895   -5.9027 C   0  0  0  0  0  0
   20.8253   49.6813   -6.6745 C   0  0  0  0  0  0
   20.8933   49.5638   -8.2133 C   0  0  0  0  0  0
   20.1081   48.3841   -8.8159 C   0  0  0  0  0  0
   18.5841   48.4784   -8.6188 C   0  0  0  0  0  0
   17.8389   47.1930   -9.0333 C   0  0  0  0  0  0
   18.0327   46.0218   -8.0428 C   0  0  0  0  0  0
   18.0605   46.2920   -6.8400 O   0  0  0  0  0  0
   18.1213   44.7435   -8.4982 N   0  0  0  0  0  0
   18.3627   44.4495   -9.9196 C   0  0  0  0  0  0
   18.0862   43.6069   -7.5461 C   0  0  1  0  0  0
   17.0594   42.5470   -7.9970 C   0  0  0  0  0  0
   19.4765   42.9805   -7.3478 C   0  0  0  0  0  0
   19.9988   42.2979   -8.2282 O   0  0  0  0  0  0
   20.0620   43.1883   -6.1577 N   0  0  0  0  0  0
   19.7649   39.1169   -9.3255 C   0  0  0  0  0  0
   18.9627   39.3582  -10.4617 C   0  0  0  0  0  0
   17.5608   39.3623  -10.3635 C   0  0  0  0  0  0
   21.2877   39.1506   -9.4628 C   0  0  0  0  0  0
   21.6610   39.5303  -10.6851 F   0  0  0  0  0  0
   21.8241   40.0009   -8.5883 F   0  0  0  0  0  0
   21.7796   37.9341   -9.2379 F   0  0  0  0  0  0
   20.4683   41.7918   -4.0677 H   0  0  0  0  0  0
   21.9685   42.4116   -6.6313 H   0  0  0  0  0  0
   21.1078   45.5475   -6.3576 H   0  0  0  0  0  0
   17.7330   43.9374   -6.5699 H   0  0  0  0  0  0
   14.0685   39.4467   -6.1039 H   0  0  0  0  0  0
   14.4601   40.7201   -7.2613 H   0  0  0  0  0  0
   15.7312   39.9005   -6.3777 H   0  0  0  0  0  0
   13.8077   38.4934   -8.3205 H   0  0  0  0  0  0
   15.2209   37.7501   -7.6306 H   0  0  0  0  0  0
   17.2662   38.5614   -7.0584 H   0  0  0  0  0  0
   20.8747   38.2389   -6.9711 H   0  0  0  0  0  0
   19.3745   38.0591   -6.0928 H   0  0  0  0  0  0
   19.2203   40.2797   -5.6608 H   0  0  0  0  0  0
   22.1481   40.0319   -5.9381 H   0  0  0  0  0  0
   21.2604   39.4676   -4.5457 H   0  0  0  0  0  0
   22.5386   42.4590   -3.4512 H   0  0  0  0  0  0
   21.7444   44.3115   -4.2916 H   0  0  0  0  0  0
   23.2139   43.7803   -5.0599 H   0  0  0  0  0  0
   22.7511   45.8442   -8.2144 H   0  0  0  0  0  0
   22.2947   44.1697   -8.0649 H   0  0  0  0  0  0
   23.8473   44.7082   -7.4337 H   0  0  0  0  0  0
   22.4998   46.5354   -4.4403 H   0  0  0  0  0  0
   23.9054   46.2994   -5.4308 H   0  0  0  0  0  0
   22.8091   47.8066   -7.1885 H   0  0  0  0  0  0
   23.2813   48.5757   -5.7098 H   0  0  0  0  0  0
   20.4071   47.6318   -6.1481 H   0  0  0  0  0  0
   21.0134   48.5754   -4.8389 H   0  0  0  0  0  0
   21.5016   50.4705   -6.3486 H   0  0  0  0  0  0
   19.8288   50.0142   -6.3849 H   0  0  0  0  0  0
   20.5397   50.4936   -8.6597 H   0  0  0  0  0  0
   21.9365   49.4726   -8.5182 H   0  0  0  0  0  0
   20.4892   47.4467   -8.4116 H   0  0  0  0  0  0
   20.3142   48.3360   -9.8851 H   0  0  0  0  0  0
   18.3468   48.7182   -7.5828 H   0  0  0  0  0  0
   18.2032   49.3161   -9.2047 H   0  0  0  0  0  0
   18.1206   46.9506  -10.0559 H   0  0  0  0  0  0
   16.7685   47.4022   -9.0623 H   0  0  0  0  0  0
   18.5758   43.4002  -10.1135 H   0  0  0  0  0  0
   19.2272   45.0010  -10.2900 H   0  0  0  0  0  0
   17.4935   44.7163  -10.5210 H   0  0  0  0  0  0
   16.9504   41.7743   -7.2400 H   0  0  0  0  0  0
   17.3309   42.0439   -8.9236 H   0  0  0  0  0  0
   16.0746   42.9932   -8.1355 H   0  0  0  0  0  0
   19.5383   43.7202   -5.4774 H   0  0  0  0  0  0
   19.4115   39.5621  -11.4223 H   0  0  0  0  0  0
   16.9655   39.5763  -11.2392 H   0  0  0  0  0  0
   20.1423   40.7082   -6.9409 H   0  0  0  0  0  0
  1  2  1  0  0  0
  1 44  1  0  0  0
  1 45  1  0  0  0
  1 46  1  0  0  0
  2  3  1  0  0  0
  2 47  1  0  0  0
  2 48  1  0  0  0
  3  4  1  0  0  0
  4 35  1  0  0  0
  4  5  2  0  0  0
  5  6  1  0  0  0
  5 49  1  0  0  0
  6  7  1  0  0  0
  6 33  2  0  0  0
  7  8  1  0  0  0
  7 50  1  0  0  0
  7 51  1  0  0  0
  8  9  1  0  0  0
  8 52  1  0  0  0
  8 86  1  0  0  0
  9 10  1  0  0  0
  9 53  1  0  0  0
  9 54  1  0  0  0
 10 40  1  0  0  0
 10 11  1  0  0  0
 10 12  1  0  0  0
 11 55  1  0  0  0
 12 41  1  0  0  0
 12 32  1  0  0  0
 12 13  1  0  0  0
 13 14  1  0  0  0
 13 56  1  0  0  0
 13 57  1  0  0  0
 14 42  1  0  0  0
 14 15  1  0  0  0
 14 16  1  0  0  0
 15 58  1  0  0  0
 15 59  1  0  0  0
 15 60  1  0  0  0
 16 17  1  0  0  0
 16 61  1  0  0  0
 16 62  1  0  0  0
 17 18  1  0  0  0
 17 63  1  0  0  0
 17 64  1  0  0  0
 18 19  1  0  0  0
 18 65  1  0  0  0
 18 66  1  0  0  0
 19 20  1  0  0  0
 19 67  1  0  0  0
 19 68  1  0  0  0
 20 21  1  0  0  0
 20 69  1  0  0  0
 20 70  1  0  0  0
 21 22  1  0  0  0
 21 71  1  0  0  0
 21 72  1  0  0  0
 22 23  1  0  0  0
 22 73  1  0  0  0
 22 74  1  0  0  0
 23 24  1  0  0  0
 23 75  1  0  0  0
 23 76  1  0  0  0
 24 25  2  0  0  0
 24 26  1  0  0  0
 26 27  1  0  0  0
 26 28  1  0  0  0
 27 77  1  0  0  0
 27 78  1  0  0  0
 27 79  1  0  0  0
 28 43  1  0  0  0
 28 29  1  0  0  0
 28 30  1  0  0  0
 29 80  1  0  0  0
 29 81  1  0  0  0
 29 82  1  0  0  0
 30 31  2  0  0  0
 30 32  1  0  0  0
 32 83  1  0  0  0
 33 34  1  0  0  0
 33 36  1  0  0  0
 34 35  2  0  0  0
 34 84  1  0  0  0
 35 85  1  0  0  0
 36 37  1  0  0  0
 36 38  1  0  0  0
 36 39  1  0  0  0
M  CHG  1   8   1
M  END
> <s_m_source_file>
BACE_24.smi

> <i_m_source_file_index>
1

> <i_lp_mmshare_version>
42013

> <i_f3d_flags>
0

> <s_epik_input>
W0NIM11bQ0gyXU9jMVtjSF1jKGMoQyhGKShGKUYpW2NIXVtjSF0xKVtDSDJdW05IXVtDSDJdW0NAQEhdKFtPSF0pW0NAQEhdMltDSDJdW0NASF0oW0NIM10pW0NIMl1bQ0gyXVtDSDJdW0NIMl1bQ0gyXVtDSDJdW0NIMl1bQ0gyXUMoPU8pTihbQ0gzXSlbQ0BASF0oW0NIM10pQyg9TylbTkhdMg==

> <s_epik_cmdline>
J2VwaWtfcHl0aG9uJywgJy1waCcsICc3LjAnLCAnLXRuJywgJzgnLCAnLW1hJywgJzIwMCcsICctaW1hZScsICc8aW5maWxlLm1hZT4nLCAnLW9tYWUnLCAnPG91dGZpbGUubWFlPic=

> <r_lp_tautomer_probability>
1

> <r_epik_Ionization_Penalty>
  0.0304

> <r_epik_Ionization_Penalty_Charging>
  0.0304

> <r_epik_Ionization_Penalty_Neutral>
  0.0000

> <r_epik_State_Penalty>
  0.0250

> <r_epik_Charging_Adjusted_Penalty>
0.0553863

> <i_epik_Tot_Q>
1

> <i_epik_Tot_abs_Q>
1

> <s_lp_Force_Field>
OPLS_2005

> <r_lp_Energy>
40.762

> <b_lp_Chiralities_Consistent>
1

> <s_lp_Variant>
BACE_24.smi:1-1

> <chiral flag>
1

> <version>
0

> <s_i_glide_gridfile>
second_dock_grid_2

> <i_i_glide_lignum>
39

> <i_i_glide_rotatable_bonds>
9

> <r_i_docking_score>
-4.32254

> <r_i_glide_ligand_efficiency>
-0.110834

> <r_i_glide_ligand_efficiency_sa>
-0.375863

> <r_i_glide_ligand_efficiency_ln>
-0.926875

> <r_glide_XP_GScore>
-4.34754

> <r_i_glide_gscore>
-4.34754

> <r_i_glide_evdw>
-39.6833

> <r_i_glide_ecoul>
-8.55024

> <r_i_glide_energy>
-48.2336

> <r_i_glide_einternal>
6.47678

> <r_i_glide_emodel>
-63.102

> <r_glide_XP_HBond>
-0.550709

> <i_i_glide_confnum>
1

> <i_i_glide_posenum>
8

> <r_i_glide_eff_state_penalty>
0.025

> <i_glide_XP_PoseRank>
1

$$$$
BACE_24.smi:1
                    3D
 Structure written by MMmdl.
 85 86  0  0  1  0            999 V2000
   20.2505   42.4080   -1.3822 C   0  0  0  0  0  0
   20.5388   41.3492   -2.4625 C   0  0  0  0  0  0
   21.6996   41.6582   -3.2350 O   0  0  0  0  0  0
   21.6291   42.6605   -4.1817 C   0  0  0  0  0  0
   22.8111   43.0031   -4.8701 C   0  0  0  0  0  0
   22.8340   44.0413   -5.8309 C   0  0  0  0  0  0
   24.0951   44.2255   -6.6743 C   0  0  0  0  0  0
   24.2856   43.1207   -7.6284 N   0  0  0  0  0  0
   23.1314   42.9000   -8.5049 C   0  0  0  0  0  0
   23.1782   41.6248   -9.3696 C   0  0  1  0  0  0
   23.6604   40.5498   -8.5801 O   0  0  0  0  0  0
   21.7391   41.2661   -9.8315 C   0  0  2  0  0  0
   21.6629   40.0256  -10.7515 C   0  0  0  0  0  0
   20.2433   39.4758  -11.0436 C   0  0  2  0  0  0
   19.4393   40.3309  -12.0394 C   0  0  0  0  0  0
   19.4421   39.1522   -9.7595 C   0  0  0  0  0  0
   18.2037   38.2707  -10.0018 C   0  0  0  0  0  0
   17.3923   37.9384   -8.7349 C   0  0  0  0  0  0
   16.6689   39.1271   -8.0704 C   0  0  0  0  0  0
   15.6465   39.8503   -8.9733 C   0  0  0  0  0  0
   16.1104   41.2517   -9.4070 C   0  0  0  0  0  0
   15.1594   41.9193  -10.4198 C   0  0  0  0  0  0
   15.4487   43.4146  -10.6812 C   0  0  0  0  0  0
   16.8594   43.6577  -11.2559 C   0  0  0  0  0  0
   17.0390   43.3495  -12.4371 O   0  0  0  0  0  0
   17.8468   44.1493  -10.4592 N   0  0  0  0  0  0
   17.5351   44.7784   -9.1654 C   0  0  0  0  0  0
   19.2770   44.0530  -10.8551 C   0  0  1  0  0  0
   19.9048   45.4501  -11.0300 C   0  0  0  0  0  0
   20.0972   43.1480   -9.9088 C   0  0  0  0  0  0
   19.8490   43.1006   -8.7044 O   0  0  0  0  0  0
   21.0606   42.3987  -10.4753 N   0  0  0  0  0  0
   21.6543   44.7992   -6.0699 C   0  0  0  0  0  0
   20.4600   44.4146   -5.4254 C   0  0  0  0  0  0
   20.4413   43.3501   -4.5088 C   0  0  0  0  0  0
   21.6332   46.0145   -7.0020 C   0  0  0  0  0  0
   20.4470   46.6259   -6.9878 F   0  0  0  0  0  0
   22.5403   46.9053   -6.5999 F   0  0  0  0  0  0
   21.8921   45.6684   -8.2608 F   0  0  0  0  0  0
   23.8442   41.7694  -10.2212 H   0  0  0  0  0  0
   21.1950   41.0096   -8.9205 H   0  0  0  0  0  0
   20.4150   38.5375  -11.5621 H   0  0  0  0  0  0
   19.3532   43.5824  -11.8367 H   0  0  0  0  0  0
   19.4097   42.1033   -0.7572 H   0  0  0  0  0  0
   20.0016   43.3780   -1.8078 H   0  0  0  0  0  0
   21.1146   42.5502   -0.7357 H   0  0  0  0  0  0
   19.6679   41.1702   -3.0938 H   0  0  0  0  0  0
   20.7267   40.3983   -1.9677 H   0  0  0  0  0  0
   23.7123   42.4403   -4.6773 H   0  0  0  0  0  0
   24.9494   44.2758   -5.9984 H   0  0  0  0  0  0
   24.0811   45.1748   -7.2040 H   0  0  0  0  0  0
   25.1280   43.2591   -8.1796 H   0  0  0  0  0  0
   22.9953   43.7629   -9.1582 H   0  0  0  0  0  0
   22.2327   42.8239   -7.8968 H   0  0  0  0  0  0
   23.9324   39.8411   -9.1495 H   0  0  0  0  0  0
   22.1748   40.2352  -11.6897 H   0  0  0  0  0  0
   22.2307   39.2152  -10.2936 H   0  0  0  0  0  0
   18.6075   39.7619  -12.4383 H   0  0  0  0  0  0
   20.0495   40.6510  -12.8843 H   0  0  0  0  0  0
   18.9967   41.2088  -11.5771 H   0  0  0  0  0  0
   20.0948   38.6425   -9.0488 H   0  0  0  0  0  0
   19.1367   40.0792   -9.2765 H   0  0  0  0  0  0
   18.5361   37.3310  -10.4429 H   0  0  0  0  0  0
   17.5458   38.7321  -10.7361 H   0  0  0  0  0  0
   16.6473   37.1838   -8.9893 H   0  0  0  0  0  0
   18.0441   37.4637   -8.0004 H   0  0  0  0  0  0
   17.3917   39.8341   -7.6633 H   0  0  0  0  0  0
   16.1385   38.7369   -7.1995 H   0  0  0  0  0  0
   15.4077   39.2399   -9.8454 H   0  0  0  0  0  0
   14.7074   39.9542   -8.4259 H   0  0  0  0  0  0
   17.1107   41.1852   -9.8354 H   0  0  0  0  0  0
   16.1967   41.8757   -8.5176 H   0  0  0  0  0  0
   15.1944   41.3653  -11.3576 H   0  0  0  0  0  0
   14.1353   41.8261  -10.0577 H   0  0  0  0  0  0
   15.2420   43.9834   -9.7779 H   0  0  0  0  0  0
   14.7302   43.7832  -11.4138 H   0  0  0  0  0  0
   18.4046   45.2350   -8.6944 H   0  0  0  0  0  0
   17.1481   44.0450   -8.4561 H   0  0  0  0  0  0
   16.7972   45.5713   -9.2865 H   0  0  0  0  0  0
   20.9226   45.3713  -11.4150 H   0  0  0  0  0  0
   19.9564   46.0059  -10.0937 H   0  0  0  0  0  0
   19.3328   46.0468  -11.7403 H   0  0  0  0  0  0
   21.2263   42.5131  -11.4638 H   0  0  0  0  0  0
   19.5356   44.9351   -5.6279 H   0  0  0  0  0  0
   19.4974   43.1063   -4.0480 H   0  0  0  0  0  0
  1  2  1  0  0  0
  1 44  1  0  0  0
  1 45  1  0  0  0
  1 46  1  0  0  0
  2  3  1  0  0  0
  2 47  1  0  0  0
  2 48  1  0  0  0
  3  4  1  0  0  0
  4 35  1  0  0  0
  4  5  2  0  0  0
  5  6  1  0  0  0
  5 49  1  0  0  0
  6  7  1  0  0  0
  6 33  2  0  0  0
  7  8  1  0  0  0
  7 50  1  0  0  0
  7 51  1  0  0  0
  8  9  1  0  0  0
  8 52  1  0  0  0
  9 10  1  0  0  0
  9 53  1  0  0  0
  9 54  1  0  0  0
 10 40  1  0  0  0
 10 11  1  0  0  0
 10 12  1  0  0  0
 11 55  1  0  0  0
 12 41  1  0  0  0
 12 32  1  0  0  0
 12 13  1  0  0  0
 13 14  1  0  0  0
 13 56  1  0  0  0
 13 57  1  0  0  0
 14 42  1  0  0  0
 14 15  1  0  0  0
 14 16  1  0  0  0
 15 58  1  0  0  0
 15 59  1  0  0  0
 15 60  1  0  0  0
 16 17  1  0  0  0
 16 61  1  0  0  0
 16 62  1  0  0  0
 17 18  1  0  0  0
 17 63  1  0  0  0
 17 64  1  0  0  0
 18 19  1  0  0  0
 18 65  1  0  0  0
 18 66  1  0  0  0
 19 20  1  0  0  0
 19 67  1  0  0  0
 19 68  1  0  0  0
 20 21  1  0  0  0
 20 69  1  0  0  0
 20 70  1  0  0  0
 21 22  1  0  0  0
 21 71  1  0  0  0
 21 72  1  0  0  0
 22 23  1  0  0  0
 22 73  1  0  0  0
 22 74  1  0  0  0
 23 24  1  0  0  0
 23 75  1  0  0  0
 23 76  1  0  0  0
 24 25  2  0  0  0
 24 26  1  0  0  0
 26 27  1  0  0  0
 26 28  1  0  0  0
 27 77  1  0  0  0
 27 78  1  0  0  0
 27 79  1  0  0  0
 28 43  1  0  0  0
 28 29  1  0  0  0
 28 30  1  0  0  0
 29 80  1  0  0  0
 29 81  1  0  0  0
 29 82  1  0  0  0
 30 31  2  0  0  0
 30 32  1  0  0  0
 32 83  1  0  0  0
 33 34  1  0  0  0
 33 36  1  0  0  0
 34 35  2  0  0  0
 34 84  1  0  0  0
 35 85  1  0  0  0
 36 37  1  0  0  0
 36 38  1  0  0  0
 36 39  1  0  0  0
M  END
> <s_m_source_file>
BACE_24.smi

> <i_m_source_file_index>
1

> <i_lp_mmshare_version>
42013

> <i_f3d_flags>
0

> <s_epik_input>
W0NIM11bQ0gyXU9jMVtjSF1jKGMoQyhGKShGKUYpW2NIXVtjSF0xKVtDSDJdW05IXVtDSDJdW0NAQEhdKFtPSF0pW0NAQEhdMltDSDJdW0NASF0oW0NIM10pW0NIMl1bQ0gyXVtDSDJdW0NIMl1bQ0gyXVtDSDJdW0NIMl1bQ0gyXUMoPU8pTihbQ0gzXSlbQ0BASF0oW0NIM10pQyg9TylbTkhdMg==

> <s_epik_cmdline>
J2VwaWtfcHl0aG9uJywgJy1waCcsICc3LjAnLCAnLXRuJywgJzgnLCAnLW1hJywgJzIwMCcsICctaW1hZScsICc8aW5maWxlLm1hZT4nLCAnLW9tYWUnLCAnPG91dGZpbGUubWFlPic=

> <r_lp_tautomer_probability>
1

> <r_epik_Ionization_Penalty>
  1.7755

> <r_epik_Ionization_Penalty_Charging>
  0.0000

> <r_epik_Ionization_Penalty_Neutral>
  1.7755

> <r_epik_State_Penalty>
  1.8873

> <r_epik_Charging_Adjusted_Penalty>
1.88729

> <i_epik_Tot_Q>
0

> <i_epik_Tot_abs_Q>
0

> <s_lp_Force_Field>
OPLS_2005

> <r_lp_Energy>
51.3576

> <b_lp_Chiralities_Consistent>
1

> <s_lp_Variant>
BACE_24.smi:1-2

> <chiral flag>
1

> <version>
0

> <s_i_glide_gridfile>
second_dock_grid_2

> <i_i_glide_lignum>
40

> <i_i_glide_rotatable_bonds>
9

> <r_i_docking_score>
-3.12172

> <r_i_glide_ligand_efficiency>
-0.0800441

> <r_i_glide_ligand_efficiency_sa>
-0.271446

> <r_i_glide_ligand_efficiency_ln>
-0.669385

> <r_glide_XP_GScore>
-5.00902

> <r_i_glide_gscore>
-5.00902

> <r_i_glide_evdw>
-38.5678

> <r_i_glide_ecoul>
-7.2631

> <r_i_glide_energy>
-45.8309

> <r_i_glide_einternal>
8.4172

> <r_i_glide_emodel>
-59.4744

> <r_glide_XP_HBond>
-0.713029

> <i_i_glide_confnum>
1

> <i_i_glide_posenum>
10

> <r_i_glide_eff_state_penalty>
1.8873

> <i_glide_XP_PoseRank>
1

$$$$
BACE_25.smi:1
                    3D
 Structure written by MMmdl.
 85 86  0  0  1  0            999 V2000
   12.9739   44.2917   -9.0434 C   0  0  0  0  0  0
   13.9616   44.3121  -10.2192 C   0  0  0  0  0  0
   13.2886   43.8028  -11.5052 C   0  0  0  0  0  0
   15.2419   43.5257   -9.8717 C   0  0  0  0  0  0
   15.0454   42.0201   -9.8682 C   0  0  0  0  0  0
   14.8726   41.3144   -8.6603 C   0  0  0  0  0  0
   14.6966   39.9165   -8.7064 C   0  0  0  0  0  0
   14.5091   39.1174   -7.4301 C   0  0  0  0  0  0
   15.7700   38.9855   -6.6712 N   0  3  0  0  0  0
   16.8330   39.9373   -7.0561 C   0  0  0  0  0  0
   18.2315   39.3378   -6.8103 C   0  0  1  0  0  0
   18.2136   37.9593   -7.1271 O   0  0  0  0  0  0
   19.3861   40.0268   -7.5882 C   0  0  2  0  0  0
   20.4696   39.0032   -8.0094 C   0  0  0  0  0  0
   21.3812   39.4433   -9.1810 C   0  0  2  0  0  0
   21.8762   38.2066   -9.9554 C   0  0  0  0  0  0
   22.5704   40.3108   -8.7156 C   0  0  0  0  0  0
   23.2799   41.0541   -9.8588 C   0  0  0  0  0  0
   24.4390   41.8739   -9.3408 C   0  0  0  0  0  0
   24.4938   43.2142   -9.3618 C   0  0  0  0  0  0
   25.6389   44.0180   -8.7859 C   0  0  0  0  0  0
   25.2328   44.8265   -7.5427 C   0  0  0  0  0  0
   24.7116   43.9672   -6.3720 C   0  0  0  0  0  0
   23.1695   43.9101   -6.2830 C   0  0  0  0  0  0
   22.6412   43.0469   -5.1226 C   0  0  0  0  0  0
   23.4698   42.5468   -4.3580 O   0  0  0  0  0  0
   21.3054   42.8330   -4.9509 N   0  0  0  0  0  0
   20.9132   41.9359   -3.8490 C   0  0  0  0  0  0
   20.1756   43.3555   -5.7694 C   0  0  1  0  0  0
   20.2606   44.8335   -6.2078 C   0  0  0  0  0  0
   19.6152   42.3963   -6.8392 C   0  0  0  0  0  0
   18.8248   42.8254   -7.6796 O   0  0  0  0  0  0
   19.9745   41.1016   -6.7847 N   0  0  0  0  0  0
   14.6995   39.2848   -9.9686 C   0  0  0  0  0  0
   14.8664   39.9510  -11.1307 N   0  0  0  0  0  0
   15.0334   41.2900  -11.0757 C   0  0  0  0  0  0
   18.4544   39.3909   -5.7438 H   0  0  0  0  0  0
   18.9660   40.4334   -8.5103 H   0  0  0  0  0  0
   20.7771   40.0313   -9.8732 H   0  0  0  0  0  0
   19.3448   43.4050   -5.0645 H   0  0  0  0  0  0
   12.6487   43.2760   -8.8154 H   0  0  0  0  0  0
   12.0857   44.8838   -9.2654 H   0  0  0  0  0  0
   13.4261   44.7065   -8.1419 H   0  0  0  0  0  0
   14.2411   45.3535  -10.3827 H   0  0  0  0  0  0
   13.0173   42.7502  -11.4198 H   0  0  0  0  0  0
   13.9429   43.9110  -12.3702 H   0  0  0  0  0  0
   12.3783   44.3637  -11.7192 H   0  0  0  0  0  0
   16.0255   43.7592  -10.5939 H   0  0  0  0  0  0
   15.6243   43.8428   -8.9004 H   0  0  0  0  0  0
   14.8748   41.8368   -7.7144 H   0  0  0  0  0  0
   13.7780   39.6274   -6.8020 H   0  0  0  0  0  0
   14.0995   38.1307   -7.6510 H   0  0  0  0  0  0
   15.5690   39.1000   -5.6882 H   0  0  0  0  0  0
   16.7050   40.2131   -8.1031 H   0  0  0  0  0  0
   16.7215   40.8480   -6.4680 H   0  0  0  0  0  0
   17.4453   37.5694   -6.7372 H   0  0  0  0  0  0
   21.0736   38.7014   -7.1526 H   0  0  0  0  0  0
   19.9513   38.0963   -8.3226 H   0  0  0  0  0  0
   22.5087   37.5754   -9.3308 H   0  0  0  0  0  0
   22.4504   38.4823  -10.8392 H   0  0  0  0  0  0
   21.0414   37.5977  -10.3034 H   0  0  0  0  0  0
   22.2331   41.0603   -8.0027 H   0  0  0  0  0  0
   23.2856   39.6902   -8.1740 H   0  0  0  0  0  0
   23.6722   40.3579  -10.5987 H   0  0  0  0  0  0
   22.5732   41.7037  -10.3768 H   0  0  0  0  0  0
   25.2544   41.3155   -8.9035 H   0  0  0  0  0  0
   23.6717   43.7799   -9.7758 H   0  0  0  0  0  0
   26.4642   43.3499   -8.5350 H   0  0  0  0  0  0
   26.0104   44.6895   -9.5603 H   0  0  0  0  0  0
   26.1138   45.3725   -7.2038 H   0  0  0  0  0  0
   24.5012   45.5901   -7.8100 H   0  0  0  0  0  0
   25.1365   42.9637   -6.4264 H   0  0  0  0  0  0
   25.0901   44.3992   -5.4442 H   0  0  0  0  0  0
   22.8342   44.9345   -6.1365 H   0  0  0  0  0  0
   22.7460   43.5429   -7.2176 H   0  0  0  0  0  0
   21.3825   40.9568   -3.9593 H   0  0  0  0  0  0
   19.8389   41.7611   -3.7952 H   0  0  0  0  0  0
   21.2165   42.3527   -2.8873 H   0  0  0  0  0  0
   19.2672   45.2250   -6.4300 H   0  0  0  0  0  0
   20.8462   44.9653   -7.1168 H   0  0  0  0  0  0
   20.6755   45.4633   -5.4203 H   0  0  0  0  0  0
   20.6460   40.8300   -6.0809 H   0  0  0  0  0  0
   14.5719   38.2153  -10.0487 H   0  0  0  0  0  0
   15.1620   41.7932  -12.0227 H   0  0  0  0  0  0
   16.1306   38.0529   -6.8171 H   0  0  0  0  0  0
  1  2  1  0  0  0
  1 41  1  0  0  0
  1 42  1  0  0  0
  1 43  1  0  0  0
  2  3  1  0  0  0
  2  4  1  0  0  0
  2 44  1  0  0  0
  3 45  1  0  0  0
  3 46  1  0  0  0
  3 47  1  0  0  0
  4  5  1  0  0  0
  4 48  1  0  0  0
  4 49  1  0  0  0
  5 36  1  0  0  0
  5  6  2  0  0  0
  6  7  1  0  0  0
  6 50  1  0  0  0
  7  8  1  0  0  0
  7 34  2  0  0  0
  8  9  1  0  0  0
  8 51  1  0  0  0
  8 52  1  0  0  0
  9 10  1  0  0  0
  9 53  1  0  0  0
  9 85  1  0  0  0
 10 11  1  0  0  0
 10 54  1  0  0  0
 10 55  1  0  0  0
 11 37  1  0  0  0
 11 12  1  0  0  0
 11 13  1  0  0  0
 12 56  1  0  0  0
 13 38  1  0  0  0
 13 33  1  0  0  0
 13 14  1  0  0  0
 14 15  1  0  0  0
 14 57  1  0  0  0
 14 58  1  0  0  0
 15 39  1  0  0  0
 15 16  1  0  0  0
 15 17  1  0  0  0
 16 59  1  0  0  0
 16 60  1  0  0  0
 16 61  1  0  0  0
 17 18  1  0  0  0
 17 62  1  0  0  0
 17 63  1  0  0  0
 18 19  1  0  0  0
 18 64  1  0  0  0
 18 65  1  0  0  0
 19 20  2  0  0  0
 19 66  1  0  0  0
 20 21  1  0  0  0
 20 67  1  0  0  0
 21 22  1  0  0  0
 21 68  1  0  0  0
 21 69  1  0  0  0
 22 23  1  0  0  0
 22 70  1  0  0  0
 22 71  1  0  0  0
 23 24  1  0  0  0
 23 72  1  0  0  0
 23 73  1  0  0  0
 24 25  1  0  0  0
 24 74  1  0  0  0
 24 75  1  0  0  0
 25 26  2  0  0  0
 25 27  1  0  0  0
 27 28  1  0  0  0
 27 29  1  0  0  0
 28 76  1  0  0  0
 28 77  1  0  0  0
 28 78  1  0  0  0
 29 40  1  0  0  0
 29 30  1  0  0  0
 29 31  1  0  0  0
 30 79  1  0  0  0
 30 80  1  0  0  0
 30 81  1  0  0  0
 31 32  2  0  0  0
 31 33  1  0  0  0
 33 82  1  0  0  0
 34 35  1  0  0  0
 34 83  1  0  0  0
 35 36  2  0  0  0
 36 84  1  0  0  0
M  CHG  1   9   1
M  END
> <s_m_source_file>
BACE_25.smi

> <i_m_source_file_index>
1

> <i_lp_mmshare_version>
42013

> <i_f3d_flags>
0

> <s_epik_input>
W0NIM11bQ0hdKFtDSDNdKVtDSDJdYzFbY0hdYyhbY0hdbltjSF0xKVtDSDJdW05IXVtDSDJdW0NAQEhdKFtPSF0pW0NAQEhdMltDSDJdW0NASF0oW0NIM10pW0NIMl1bQ0gyXS9bQ0hdPVtDSF0vW0NIMl1bQ0gyXVtDSDJdW0NIMl1DKD1PKU4oW0NIM10pW0NAQEhdKFtDSDNdKUMoPU8pW05IXTI=

> <s_epik_cmdline>
J2VwaWtfcHl0aG9uJywgJy1waCcsICc3LjAnLCAnLXRuJywgJzgnLCAnLW1hJywgJzIwMCcsICctaW1hZScsICc8aW5maWxlLm1hZT4nLCAnLW9tYWUnLCAnPG91dGZpbGUubWFlPic=

> <r_epik_Ionization_Penalty>
  0.0459

> <r_epik_Ionization_Penalty_Charging>
  0.0402

> <r_epik_Ionization_Penalty_Neutral>
  0.0057

> <r_epik_State_Penalty>
  0.0347

> <r_epik_Charging_Adjusted_Penalty>
0.0749568

> <i_epik_Tot_Q>
1

> <i_epik_Tot_abs_Q>
1

> <s_lp_Force_Field>
OPLS_2005

> <r_lp_Energy>
32.316

> <b_lp_Chiralities_Consistent>
1

> <s_lp_Variant>
BACE_25.smi:1-1

> <chiral flag>
1

> <version>
0

> <s_i_glide_gridfile>
second_dock_grid_2

> <i_i_glide_lignum>
41

> <i_i_glide_rotatable_bonds>
8

> <r_i_docking_score>
-4.7288

> <r_i_glide_ligand_efficiency>
-0.131355

> <r_i_glide_ligand_efficiency_sa>
-0.433726

> <r_i_glide_ligand_efficiency_ln>
-1.0317

> <r_glide_XP_GScore>
-4.7635

> <r_i_glide_gscore>
-4.7635

> <r_i_glide_evdw>
-23.3968

> <r_i_glide_ecoul>
-13.4355

> <r_i_glide_energy>
-36.8323

> <r_i_glide_einternal>
8.75171

> <r_i_glide_emodel>
-57.2812

> <r_glide_XP_HBond>
-0.936652

> <i_i_glide_confnum>
1

> <i_i_glide_posenum>
1

> <r_i_glide_eff_state_penalty>
0.0347

> <i_glide_XP_PoseRank>
1

$$$$
BACE_25.smi:1
                    3D
 Structure written by MMmdl.
 84 85  0  0  1  0            999 V2000
   23.3813   40.7718   -9.0637 C   0  0  0  0  0  0
   22.8023   39.5483   -8.3359 C   0  0  0  0  0  0
   21.9288   38.6824   -9.2643 C   0  0  0  0  0  0
   22.0756   39.9391   -7.0312 C   0  0  0  0  0  0
   20.7241   40.5977   -7.2524 C   0  0  0  0  0  0
   19.5559   39.8185   -7.3727 C   0  0  0  0  0  0
   18.3225   40.4651   -7.5711 C   0  0  0  0  0  0
   17.0294   39.6744   -7.4957 C   0  0  0  0  0  0
   16.5031   39.3501   -8.8101 N   0  0  0  0  0  0
   15.5884   40.3512   -9.3498 C   0  0  0  0  0  0
   15.6810   40.3823  -10.8855 C   0  0  1  0  0  0
   14.4602   40.8729  -11.4188 O   0  0  0  0  0  0
   16.8443   41.2409  -11.4621 C   0  0  2  0  0  0
   18.2493   40.5972  -11.2982 C   0  0  0  0  0  0
   19.4436   41.3859  -11.8975 C   0  0  2  0  0  0
   20.4982   40.4442  -12.5119 C   0  0  0  0  0  0
   20.0717   42.2807  -10.8093 C   0  0  0  0  0  0
   21.1104   43.2974  -11.2966 C   0  0  0  0  0  0
   21.5896   44.1891  -10.1767 C   0  0  0  0  0  0
   21.5731   45.5294  -10.2289 C   0  0  0  0  0  0
   21.9410   46.4264   -9.0718 C   0  0  0  0  0  0
   20.7803   47.3463   -8.6591 C   0  0  0  0  0  0
   19.5019   46.6137   -8.1973 C   0  0  0  0  0  0
   18.5044   46.2755   -9.3356 C   0  0  0  0  0  0
   17.1505   45.7470   -8.8317 C   0  0  0  0  0  0
   16.8970   45.8861   -7.6400 O   0  0  0  0  0  0
   16.2563   45.1496   -9.6634 N   0  0  0  0  0  0
   15.0901   44.5000   -9.0363 C   0  0  0  0  0  0
   16.3222   45.0606  -11.1414 C   0  0  1  0  0  0
   16.8186   46.3221  -11.8841 C   0  0  0  0  0  0
   16.8093   43.7266  -11.7327 C   0  0  0  0  0  0
   17.1586   43.6944  -12.9120 O   0  0  0  0  0  0
   16.7626   42.6221  -10.9661 N   0  0  0  0  0  0
   18.3157   41.8752   -7.6451 C   0  0  0  0  0  0
   19.4283   42.6339   -7.5393 N   0  0  0  0  0  0
   20.6000   42.0001   -7.3273 C   0  0  0  0  0  0
   15.7697   39.3561  -11.2402 H   0  0  0  0  0  0
   16.6659   41.2577  -12.5275 H   0  0  0  0  0  0
   19.0774   42.0076  -12.7117 H   0  0  0  0  0  0
   15.2726   45.0494  -11.4374 H   0  0  0  0  0  0
   22.6116   41.4850   -9.3346 H   0  0  0  0  0  0
   23.8928   40.4891   -9.9822 H   0  0  0  0  0  0
   24.1038   41.2891   -8.4346 H   0  0  0  0  0  0
   23.6630   38.9502   -8.0397 H   0  0  0  0  0  0
   21.0388   39.2158   -9.5905 H   0  0  0  0  0  0
   21.6024   37.7724   -8.7640 H   0  0  0  0  0  0
   22.4598   38.3810  -10.1633 H   0  0  0  0  0  0
   21.9200   39.0467   -6.4249 H   0  0  0  0  0  0
   22.7071   40.5951   -6.4308 H   0  0  0  0  0  0
   19.6022   38.7432   -7.2818 H   0  0  0  0  0  0
   17.2344   38.7504   -6.9533 H   0  0  0  0  0  0
   16.2919   40.2093   -6.8936 H   0  0  0  0  0  0
   16.0441   38.4439   -8.7661 H   0  0  0  0  0  0
   14.5737   40.1023   -9.0320 H   0  0  0  0  0  0
   15.7865   41.3389   -8.9377 H   0  0  0  0  0  0
   13.7471   40.4149  -10.9878 H   0  0  0  0  0  0
   18.4543   40.3960  -10.2511 H   0  0  0  0  0  0
   18.2072   39.6100  -11.7552 H   0  0  0  0  0  0
   20.9809   39.8307  -11.7544 H   0  0  0  0  0  0
   21.2838   40.9998  -13.0255 H   0  0  0  0  0  0
   20.0609   39.7666  -13.2432 H   0  0  0  0  0  0
   19.2890   42.8351  -10.2962 H   0  0  0  0  0  0
   20.5163   41.6373  -10.0558 H   0  0  0  0  0  0
   21.9704   42.8048  -11.7510 H   0  0  0  0  0  0
   20.6505   43.9396  -12.0396 H   0  0  0  0  0  0
   21.9291   43.6963   -9.2783 H   0  0  0  0  0  0
   21.2279   46.0259  -11.1242 H   0  0  0  0  0  0
   22.2577   45.8210   -8.2216 H   0  0  0  0  0  0
   22.8015   47.0281   -9.3654 H   0  0  0  0  0  0
   21.1348   47.9656   -7.8341 H   0  0  0  0  0  0
   20.5463   48.0420   -9.4658 H   0  0  0  0  0  0
   19.7649   45.7109   -7.6436 H   0  0  0  0  0  0
   19.0041   47.2681   -7.4799 H   0  0  0  0  0  0
   18.3222   47.1902   -9.8968 H   0  0  0  0  0  0
   18.9322   45.5385  -10.0123 H   0  0  0  0  0  0
   15.4063   43.7814   -8.2770 H   0  0  0  0  0  0
   14.4661   43.9517   -9.7444 H   0  0  0  0  0  0
   14.4594   45.2407   -8.5453 H   0  0  0  0  0  0
   16.4597   46.3260  -12.9136 H   0  0  0  0  0  0
   17.9060   46.3664  -11.9445 H   0  0  0  0  0  0
   16.4513   47.2369  -11.4174 H   0  0  0  0  0  0
   16.4875   42.7363  -10.0017 H   0  0  0  0  0  0
   17.3891   42.4186   -7.7492 H   0  0  0  0  0  0
   21.4709   42.6313   -7.2295 H   0  0  0  0  0  0
  1  2  1  0  0  0
  1 41  1  0  0  0
  1 42  1  0  0  0
  1 43  1  0  0  0
  2  3  1  0  0  0
  2  4  1  0  0  0
  2 44  1  0  0  0
  3 45  1  0  0  0
  3 46  1  0  0  0
  3 47  1  0  0  0
  4  5  1  0  0  0
  4 48  1  0  0  0
  4 49  1  0  0  0
  5 36  1  0  0  0
  5  6  2  0  0  0
  6  7  1  0  0  0
  6 50  1  0  0  0
  7  8  1  0  0  0
  7 34  2  0  0  0
  8  9  1  0  0  0
  8 51  1  0  0  0
  8 52  1  0  0  0
  9 10  1  0  0  0
  9 53  1  0  0  0
 10 11  1  0  0  0
 10 54  1  0  0  0
 10 55  1  0  0  0
 11 37  1  0  0  0
 11 12  1  0  0  0
 11 13  1  0  0  0
 12 56  1  0  0  0
 13 38  1  0  0  0
 13 33  1  0  0  0
 13 14  1  0  0  0
 14 15  1  0  0  0
 14 57  1  0  0  0
 14 58  1  0  0  0
 15 39  1  0  0  0
 15 16  1  0  0  0
 15 17  1  0  0  0
 16 59  1  0  0  0
 16 60  1  0  0  0
 16 61  1  0  0  0
 17 18  1  0  0  0
 17 62  1  0  0  0
 17 63  1  0  0  0
 18 19  1  0  0  0
 18 64  1  0  0  0
 18 65  1  0  0  0
 19 20  2  0  0  0
 19 66  1  0  0  0
 20 21  1  0  0  0
 20 67  1  0  0  0
 21 22  1  0  0  0
 21 68  1  0  0  0
 21 69  1  0  0  0
 22 23  1  0  0  0
 22 70  1  0  0  0
 22 71  1  0  0  0
 23 24  1  0  0  0
 23 72  1  0  0  0
 23 73  1  0  0  0
 24 25  1  0  0  0
 24 74  1  0  0  0
 24 75  1  0  0  0
 25 26  2  0  0  0
 25 27  1  0  0  0
 27 28  1  0  0  0
 27 29  1  0  0  0
 28 76  1  0  0  0
 28 77  1  0  0  0
 28 78  1  0  0  0
 29 40  1  0  0  0
 29 30  1  0  0  0
 29 31  1  0  0  0
 30 79  1  0  0  0
 30 80  1  0  0  0
 30 81  1  0  0  0
 31 32  2  0  0  0
 31 33  1  0  0  0
 33 82  1  0  0  0
 34 35  1  0  0  0
 34 83  1  0  0  0
 35 36  2  0  0  0
 36 84  1  0  0  0
M  END
> <s_m_source_file>
BACE_25.smi

> <i_m_source_file_index>
1

> <i_lp_mmshare_version>
42013

> <i_f3d_flags>
0

> <s_epik_input>
W0NIM11bQ0hdKFtDSDNdKVtDSDJdYzFbY0hdYyhbY0hdbltjSF0xKVtDSDJdW05IXVtDSDJdW0NAQEhdKFtPSF0pW0NAQEhdMltDSDJdW0NASF0oW0NIM10pW0NIMl1bQ0gyXS9bQ0hdPVtDSF0vW0NIMl1bQ0gyXVtDSDJdW0NIMl1DKD1PKU4oW0NIM10pW0NAQEhdKFtDSDNdKUMoPU8pW05IXTI=

> <s_epik_cmdline>
J2VwaWtfcHl0aG9uJywgJy1waCcsICc3LjAnLCAnLXRuJywgJzgnLCAnLW1hJywgJzIwMCcsICctaW1hZScsICc8aW5maWxlLm1hZT4nLCAnLW9tYWUnLCAnPG91dGZpbGUubWFlPic=

> <r_epik_Ionization_Penalty>
  1.6331

> <r_epik_Ionization_Penalty_Charging>
  0.0000

> <r_epik_Ionization_Penalty_Neutral>
  1.6331

> <r_epik_State_Penalty>
  1.7136

> <r_epik_Charging_Adjusted_Penalty>
1.71364

> <i_epik_Tot_Q>
0

> <i_epik_Tot_abs_Q>
0

> <s_lp_Force_Field>
OPLS_2005

> <r_lp_Energy>
40.4574

> <b_lp_Chiralities_Consistent>
1

> <s_lp_Variant>
BACE_25.smi:1-2

> <chiral flag>
1

> <version>
0

> <s_i_glide_gridfile>
second_dock_grid_2

> <i_i_glide_lignum>
42

> <i_i_glide_rotatable_bonds>
8

> <r_i_docking_score>
-1.52582

> <r_i_glide_ligand_efficiency>
-0.0423838

> <r_i_glide_ligand_efficiency_sa>
-0.139948

> <r_i_glide_ligand_efficiency_ln>
-0.332892

> <r_glide_XP_GScore>
-3.23942

> <r_i_glide_gscore>
-3.23942

> <r_i_glide_evdw>
-31.1872

> <r_i_glide_ecoul>
-13.215

> <r_i_glide_energy>
-44.4022

> <r_i_glide_einternal>
8.38686

> <r_i_glide_emodel>
-60.3767

> <r_glide_XP_HBond>
-0.964322

> <i_i_glide_confnum>
1

> <i_i_glide_posenum>
117

> <r_i_glide_eff_state_penalty>
1.7136

> <i_glide_XP_PoseRank>
1

$$$$
BACE_26.smi:1
                    3D
 Structure written by MMmdl.
 93 94  0  0  1  0            999 V2000
   31.3239   43.7099  -14.4379 C   0  0  0  0  0  0
   30.0954   42.9851  -15.0106 C   0  0  0  0  0  0
   30.3268   42.5862  -16.4749 C   0  0  0  0  0  0
   29.7012   41.7509  -14.1773 C   0  0  0  0  0  0
   29.3082   42.0748  -12.7475 C   0  0  0  0  0  0
   28.0216   42.5567  -12.4424 C   0  0  0  0  0  0
   27.6780   42.8609  -11.1075 C   0  0  0  0  0  0
   28.6822   42.6348  -10.1351 C   0  0  0  0  0  0
   29.9146   42.1545  -10.4092 N   0  0  0  0  0  0
   30.2165   41.8841  -11.6922 C   0  0  0  0  0  0
   26.2766   43.3894  -10.7466 C   0  0  0  0  0  0
   25.7324   44.3356  -11.8442 C   0  0  0  0  0  0
   26.3041   44.1858   -9.4180 C   0  0  0  0  0  0
   25.3980   42.1953  -10.6245 N   0  3  0  0  0  0
   23.9725   42.4007  -10.2654 C   0  0  0  0  0  0
   23.3452   41.0578   -9.8616 C   0  0  1  0  0  0
   24.1823   40.5526   -8.8411 O   0  0  0  0  0  0
   21.9056   41.1233   -9.2890 C   0  0  2  0  0  0
   21.3604   39.7090   -8.9865 C   0  0  0  0  0  0
   19.8923   39.6372   -8.5065 C   0  0  2  0  0  0
   19.6903   40.3767   -7.1698 C   0  0  0  0  0  0
   19.4481   38.1631   -8.4065 C   0  0  0  0  0  0
   17.9268   37.9394   -8.3232 C   0  0  0  0  0  0
   17.1712   38.2557   -9.6334 C   0  0  0  0  0  0
   15.6437   38.3131   -9.4656 C   0  0  0  0  0  0
   15.1316   39.3636   -8.4569 C   0  0  0  0  0  0
   15.6518   40.7981   -8.6736 C   0  0  0  0  0  0
   15.1526   41.4475   -9.9775 C   0  0  0  0  0  0
   15.6621   42.8882  -10.1682 C   0  0  0  0  0  0
   17.0355   42.9703  -10.8681 C   0  0  0  0  0  0
   17.0718   42.6266  -12.0486 O   0  0  0  0  0  0
   18.1343   43.4372  -10.2168 N   0  0  0  0  0  0
   18.0472   43.9095   -8.8254 C   0  0  0  0  0  0
   19.4365   43.5803  -10.9223 C   0  0  1  0  0  0
   19.5761   44.9882  -11.5323 C   0  0  0  0  0  0
   20.6682   43.1238  -10.1229 C   0  0  0  0  0  0
   21.3338   43.9380   -9.4835 O   0  0  0  0  0  0
   20.9660   41.8196  -10.1676 N   0  0  0  0  0  0
   23.3773   40.3757  -10.7125 H   0  0  0  0  0  0
   21.9474   41.6742   -8.3471 H   0  0  0  0  0  0
   19.2692   40.1271   -9.2493 H   0  0  0  0  0  0
   19.4463   42.9088  -11.7841 H   0  0  0  0  0  0
   31.1352   44.0780  -13.4290 H   0  0  0  0  0  0
   31.5943   44.5707  -15.0495 H   0  0  0  0  0  0
   32.1867   43.0457  -14.3958 H   0  0  0  0  0  0
   29.2616   43.6880  -14.9925 H   0  0  0  0  0  0
   29.4467   42.0993  -16.8981 H   0  0  0  0  0  0
   31.1591   41.8874  -16.5669 H   0  0  0  0  0  0
   30.5555   43.4550  -17.0921 H   0  0  0  0  0  0
   30.5168   41.0266  -14.1713 H   0  0  0  0  0  0
   28.8618   41.2472  -14.6562 H   0  0  0  0  0  0
   27.3120   42.6775  -13.2456 H   0  0  0  0  0  0
   28.5059   42.8323   -9.0916 H   0  0  0  0  0  0
   31.2102   41.5043  -11.8782 H   0  0  0  0  0  0
   24.7890   44.7927  -11.5449 H   0  0  0  0  0  0
   25.5394   43.8249  -12.7862 H   0  0  0  0  0  0
   26.4300   45.1516  -12.0416 H   0  0  0  0  0  0
   25.3624   44.6992   -9.2253 H   0  0  0  0  0  0
   27.0708   44.9619   -9.4398 H   0  0  0  0  0  0
   26.4962   43.5487   -8.5549 H   0  0  0  0  0  0
   25.7710   41.5983   -9.8962 H   0  0  0  0  0  0
   23.4439   42.8361  -11.1144 H   0  0  0  0  0  0
   23.8781   43.0929   -9.4306 H   0  0  0  0  0  0
   24.2900   39.6154   -8.9876 H   0  0  0  0  0  0
   21.4614   39.1079   -9.8908 H   0  0  0  0  0  0
   21.9911   39.2224   -8.2430 H   0  0  0  0  0  0
   18.6541   40.3339   -6.8404 H   0  0  0  0  0  0
   19.9387   41.4356   -7.2443 H   0  0  0  0  0  0
   20.3005   39.9446   -6.3781 H   0  0  0  0  0  0
   19.8334   37.5873   -9.2483 H   0  0  0  0  0  0
   19.9177   37.7495   -7.5150 H   0  0  0  0  0  0
   17.5312   38.5221   -7.4932 H   0  0  0  0  0  0
   17.7321   36.9021   -8.0510 H   0  0  0  0  0  0
   17.5021   39.1995  -10.0566 H   0  0  0  0  0  0
   17.4222   37.5089  -10.3891 H   0  0  0  0  0  0
   15.2755   37.3336   -9.1630 H   0  0  0  0  0  0
   15.1943   38.5097  -10.4382 H   0  0  0  0  0  0
   14.0426   39.3700   -8.4826 H   0  0  0  0  0  0
   15.3788   39.0455   -7.4418 H   0  0  0  0  0  0
   16.7390   40.8188   -8.6334 H   0  0  0  0  0  0
   15.3171   41.4064   -7.8302 H   0  0  0  0  0  0
   15.4330   40.8294  -10.8316 H   0  0  0  0  0  0
   14.0619   41.4526   -9.9661 H   0  0  0  0  0  0
   15.5989   43.4235   -9.2259 H   0  0  0  0  0  0
   14.9622   43.4083  -10.8201 H   0  0  0  0  0  0
   18.9741   44.3351   -8.4431 H   0  0  0  0  0  0
   17.7622   43.0972   -8.1543 H   0  0  0  0  0  0
   17.3104   44.7108   -8.7364 H   0  0  0  0  0  0
   20.5366   45.0971  -12.0393 H   0  0  0  0  0  0
   19.5319   45.7580  -10.7622 H   0  0  0  0  0  0
   18.7903   45.1875  -12.2625 H   0  0  0  0  0  0
   20.3676   41.2312  -10.7275 H   0  0  0  0  0  0
   25.4253   41.6730  -11.4893 H   0  0  0  0  0  0
  1  2  1  0  0  0
  1 43  1  0  0  0
  1 44  1  0  0  0
  1 45  1  0  0  0
  2  3  1  0  0  0
  2  4  1  0  0  0
  2 46  1  0  0  0
  3 47  1  0  0  0
  3 48  1  0  0  0
  3 49  1  0  0  0
  4  5  1  0  0  0
  4 50  1  0  0  0
  4 51  1  0  0  0
  5 10  1  0  0  0
  5  6  2  0  0  0
  6  7  1  0  0  0
  6 52  1  0  0  0
  7  8  2  0  0  0
  7 11  1  0  0  0
  8  9  1  0  0  0
  8 53  1  0  0  0
  9 10  2  0  0  0
 10 54  1  0  0  0
 11 12  1  0  0  0
 11 13  1  0  0  0
 11 14  1  0  0  0
 12 55  1  0  0  0
 12 56  1  0  0  0
 12 57  1  0  0  0
 13 58  1  0  0  0
 13 59  1  0  0  0
 13 60  1  0  0  0
 14 15  1  0  0  0
 14 61  1  0  0  0
 14 93  1  0  0  0
 15 16  1  0  0  0
 15 62  1  0  0  0
 15 63  1  0  0  0
 16 39  1  0  0  0
 16 17  1  0  0  0
 16 18  1  0  0  0
 17 64  1  0  0  0
 18 40  1  0  0  0
 18 38  1  0  0  0
 18 19  1  0  0  0
 19 20  1  0  0  0
 19 65  1  0  0  0
 19 66  1  0  0  0
 20 41  1  0  0  0
 20 21  1  0  0  0
 20 22  1  0  0  0
 21 67  1  0  0  0
 21 68  1  0  0  0
 21 69  1  0  0  0
 22 23  1  0  0  0
 22 70  1  0  0  0
 22 71  1  0  0  0
 23 24  1  0  0  0
 23 72  1  0  0  0
 23 73  1  0  0  0
 24 25  1  0  0  0
 24 74  1  0  0  0
 24 75  1  0  0  0
 25 26  1  0  0  0
 25 76  1  0  0  0
 25 77  1  0  0  0
 26 27  1  0  0  0
 26 78  1  0  0  0
 26 79  1  0  0  0
 27 28  1  0  0  0
 27 80  1  0  0  0
 27 81  1  0  0  0
 28 29  1  0  0  0
 28 82  1  0  0  0
 28 83  1  0  0  0
 29 30  1  0  0  0
 29 84  1  0  0  0
 29 85  1  0  0  0
 30 31  2  0  0  0
 30 32  1  0  0  0
 32 33  1  0  0  0
 32 34  1  0  0  0
 33 86  1  0  0  0
 33 87  1  0  0  0
 33 88  1  0  0  0
 34 42  1  0  0  0
 34 35  1  0  0  0
 34 36  1  0  0  0
 35 89  1  0  0  0
 35 90  1  0  0  0
 35 91  1  0  0  0
 36 37  2  0  0  0
 36 38  1  0  0  0
 38 92  1  0  0  0
M  CHG  1  14   1
M  END
> <s_m_source_file>
BACE_26.smi

> <i_m_source_file_index>
1

> <i_lp_mmshare_version>
42013

> <i_f3d_flags>
0

> <s_epik_input>
W0NIM11bQ0hdKFtDSDNdKVtDSDJdYzFbY0hdYyhbY0hdbltjSF0xKUMoW0NIM10pKFtDSDNdKVtOSF1bQ0gyXVtDQEBIXShbT0hdKVtDQEBIXTJbQ0gyXVtDQEhdKFtDSDNdKVtDSDJdW0NIMl1bQ0gyXVtDSDJdW0NIMl1bQ0gyXVtDSDJdW0NIMl1DKD1PKU4oW0NIM10pW0NAQEhdKFtDSDNdKUMoPU8pW05IXTI=

> <s_epik_cmdline>
J2VwaWtfcHl0aG9uJywgJy1waCcsICc3LjAnLCAnLXRuJywgJzgnLCAnLW1hJywgJzIwMCcsICctaW1hZScsICc8aW5maWxlLm1hZT4nLCAnLW9tYWUnLCAnPG91dGZpbGUubWFlPic=

> <r_epik_Ionization_Penalty>
  0.0498

> <r_epik_Ionization_Penalty_Charging>
  0.0401

> <r_epik_Ionization_Penalty_Neutral>
  0.0097

> <r_epik_State_Penalty>
  0.0353

> <r_epik_Charging_Adjusted_Penalty>
0.0753454

> <i_epik_Tot_Q>
1

> <i_epik_Tot_abs_Q>
1

> <s_lp_Force_Field>
OPLS_2005

> <r_lp_Energy>
40.0719

> <b_lp_Chiralities_Consistent>
1

> <s_lp_Variant>
BACE_26.smi:1-1

> <chiral flag>
1

> <version>
0

> <s_i_glide_gridfile>
second_dock_grid_2

> <i_i_glide_lignum>
43

> <i_i_glide_rotatable_bonds>
8

> <r_i_docking_score>
-4.18815

> <r_i_glide_ligand_efficiency>
-0.110214

> <r_i_glide_ligand_efficiency_sa>
-0.370538

> <r_i_glide_ligand_efficiency_ln>
-0.903088

> <r_glide_XP_GScore>
-4.22345

> <r_i_glide_gscore>
-4.22345

> <r_i_glide_evdw>
-35.9

> <r_i_glide_ecoul>
-13.0333

> <r_i_glide_energy>
-48.9333

> <r_i_glide_einternal>
5.3167

> <r_i_glide_emodel>
-63.1304

> <r_glide_XP_HBond>
-0.630519

> <i_i_glide_confnum>
1

> <i_i_glide_posenum>
5

> <r_i_glide_eff_state_penalty>
0.0353

> <i_glide_XP_PoseRank>
1

$$$$
BACE_26.smi:1
                    3D
 Structure written by MMmdl.
 92 93  0  0  1  0            999 V2000
   27.0774   48.8268    0.0615 C   0  0  0  0  0  0
   27.9003   49.4990   -1.0476 C   0  0  0  0  0  0
   29.3982   49.2184   -0.8581 C   0  0  0  0  0  0
   27.4545   49.1032   -2.4739 C   0  0  0  0  0  0
   25.9847   49.3255   -2.8135 C   0  0  0  0  0  0
   25.3512   48.4830   -3.7489 C   0  0  0  0  0  0
   23.9880   48.6830   -4.0799 C   0  0  0  0  0  0
   23.3304   49.7497   -3.4193 C   0  0  0  0  0  0
   23.9258   50.5795   -2.5409 N   0  0  0  0  0  0
   25.2261   50.3757   -2.2535 C   0  0  0  0  0  0
   23.2938   47.7660   -5.1081 C   0  0  0  0  0  0
   23.4968   46.2972   -4.6778 C   0  0  0  0  0  0
   23.9578   47.9716   -6.4860 C   0  0  0  0  0  0
   21.8506   48.1128   -5.1977 N   0  0  0  0  0  0
   20.9575   47.4887   -6.1914 C   0  0  0  0  0  0
   20.4383   46.0803   -5.8067 C   0  0  1  0  0  0
   19.0307   46.1487   -5.6577 O   0  0  0  0  0  0
   20.7845   45.0104   -6.8709 C   0  0  2  0  0  0
   20.0191   45.1500   -8.2101 C   0  0  0  0  0  0
   20.4649   44.1913   -9.3402 C   0  0  2  0  0  0
   21.9511   44.3922   -9.7098 C   0  0  0  0  0  0
   19.5493   44.3699  -10.5724 C   0  0  0  0  0  0
   19.6744   43.2704  -11.6401 C   0  0  0  0  0  0
   18.9315   41.9753  -11.2846 C   0  0  0  0  0  0
   19.2918   40.7847  -12.1964 C   0  0  0  0  0  0
   20.7002   40.1851  -11.9918 C   0  0  0  0  0  0
   21.0760   39.8611  -10.5335 C   0  0  0  0  0  0
   20.0862   38.9173   -9.8170 C   0  0  0  0  0  0
   20.4230   38.6873   -8.3290 C   0  0  0  0  0  0
   20.3064   39.9649   -7.4622 C   0  0  0  0  0  0
   19.3182   40.6802   -7.6292 O   0  0  0  0  0  0
   21.2647   40.2586   -6.5414 N   0  0  0  0  0  0
   22.5501   39.5710   -6.5654 C   0  0  0  0  0  0
   21.0868   41.3907   -5.5928 C   0  0  1  0  0  0
   21.8239   41.1986   -4.2416 C   0  0  0  0  0  0
   21.5430   42.7130   -6.2192 C   0  0  0  0  0  0
   22.7058   42.8560   -6.5980 O   0  0  0  0  0  0
   20.6092   43.6766   -6.3009 N   0  0  0  0  0  0
   20.8453   45.7824   -4.8400 H   0  0  0  0  0  0
   21.8389   45.1548   -7.0958 H   0  0  0  0  0  0
   20.3439   43.1713   -8.9767 H   0  0  0  0  0  0
   20.0449   41.4703   -5.3327 H   0  0  0  0  0  0
   26.0156   49.0539   -0.0100 H   0  0  0  0  0  0
   27.4101   49.1493    1.0475 H   0  0  0  0  0  0
   27.1887   47.7499    0.0104 H   0  0  0  0  0  0
   27.7627   50.5674   -0.9339 H   0  0  0  0  0  0
   29.9980   49.7446   -1.5998 H   0  0  0  0  0  0
   29.6131   48.1534   -0.9578 H   0  0  0  0  0  0
   29.7428   49.5337    0.1259 H   0  0  0  0  0  0
   27.6880   48.0473   -2.6301 H   0  0  0  0  0  0
   28.0493   49.6524   -3.2058 H   0  0  0  0  0  0
   25.9216   47.6951   -4.2146 H   0  0  0  0  0  0
   22.2898   49.9790   -3.5948 H   0  0  0  0  0  0
   25.6604   51.0693   -1.5500 H   0  0  0  0  0  0
   23.0566   45.5832   -5.3624 H   0  0  0  0  0  0
   23.0963   46.1009   -3.6861 H   0  0  0  0  0  0
   24.5504   46.0277   -4.6468 H   0  0  0  0  0  0
   23.5694   47.2871   -7.2389 H   0  0  0  0  0  0
   25.0321   47.7890   -6.4455 H   0  0  0  0  0  0
   23.8183   48.9869   -6.8545 H   0  0  0  0  0  0
   21.7693   49.1181   -5.2904 H   0  0  0  0  0  0
   21.4176   47.4852   -7.1802 H   0  0  0  0  0  0
   20.0939   48.1462   -6.3121 H   0  0  0  0  0  0
   18.6527   46.2645   -6.5162 H   0  0  0  0  0  0
   18.9565   44.9898   -8.0232 H   0  0  0  0  0  0
   20.1038   46.1758   -8.5717 H   0  0  0  0  0  0
   22.2721   43.7269  -10.5068 H   0  0  0  0  0  0
   22.6123   44.1766   -8.8774 H   0  0  0  0  0  0
   22.1475   45.4161  -10.0298 H   0  0  0  0  0  0
   18.5070   44.4209  -10.2574 H   0  0  0  0  0  0
   19.7609   45.3364  -11.0295 H   0  0  0  0  0  0
   20.7194   43.0583  -11.8484 H   0  0  0  0  0  0
   19.2589   43.6477  -12.5748 H   0  0  0  0  0  0
   19.0959   41.7106  -10.2415 H   0  0  0  0  0  0
   17.8596   42.1617  -11.3603 H   0  0  0  0  0  0
   19.1864   41.0821  -13.2403 H   0  0  0  0  0  0
   18.5512   39.9981  -12.0374 H   0  0  0  0  0  0
   20.7832   39.2776  -12.5906 H   0  0  0  0  0  0
   21.4465   40.8698  -12.3964 H   0  0  0  0  0  0
   21.1757   40.7970   -9.9801 H   0  0  0  0  0  0
   22.0693   39.4082  -10.5173 H   0  0  0  0  0  0
   19.0717   39.3038   -9.8845 H   0  0  0  0  0  0
   20.0687   37.9576  -10.3342 H   0  0  0  0  0  0
   21.3898   38.1939   -8.2725 H   0  0  0  0  0  0
   19.7161   37.9631   -7.9202 H   0  0  0  0  0  0
   23.2616   40.0490   -5.9117 H   0  0  0  0  0  0
   22.9951   39.5909   -7.5664 H   0  0  0  0  0  0
   22.4490   38.5352   -6.2357 H   0  0  0  0  0  0
   21.4413   41.9046   -3.5045 H   0  0  0  0  0  0
   22.8978   41.3773   -4.2986 H   0  0  0  0  0  0
   21.6621   40.1980   -3.8405 H   0  0  0  0  0  0
   19.6829   43.4448   -5.9681 H   0  0  0  0  0  0
  1  2  1  0  0  0
  1 43  1  0  0  0
  1 44  1  0  0  0
  1 45  1  0  0  0
  2  3  1  0  0  0
  2  4  1  0  0  0
  2 46  1  0  0  0
  3 47  1  0  0  0
  3 48  1  0  0  0
  3 49  1  0  0  0
  4  5  1  0  0  0
  4 50  1  0  0  0
  4 51  1  0  0  0
  5 10  1  0  0  0
  5  6  2  0  0  0
  6  7  1  0  0  0
  6 52  1  0  0  0
  7  8  2  0  0  0
  7 11  1  0  0  0
  8  9  1  0  0  0
  8 53  1  0  0  0
  9 10  2  0  0  0
 10 54  1  0  0  0
 11 12  1  0  0  0
 11 13  1  0  0  0
 11 14  1  0  0  0
 12 55  1  0  0  0
 12 56  1  0  0  0
 12 57  1  0  0  0
 13 58  1  0  0  0
 13 59  1  0  0  0
 13 60  1  0  0  0
 14 15  1  0  0  0
 14 61  1  0  0  0
 15 16  1  0  0  0
 15 62  1  0  0  0
 15 63  1  0  0  0
 16 39  1  0  0  0
 16 17  1  0  0  0
 16 18  1  0  0  0
 17 64  1  0  0  0
 18 40  1  0  0  0
 18 38  1  0  0  0
 18 19  1  0  0  0
 19 20  1  0  0  0
 19 65  1  0  0  0
 19 66  1  0  0  0
 20 41  1  0  0  0
 20 21  1  0  0  0
 20 22  1  0  0  0
 21 67  1  0  0  0
 21 68  1  0  0  0
 21 69  1  0  0  0
 22 23  1  0  0  0
 22 70  1  0  0  0
 22 71  1  0  0  0
 23 24  1  0  0  0
 23 72  1  0  0  0
 23 73  1  0  0  0
 24 25  1  0  0  0
 24 74  1  0  0  0
 24 75  1  0  0  0
 25 26  1  0  0  0
 25 76  1  0  0  0
 25 77  1  0  0  0
 26 27  1  0  0  0
 26 78  1  0  0  0
 26 79  1  0  0  0
 27 28  1  0  0  0
 27 80  1  0  0  0
 27 81  1  0  0  0
 28 29  1  0  0  0
 28 82  1  0  0  0
 28 83  1  0  0  0
 29 30  1  0  0  0
 29 84  1  0  0  0
 29 85  1  0  0  0
 30 31  2  0  0  0
 30 32  1  0  0  0
 32 33  1  0  0  0
 32 34  1  0  0  0
 33 86  1  0  0  0
 33 87  1  0  0  0
 33 88  1  0  0  0
 34 42  1  0  0  0
 34 35  1  0  0  0
 34 36  1  0  0  0
 35 89  1  0  0  0
 35 90  1  0  0  0
 35 91  1  0  0  0
 36 37  2  0  0  0
 36 38  1  0  0  0
 38 92  1  0  0  0
M  END
> <s_m_source_file>
BACE_26.smi

> <i_m_source_file_index>
1

> <i_lp_mmshare_version>
42013

> <i_f3d_flags>
0

> <s_epik_input>
W0NIM11bQ0hdKFtDSDNdKVtDSDJdYzFbY0hdYyhbY0hdbltjSF0xKUMoW0NIM10pKFtDSDNdKVtOSF1bQ0gyXVtDQEBIXShbT0hdKVtDQEBIXTJbQ0gyXVtDQEhdKFtDSDNdKVtDSDJdW0NIMl1bQ0gyXVtDSDJdW0NIMl1bQ0gyXVtDSDJdW0NIMl1DKD1PKU4oW0NIM10pW0NAQEhdKFtDSDNdKUMoPU8pW05IXTI=

> <s_epik_cmdline>
J2VwaWtfcHl0aG9uJywgJy1waCcsICc3LjAnLCAnLXRuJywgJzgnLCAnLW1hJywgJzIwMCcsICctaW1hZScsICc8aW5maWxlLm1hZT4nLCAnLW9tYWUnLCAnPG91dGZpbGUubWFlPic=

> <r_epik_Ionization_Penalty>
  1.6485

> <r_epik_Ionization_Penalty_Charging>
  0.0000

> <r_epik_Ionization_Penalty_Neutral>
  1.6485

> <r_epik_State_Penalty>
  1.7165

> <r_epik_Charging_Adjusted_Penalty>
1.71653

> <i_epik_Tot_Q>
0

> <i_epik_Tot_abs_Q>
0

> <s_lp_Force_Field>
OPLS_2005

> <r_lp_Energy>
44.9368

> <b_lp_Chiralities_Consistent>
1

> <s_lp_Variant>
BACE_26.smi:1-2

> <chiral flag>
1

> <version>
0

> <s_i_glide_gridfile>
second_dock_grid_2

> <i_i_glide_lignum>
44

> <i_i_glide_rotatable_bonds>
8

> <r_i_docking_score>
-2.36306

> <r_i_glide_ligand_efficiency>
-0.0621858

> <r_i_glide_ligand_efficiency_sa>
-0.209067

> <r_i_glide_ligand_efficiency_ln>
-0.509545

> <r_glide_XP_GScore>
-4.07956

> <r_i_glide_gscore>
-4.07956

> <r_i_glide_evdw>
-40.3444

> <r_i_glide_ecoul>
-4.16242

> <r_i_glide_energy>
-44.5068

> <r_i_glide_einternal>
6.36266

> <r_i_glide_emodel>
-57.6121

> <r_glide_XP_HBond>
-0.396545

> <i_i_glide_confnum>
1

> <i_i_glide_posenum>
3

> <r_i_glide_eff_state_penalty>
1.7165

> <i_glide_XP_PoseRank>
1

$$$$
BACE_27.smi:1
                    3D
 Structure written by MMmdl.
 93 94  0  0  1  0            999 V2000
   22.1300   43.5045   -8.4431 C   0  0  0  0  0  0
   21.7259   43.1505   -6.9970 C   0  0  2  0  0  0
   22.9489   43.1042   -6.0571 C   0  0  0  0  0  0
   23.6431   44.4544   -5.8011 C   0  0  0  0  0  0
   22.8385   45.3823   -4.8737 C   0  0  0  0  0  0
   23.3590   46.8324   -4.8162 C   0  0  0  0  0  0
   23.3622   47.5906   -6.1631 C   0  0  0  0  0  0
   22.0337   47.5665   -6.9449 C   0  0  0  0  0  0
   20.8959   48.3604   -6.2790 C   0  0  0  0  0  0
   19.5454   48.2224   -7.0125 C   0  0  0  0  0  0
   18.8607   46.8557   -6.7858 C   0  0  0  0  0  0
   18.8601   46.4097   -5.6401 O   0  0  0  0  0  0
   18.2583   46.1950   -7.8089 N   0  0  0  0  0  0
   18.4010   46.6510   -9.2000 C   0  0  0  0  0  0
   17.5076   44.9378   -7.5638 C   0  0  1  0  0  0
   16.0352   45.0928   -7.9933 C   0  0  0  0  0  0
   18.1869   43.7137   -8.1973 C   0  0  0  0  0  0
   18.1360   43.5211   -9.4123 O   0  0  0  0  0  0
   18.8121   42.8810   -7.3470 N   0  0  0  0  0  0
   19.6463   41.7316   -7.7090 C   0  0  1  0  0  0
   20.9742   41.7998   -6.9255 C   0  0  0  0  0  0
   18.9137   40.3797   -7.4853 C   0  0  2  0  0  0
   19.5641   39.3779   -8.2485 O   0  0  0  0  0  0
   17.4512   40.4151   -7.9430 C   0  0  0  0  0  0
   16.8189   39.0768   -7.9292 N   0  3  0  0  0  0
   15.4670   38.9405   -8.5368 C   0  0  0  0  0  0
   15.4293   37.5566   -9.2190 C   0  0  0  0  0  0
   14.4056   38.9867   -7.4264 C   0  0  0  0  0  0
   15.1486   40.0466   -9.5394 C   0  0  0  0  0  0
   14.8561   41.4198   -9.2890 C   0  0  0  0  0  0
   14.7442   41.9687  -10.5331 C   0  0  0  0  0  0
   14.5414   43.3662  -11.0245 C   0  0  0  0  0  0
   13.0872   43.9006  -11.0296 C   0  0  0  0  0  0
   12.1007   42.8646  -11.5965 C   0  0  0  0  0  0
   12.6629   44.2491   -9.5883 C   0  0  0  0  0  0
   13.0372   45.1614  -11.9160 C   0  0  0  0  0  0
   14.8836   41.0073  -11.4794 O   0  0  0  0  0  0
   15.1725   39.8023  -10.8401 N   0  0  0  0  0  0
   21.0584   43.9312   -6.6371 H   0  0  0  0  0  0
   17.4490   44.7107   -6.4987 H   0  0  0  0  0  0
   19.8780   41.8011   -8.7734 H   0  0  0  0  0  0
   18.9508   40.0878   -6.4400 H   0  0  0  0  0  0
   22.6360   44.4676   -8.5021 H   0  0  0  0  0  0
   21.2627   43.5765   -9.0970 H   0  0  0  0  0  0
   22.7986   42.7520   -8.8628 H   0  0  0  0  0  0
   22.6684   42.6752   -5.0930 H   0  0  0  0  0  0
   23.6602   42.4089   -6.4945 H   0  0  0  0  0  0
   23.8658   44.9394   -6.7486 H   0  0  0  0  0  0
   24.6128   44.2691   -5.3367 H   0  0  0  0  0  0
   21.7872   45.3994   -5.1562 H   0  0  0  0  0  0
   22.8594   44.9508   -3.8724 H   0  0  0  0  0  0
   24.3723   46.8289   -4.4131 H   0  0  0  0  0  0
   22.7610   47.3906   -4.0963 H   0  0  0  0  0  0
   23.6580   48.6258   -5.9877 H   0  0  0  0  0  0
   24.1449   47.1771   -6.7993 H   0  0  0  0  0  0
   21.7280   46.5365   -7.1248 H   0  0  0  0  0  0
   22.2104   47.9870   -7.9357 H   0  0  0  0  0  0
   20.7870   48.0521   -5.2403 H   0  0  0  0  0  0
   21.1738   49.4138   -6.2425 H   0  0  0  0  0  0
   19.6997   48.4657   -8.0610 H   0  0  0  0  0  0
   18.8605   48.9790   -6.6289 H   0  0  0  0  0  0
   17.8951   46.0077   -9.9177 H   0  0  0  0  0  0
   19.4517   46.6731   -9.4915 H   0  0  0  0  0  0
   17.9774   47.6474   -9.3256 H   0  0  0  0  0  0
   15.5202   44.1325   -7.9699 H   0  0  0  0  0  0
   15.9260   45.5044   -8.9940 H   0  0  0  0  0  0
   15.4979   45.7506   -7.3126 H   0  0  0  0  0  0
   18.7397   43.0771   -6.3570 H   0  0  0  0  0  0
   20.7597   41.5778   -5.8783 H   0  0  0  0  0  0
   21.6369   41.0041   -7.2682 H   0  0  0  0  0  0
   20.4641   39.3146   -7.9623 H   0  0  0  0  0  0
   16.8658   41.0856   -7.3121 H   0  0  0  0  0  0
   17.4640   40.8174   -8.9559 H   0  0  0  0  0  0
   17.4513   38.4879   -8.4526 H   0  0  0  0  0  0
   15.6763   36.7675   -8.5097 H   0  0  0  0  0  0
   16.1528   37.4803  -10.0337 H   0  0  0  0  0  0
   14.4472   37.3500   -9.6403 H   0  0  0  0  0  0
   14.4725   38.1493   -6.7354 H   0  0  0  0  0  0
   13.4123   38.9500   -7.8707 H   0  0  0  0  0  0
   14.4633   39.9035   -6.8369 H   0  0  0  0  0  0
   14.7812   41.9262   -8.3372 H   0  0  0  0  0  0
   15.1891   44.0349  -10.4642 H   0  0  0  0  0  0
   14.9303   43.4130  -12.0391 H   0  0  0  0  0  0
   12.4062   42.5242  -12.5869 H   0  0  0  0  0  0
   11.0995   43.2831  -11.6891 H   0  0  0  0  0  0
   12.0288   41.9957  -10.9427 H   0  0  0  0  0  0
   13.3563   44.9492   -9.1243 H   0  0  0  0  0  0
   12.6397   43.3580   -8.9585 H   0  0  0  0  0  0
   11.6651   44.6892   -9.5560 H   0  0  0  0  0  0
   13.8086   45.8813  -11.6403 H   0  0  0  0  0  0
   12.0688   45.6586  -11.8588 H   0  0  0  0  0  0
   13.2046   44.9087  -12.9646 H   0  0  0  0  0  0
   16.7797   38.7164   -6.9843 H   0  0  0  0  0  0
  1  2  1  0  0  0
  1 43  1  0  0  0
  1 44  1  0  0  0
  1 45  1  0  0  0
  2 39  1  0  0  0
  2 21  1  0  0  0
  2  3  1  0  0  0
  3  4  1  0  0  0
  3 46  1  0  0  0
  3 47  1  0  0  0
  4  5  1  0  0  0
  4 48  1  0  0  0
  4 49  1  0  0  0
  5  6  1  0  0  0
  5 50  1  0  0  0
  5 51  1  0  0  0
  6  7  1  0  0  0
  6 52  1  0  0  0
  6 53  1  0  0  0
  7  8  1  0  0  0
  7 54  1  0  0  0
  7 55  1  0  0  0
  8  9  1  0  0  0
  8 56  1  0  0  0
  8 57  1  0  0  0
  9 10  1  0  0  0
  9 58  1  0  0  0
  9 59  1  0  0  0
 10 11  1  0  0  0
 10 60  1  0  0  0
 10 61  1  0  0  0
 11 12  2  0  0  0
 11 13  1  0  0  0
 13 14  1  0  0  0
 13 15  1  0  0  0
 14 62  1  0  0  0
 14 63  1  0  0  0
 14 64  1  0  0  0
 15 40  1  0  0  0
 15 16  1  0  0  0
 15 17  1  0  0  0
 16 65  1  0  0  0
 16 66  1  0  0  0
 16 67  1  0  0  0
 17 18  2  0  0  0
 17 19  1  0  0  0
 19 20  1  0  0  0
 19 68  1  0  0  0
 20 41  1  0  0  0
 20 21  1  0  0  0
 20 22  1  0  0  0
 21 69  1  0  0  0
 21 70  1  0  0  0
 22 42  1  0  0  0
 22 23  1  0  0  0
 22 24  1  0  0  0
 23 71  1  0  0  0
 24 25  1  0  0  0
 24 72  1  0  0  0
 24 73  1  0  0  0
 25 26  1  0  0  0
 25 74  1  0  0  0
 25 93  1  0  0  0
 26 27  1  0  0  0
 26 28  1  0  0  0
 26 29  1  0  0  0
 27 75  1  0  0  0
 27 76  1  0  0  0
 27 77  1  0  0  0
 28 78  1  0  0  0
 28 79  1  0  0  0
 28 80  1  0  0  0
 29 38  2  0  0  0
 29 30  1  0  0  0
 30 31  2  0  0  0
 30 81  1  0  0  0
 31 32  1  0  0  0
 31 37  1  0  0  0
 32 33  1  0  0  0
 32 82  1  0  0  0
 32 83  1  0  0  0
 33 34  1  0  0  0
 33 35  1  0  0  0
 33 36  1  0  0  0
 34 84  1  0  0  0
 34 85  1  0  0  0
 34 86  1  0  0  0
 35 87  1  0  0  0
 35 88  1  0  0  0
 35 89  1  0  0  0
 36 90  1  0  0  0
 36 91  1  0  0  0
 36 92  1  0  0  0
 37 38  1  0  0  0
M  CHG  1  25   1
M  END
> <s_m_source_file>
BACE_27.smi

> <i_m_source_file_index>
1

> <i_lp_mmshare_version>
42013

> <i_f3d_flags>
0

> <s_epik_input>
W0NIM11bQ0BASF0xW0NIMl1bQ0gyXVtDSDJdW0NIMl1bQ0gyXVtDSDJdW0NIMl1bQ0gyXUMoPU8pTihbQ0gzXSlbQ0BASF0oW0NIM10pQyg9TylbTkhdW0NAQEhdKFtDSDJdMSlbQ0BIXShbT0hdKVtDSDJdW05IXUMoW0NIM10pKFtDSDNdKWMyW2NIXWMob24yKVtDSDJdQyhbQ0gzXSkoW0NIM10pW0NIM10=

> <s_epik_cmdline>
J2VwaWtfcHl0aG9uJywgJy1waCcsICc3LjAnLCAnLXRuJywgJzgnLCAnLW1hJywgJzIwMCcsICctaW1hZScsICc8aW5maWxlLm1hZT4nLCAnLW9tYWUnLCAnPG91dGZpbGUubWFlPic=

> <r_epik_Ionization_Penalty>
  0.2108

> <r_epik_Ionization_Penalty_Charging>
  0.2108

> <r_epik_Ionization_Penalty_Neutral>
  0.0000

> <r_epik_State_Penalty>
  0.2009

> <r_epik_Charging_Adjusted_Penalty>
0.411732

> <i_epik_Tot_Q>
1

> <i_epik_Tot_abs_Q>
1

> <s_lp_Force_Field>
OPLS_2005

> <r_lp_Energy>
35.4529

> <b_lp_Chiralities_Consistent>
1

> <s_lp_Variant>
BACE_27.smi:1-1

> <chiral flag>
1

> <version>
0

> <s_i_glide_gridfile>
second_dock_grid_2

> <i_i_glide_lignum>
45

> <i_i_glide_rotatable_bonds>
8

> <r_i_docking_score>
-3.29719

> <r_i_glide_ligand_efficiency>
-0.0867681

> <r_i_glide_ligand_efficiency_sa>
-0.291712

> <r_i_glide_ligand_efficiency_ln>
-0.710971

> <r_glide_XP_GScore>
-3.49809

> <r_i_glide_gscore>
-3.49809

> <r_i_glide_evdw>
-36.1992

> <r_i_glide_ecoul>
-12.1406

> <r_i_glide_energy>
-48.3398

> <r_i_glide_einternal>
12.1549

> <r_i_glide_emodel>
-65.8569

> <r_glide_XP_HBond>
-0.905438

> <i_i_glide_confnum>
1

> <i_i_glide_posenum>
4

> <r_i_glide_eff_state_penalty>
0.2009

> <i_glide_XP_PoseRank>
1

$$$$
BACE_27.smi:1
                    3D
 Structure written by MMmdl.
 92 93  0  0  1  0            999 V2000
   20.3649   42.9412   -3.5709 C   0  0  0  0  0  0
   21.1369   42.2412   -4.7031 C   0  0  2  0  0  0
   21.5809   40.8396   -4.2194 C   0  0  0  0  0  0
   22.1367   39.9009   -5.3054 C   0  0  0  0  0  0
   21.1472   39.6280   -6.4482 C   0  0  0  0  0  0
   21.6491   38.5523   -7.4212 C   0  0  0  0  0  0
   20.6533   38.2104   -8.5505 C   0  0  0  0  0  0
   20.3481   39.3787   -9.5048 C   0  0  0  0  0  0
   21.5187   39.7452  -10.4323 C   0  0  0  0  0  0
   21.3064   41.0549  -11.2117 C   0  0  0  0  0  0
   21.5195   42.3113  -10.3471 C   0  0  0  0  0  0
   22.6586   42.5270   -9.9272 O   0  0  0  0  0  0
   20.4953   43.1739  -10.1147 N   0  0  0  0  0  0
   19.0875   42.8110  -10.3262 C   0  0  0  0  0  0
   20.7823   44.5283   -9.5829 C   0  0  1  0  0  0
   19.8984   45.5940  -10.2768 C   0  0  0  0  0  0
   20.6348   44.6063   -8.0497 C   0  0  0  0  0  0
   19.6593   45.1496   -7.5319 O   0  0  0  0  0  0
   21.6708   44.1367   -7.3365 N   0  0  0  0  0  0
   21.9323   44.4077   -5.9161 C   0  0  1  0  0  0
   22.3319   43.0984   -5.1897 C   0  0  0  0  0  0
   23.0094   45.5217   -5.7926 C   0  0  2  0  0  0
   23.2606   45.8479   -4.4377 O   0  0  0  0  0  0
   22.6958   46.8515   -6.5185 C   0  0  0  0  0  0
   21.3141   47.3045   -6.2868 N   0  0  0  0  0  0
   20.9464   48.6857   -6.6373 C   0  0  0  0  0  0
   21.5208   49.0792   -8.0162 C   0  0  0  0  0  0
   19.4086   48.7351   -6.6835 C   0  0  0  0  0  0
   21.4293   49.6378   -5.5583 C   0  0  0  0  0  0
   22.1209   49.3215   -4.3579 C   0  0  0  0  0  0
   22.2552   50.5121   -3.7105 C   0  0  0  0  0  0
   22.8344   50.9037   -2.3851 C   0  0  0  0  0  0
   24.3365   50.5750   -2.1232 C   0  0  0  0  0  0
   24.6505   49.0734   -2.3069 C   0  0  0  0  0  0
   25.2549   51.3901   -3.0535 C   0  0  0  0  0  0
   24.6653   50.9540   -0.6670 C   0  0  0  0  0  0
   21.6600   51.4912   -4.4396 O   0  0  0  0  0  0
   21.1984   50.9422   -5.6401 N   0  0  0  0  0  0
   20.4361   42.1177   -5.5282 H   0  0  0  0  0  0
   21.8094   44.8169   -9.8179 H   0  0  0  0  0  0
   21.0295   44.7933   -5.4457 H   0  0  0  0  0  0
   23.9520   45.1427   -6.1962 H   0  0  0  0  0  0
   19.6539   42.2656   -3.0959 H   0  0  0  0  0  0
   19.7848   43.7813   -3.9452 H   0  0  0  0  0  0
   21.0326   43.3121   -2.7946 H   0  0  0  0  0  0
   22.3217   40.9500   -3.4269 H   0  0  0  0  0  0
   20.7293   40.3386   -3.7585 H   0  0  0  0  0  0
   22.4072   38.9642   -4.8274 H   0  0  0  0  0  0
   23.0634   40.2948   -5.7159 H   0  0  0  0  0  0
   20.1808   39.3291   -6.0413 H   0  0  0  0  0  0
   20.9847   40.5554   -6.9937 H   0  0  0  0  0  0
   21.8404   37.6520   -6.8401 H   0  0  0  0  0  0
   22.6110   38.8513   -7.8394 H   0  0  0  0  0  0
   21.0294   37.3650   -9.1304 H   0  0  0  0  0  0
   19.7189   37.8683   -8.1012 H   0  0  0  0  0  0
   20.0281   40.2443   -8.9283 H   0  0  0  0  0  0
   19.4903   39.1112  -10.1216 H   0  0  0  0  0  0
   22.4514   39.8078   -9.8726 H   0  0  0  0  0  0
   21.6596   38.9398  -11.1492 H   0  0  0  0  0  0
   20.3517   41.0414  -11.7357 H   0  0  0  0  0  0
   22.0581   41.1008  -12.0038 H   0  0  0  0  0  0
   18.4325   43.3193   -9.6160 H   0  0  0  0  0  0
   18.8945   41.7490  -10.1884 H   0  0  0  0  0  0
   18.7702   43.0897  -11.3301 H   0  0  0  0  0  0
   20.2014   46.5981   -9.9799 H   0  0  0  0  0  0
   18.8398   45.5025  -10.0384 H   0  0  0  0  0  0
   20.0027   45.5365  -11.3598 H   0  0  0  0  0  0
   22.4032   43.6642   -7.8523 H   0  0  0  0  0  0
   22.9762   42.5218   -5.8542 H   0  0  0  0  0  0
   22.9543   43.3145   -4.3211 H   0  0  0  0  0  0
   23.8611   45.2038   -4.0746 H   0  0  0  0  0  0
   23.4156   47.6128   -6.2149 H   0  0  0  0  0  0
   22.8490   46.7068   -7.5886 H   0  0  0  0  0  0
   20.6287   46.6306   -6.6266 H   0  0  0  0  0  0
   21.2203   48.3676   -8.7879 H   0  0  0  0  0  0
   22.6103   49.1217   -8.0095 H   0  0  0  0  0  0
   21.1640   50.0620   -8.3251 H   0  0  0  0  0  0
   19.0091   48.0458   -7.4288 H   0  0  0  0  0  0
   19.0481   49.7333   -6.9398 H   0  0  0  0  0  0
   18.9723   48.4685   -5.7196 H   0  0  0  0  0  0
   22.4366   48.3461   -4.0250 H   0  0  0  0  0  0
   22.6628   51.9664   -2.2178 H   0  0  0  0  0  0
   22.2311   50.4023   -1.6348 H   0  0  0  0  0  0
   23.9455   48.4446   -1.7642 H   0  0  0  0  0  0
   25.6495   48.8344   -1.9390 H   0  0  0  0  0  0
   24.6378   48.7771   -3.3546 H   0  0  0  0  0  0
   25.1996   52.4567   -2.8387 H   0  0  0  0  0  0
   25.0017   51.2394   -4.1032 H   0  0  0  0  0  0
   26.2986   51.1001   -2.9279 H   0  0  0  0  0  0
   24.4617   52.0066   -0.4733 H   0  0  0  0  0  0
   25.7162   50.7796   -0.4331 H   0  0  0  0  0  0
   24.0731   50.3673    0.0316 H   0  0  0  0  0  0
  1  2  1  0  0  0
  1 43  1  0  0  0
  1 44  1  0  0  0
  1 45  1  0  0  0
  2 39  1  0  0  0
  2 21  1  0  0  0
  2  3  1  0  0  0
  3  4  1  0  0  0
  3 46  1  0  0  0
  3 47  1  0  0  0
  4  5  1  0  0  0
  4 48  1  0  0  0
  4 49  1  0  0  0
  5  6  1  0  0  0
  5 50  1  0  0  0
  5 51  1  0  0  0
  6  7  1  0  0  0
  6 52  1  0  0  0
  6 53  1  0  0  0
  7  8  1  0  0  0
  7 54  1  0  0  0
  7 55  1  0  0  0
  8  9  1  0  0  0
  8 56  1  0  0  0
  8 57  1  0  0  0
  9 10  1  0  0  0
  9 58  1  0  0  0
  9 59  1  0  0  0
 10 11  1  0  0  0
 10 60  1  0  0  0
 10 61  1  0  0  0
 11 12  2  0  0  0
 11 13  1  0  0  0
 13 14  1  0  0  0
 13 15  1  0  0  0
 14 62  1  0  0  0
 14 63  1  0  0  0
 14 64  1  0  0  0
 15 40  1  0  0  0
 15 16  1  0  0  0
 15 17  1  0  0  0
 16 65  1  0  0  0
 16 66  1  0  0  0
 16 67  1  0  0  0
 17 18  2  0  0  0
 17 19  1  0  0  0
 19 20  1  0  0  0
 19 68  1  0  0  0
 20 41  1  0  0  0
 20 21  1  0  0  0
 20 22  1  0  0  0
 21 69  1  0  0  0
 21 70  1  0  0  0
 22 42  1  0  0  0
 22 23  1  0  0  0
 22 24  1  0  0  0
 23 71  1  0  0  0
 24 25  1  0  0  0
 24 72  1  0  0  0
 24 73  1  0  0  0
 25 26  1  0  0  0
 25 74  1  0  0  0
 26 27  1  0  0  0
 26 28  1  0  0  0
 26 29  1  0  0  0
 27 75  1  0  0  0
 27 76  1  0  0  0
 27 77  1  0  0  0
 28 78  1  0  0  0
 28 79  1  0  0  0
 28 80  1  0  0  0
 29 38  2  0  0  0
 29 30  1  0  0  0
 30 31  2  0  0  0
 30 81  1  0  0  0
 31 32  1  0  0  0
 31 37  1  0  0  0
 32 33  1  0  0  0
 32 82  1  0  0  0
 32 83  1  0  0  0
 33 34  1  0  0  0
 33 35  1  0  0  0
 33 36  1  0  0  0
 34 84  1  0  0  0
 34 85  1  0  0  0
 34 86  1  0  0  0
 35 87  1  0  0  0
 35 88  1  0  0  0
 35 89  1  0  0  0
 36 90  1  0  0  0
 36 91  1  0  0  0
 36 92  1  0  0  0
 37 38  1  0  0  0
M  END
> <s_m_source_file>
BACE_27.smi

> <i_m_source_file_index>
1

> <i_lp_mmshare_version>
42013

> <i_f3d_flags>
0

> <s_epik_input>
W0NIM11bQ0BASF0xW0NIMl1bQ0gyXVtDSDJdW0NIMl1bQ0gyXVtDSDJdW0NIMl1bQ0gyXUMoPU8pTihbQ0gzXSlbQ0BASF0oW0NIM10pQyg9TylbTkhdW0NAQEhdKFtDSDJdMSlbQ0BIXShbT0hdKVtDSDJdW05IXUMoW0NIM10pKFtDSDNdKWMyW2NIXWMob24yKVtDSDJdQyhbQ0gzXSkoW0NIM10pW0NIM10=

> <s_epik_cmdline>
J2VwaWtfcHl0aG9uJywgJy1waCcsICc3LjAnLCAnLXRuJywgJzgnLCAnLW1hJywgJzIwMCcsICctaW1hZScsICc8aW5maWxlLm1hZT4nLCAnLW9tYWUnLCAnPG91dGZpbGUubWFlPic=

> <r_epik_Ionization_Penalty>
  0.7145

> <r_epik_Ionization_Penalty_Charging>
  0.0000

> <r_epik_Ionization_Penalty_Neutral>
  0.7145

> <r_epik_State_Penalty>
  0.7384

> <r_epik_Charging_Adjusted_Penalty>
0.738379

> <i_epik_Tot_Q>
0

> <i_epik_Tot_abs_Q>
0

> <s_lp_Force_Field>
OPLS_2005

> <r_lp_Energy>
38.6357

> <b_lp_Chiralities_Consistent>
1

> <s_lp_Variant>
BACE_27.smi:1-2

> <chiral flag>
1

> <version>
0

> <s_i_glide_gridfile>
second_dock_grid_2

> <i_i_glide_lignum>
46

> <i_i_glide_rotatable_bonds>
8

> <r_i_docking_score>
-3.68062

> <r_i_glide_ligand_efficiency>
-0.0968585

> <r_i_glide_ligand_efficiency_sa>
-0.325636

> <r_i_glide_ligand_efficiency_ln>
-0.79365

> <r_glide_XP_GScore>
-4.41902

> <r_i_glide_gscore>
-4.41902

> <r_i_glide_evdw>
-38.1851

> <r_i_glide_ecoul>
-8.46605

> <r_i_glide_energy>
-46.6511

> <r_i_glide_einternal>
10.7836

> <r_i_glide_emodel>
-57.1188

> <r_glide_XP_HBond>
-1.07018

> <i_i_glide_confnum>
1

> <i_i_glide_posenum>
7

> <r_i_glide_eff_state_penalty>
0.7384

> <i_glide_XP_PoseRank>
1

$$$$
BACE_28.smi:1
                    3D
 Structure written by MMmdl.
 82 83  0  0  1  0            999 V2000
   21.2214   44.6481   -5.2339 C   0  0  0  0  0  0
   22.2679   43.5305   -5.4091 C   0  0  2  0  0  0
   23.2714   43.7654   -6.5654 C   0  0  0  0  0  0
   23.9202   45.1643   -6.5730 C   0  0  0  0  0  0
   23.2053   46.1353   -7.5302 C   0  0  0  0  0  0
   23.3501   47.6166   -7.1411 C   0  0  0  0  0  0
   22.7360   48.5907   -8.1681 C   0  0  0  0  0  0
   21.2515   48.3464   -8.5043 C   0  0  0  0  0  0
   20.2686   48.6543   -7.3602 C   0  0  0  0  0  0
   18.8279   48.1753   -7.6487 C   0  0  0  0  0  0
   18.5652   46.7426   -7.1428 C   0  0  0  0  0  0
   18.4628   46.6055   -5.9211 O   0  0  0  0  0  0
   18.4560   45.6980   -8.0112 N   0  0  0  0  0  0
   18.4815   45.8987   -9.4679 C   0  0  0  0  0  0
   18.2172   44.3155   -7.5226 C   0  0  1  0  0  0
   16.8347   43.8120   -7.9605 C   0  0  0  0  0  0
   19.3574   43.3158   -7.8162 C   0  0  0  0  0  0
   19.9509   43.3034   -8.8916 O   0  0  0  0  0  0
   19.6602   42.4752   -6.8132 N   0  0  0  0  0  0
   20.8512   41.6334   -6.6731 C   0  0  1  0  0  0
   21.6633   42.1019   -5.4243 C   0  0  0  0  0  0
   20.4222   40.1396   -6.5505 C   0  0  2  0  0  0
   21.5315   39.3499   -6.1725 O   0  0  0  0  0  0
   19.9186   39.4921   -7.8552 C   0  0  0  0  0  0
   18.6072   40.0207   -8.2926 N   0  3  0  0  0  0
   17.9899   39.4659   -9.5290 C   0  0  0  0  0  0
   18.9002   38.4625  -10.2954 C   0  0  0  0  0  0
   16.7287   38.6807   -9.1056 C   0  0  0  0  0  0
   17.6662   40.6835  -10.4124 C   0  0  0  0  0  0
   18.7016   41.3143  -11.1460 C   0  0  0  0  0  0
   18.4546   42.4751  -11.9025 C   0  0  0  0  0  0
   17.1694   43.0398  -11.9249 C   0  0  0  0  0  0
   16.1279   42.4290  -11.2030 C   0  0  0  0  0  0
   14.4019   43.2339  -11.1769 Br  0  0  0  0  0  0
   16.3698   41.2561  -10.4612 C   0  0  0  0  0  0
   22.8586   43.5695   -4.4920 H   0  0  0  0  0  0
   18.1515   44.3265   -6.4400 H   0  0  0  0  0  0
   21.4882   41.7275   -7.5524 H   0  0  0  0  0  0
   19.6685   40.0287   -5.7688 H   0  0  0  0  0  0
   21.6808   45.5598   -4.8533 H   0  0  0  0  0  0
   20.4491   44.3605   -4.5196 H   0  0  0  0  0  0
   20.7355   44.9128   -6.1650 H   0  0  0  0  0  0
   24.0644   43.0201   -6.4786 H   0  0  0  0  0  0
   22.8007   43.5779   -7.5326 H   0  0  0  0  0  0
   24.9635   45.0804   -6.8828 H   0  0  0  0  0  0
   23.9516   45.5629   -5.5585 H   0  0  0  0  0  0
   23.5716   45.9747   -8.5454 H   0  0  0  0  0  0
   22.1476   45.8895   -7.5599 H   0  0  0  0  0  0
   24.4086   47.8555   -7.0272 H   0  0  0  0  0  0
   22.9002   47.7774   -6.1605 H   0  0  0  0  0  0
   22.8634   49.6151   -7.8173 H   0  0  0  0  0  0
   23.3112   48.5187   -9.0924 H   0  0  0  0  0  0
   21.1258   47.3236   -8.8472 H   0  0  0  0  0  0
   20.9844   48.9669   -9.3592 H   0  0  0  0  0  0
   20.6260   48.2113   -6.4301 H   0  0  0  0  0  0
   20.2619   49.7313   -7.1874 H   0  0  0  0  0  0
   18.5659   48.3296   -8.6939 H   0  0  0  0  0  0
   18.1417   48.8173   -7.0946 H   0  0  0  0  0  0
   18.3906   44.9673  -10.0234 H   0  0  0  0  0  0
   19.4101   46.3618   -9.7953 H   0  0  0  0  0  0
   17.6475   46.5269   -9.7823 H   0  0  0  0  0  0
   16.6131   42.8328   -7.5359 H   0  0  0  0  0  0
   16.7602   43.7319   -9.0392 H   0  0  0  0  0  0
   16.0478   44.4921   -7.6358 H   0  0  0  0  0  0
   19.0569   42.4982   -5.9980 H   0  0  0  0  0  0
   21.0464   41.9712   -4.5332 H   0  0  0  0  0  0
   22.5119   41.4327   -5.2799 H   0  0  0  0  0  0
   21.7929   39.5930   -5.2966 H   0  0  0  0  0  0
   20.6683   39.6433   -8.6345 H   0  0  0  0  0  0
   19.8132   38.4154   -7.7001 H   0  0  0  0  0  0
   17.9457   39.9264   -7.5309 H   0  0  0  0  0  0
   19.0755   37.5498   -9.7251 H   0  0  0  0  0  0
   19.8752   38.8641  -10.5621 H   0  0  0  0  0  0
   18.4346   38.1588  -11.2306 H   0  0  0  0  0  0
   16.9915   37.7959   -8.5249 H   0  0  0  0  0  0
   16.1623   38.3378   -9.9725 H   0  0  0  0  0  0
   16.0595   39.2671   -8.4761 H   0  0  0  0  0  0
   19.7130   40.9383  -11.1172 H   0  0  0  0  0  0
   19.2620   42.9483  -12.4394 H   0  0  0  0  0  0
   16.9889   43.9497  -12.4776 H   0  0  0  0  0  0
   15.5434   40.8357   -9.9091 H   0  0  0  0  0  0
   18.7415   41.0107   -8.4572 H   0  0  0  0  0  0
  1  2  1  0  0  0
  1 40  1  0  0  0
  1 41  1  0  0  0
  1 42  1  0  0  0
  2 36  1  0  0  0
  2 21  1  0  0  0
  2  3  1  0  0  0
  3  4  1  0  0  0
  3 43  1  0  0  0
  3 44  1  0  0  0
  4  5  1  0  0  0
  4 45  1  0  0  0
  4 46  1  0  0  0
  5  6  1  0  0  0
  5 47  1  0  0  0
  5 48  1  0  0  0
  6  7  1  0  0  0
  6 49  1  0  0  0
  6 50  1  0  0  0
  7  8  1  0  0  0
  7 51  1  0  0  0
  7 52  1  0  0  0
  8  9  1  0  0  0
  8 53  1  0  0  0
  8 54  1  0  0  0
  9 10  1  0  0  0
  9 55  1  0  0  0
  9 56  1  0  0  0
 10 11  1  0  0  0
 10 57  1  0  0  0
 10 58  1  0  0  0
 11 12  2  0  0  0
 11 13  1  0  0  0
 13 14  1  0  0  0
 13 15  1  0  0  0
 14 59  1  0  0  0
 14 60  1  0  0  0
 14 61  1  0  0  0
 15 37  1  0  0  0
 15 16  1  0  0  0
 15 17  1  0  0  0
 16 62  1  0  0  0
 16 63  1  0  0  0
 16 64  1  0  0  0
 17 18  2  0  0  0
 17 19  1  0  0  0
 19 20  1  0  0  0
 19 65  1  0  0  0
 20 38  1  0  0  0
 20 21  1  0  0  0
 20 22  1  0  0  0
 21 66  1  0  0  0
 21 67  1  0  0  0
 22 39  1  0  0  0
 22 23  1  0  0  0
 22 24  1  0  0  0
 23 68  1  0  0  0
 24 25  1  0  0  0
 24 69  1  0  0  0
 24 70  1  0  0  0
 25 26  1  0  0  0
 25 71  1  0  0  0
 25 82  1  0  0  0
 26 27  1  0  0  0
 26 28  1  0  0  0
 26 29  1  0  0  0
 27 72  1  0  0  0
 27 73  1  0  0  0
 27 74  1  0  0  0
 28 75  1  0  0  0
 28 76  1  0  0  0
 28 77  1  0  0  0
 29 35  1  0  0  0
 29 30  2  0  0  0
 30 31  1  0  0  0
 30 78  1  0  0  0
 31 32  2  0  0  0
 31 79  1  0  0  0
 32 33  1  0  0  0
 32 80  1  0  0  0
 33 34  1  0  0  0
 33 35  2  0  0  0
 35 81  1  0  0  0
M  CHG  1  25   1
M  END
> <s_m_source_file>
BACE_28.smi

> <i_m_source_file_index>
1

> <i_lp_mmshare_version>
42013

> <i_f3d_flags>
0

> <s_epik_input>
W0NIM11bQ0BASF0xW0NIMl1bQ0gyXVtDSDJdW0NIMl1bQ0gyXVtDSDJdW0NIMl1bQ0gyXUMoPU8pTihbQ0gzXSlbQ0BASF0oW0NIM10pQyg9TylbTkhdW0NAQEhdKFtDSDJdMSlbQ0BIXShbT0hdKVtDSDJdW05IXUMoW0NIM10pKFtDSDNdKWMyW2NIXVtjSF1bY0hdYyhCcilbY0hdMg==

> <s_epik_cmdline>
J2VwaWtfcHl0aG9uJywgJy1waCcsICc3LjAnLCAnLXRuJywgJzgnLCAnLW1hJywgJzIwMCcsICctaW1hZScsICc8aW5maWxlLm1hZT4nLCAnLW9tYWUnLCAnPG91dGZpbGUubWFlPic=

> <r_epik_Ionization_Penalty>
  0.0224

> <r_epik_Ionization_Penalty_Charging>
  0.0224

> <r_epik_Ionization_Penalty_Neutral>
  0.0000

> <r_epik_State_Penalty>
  0.0180

> <r_epik_Charging_Adjusted_Penalty>
0.0404039

> <i_epik_Tot_Q>
1

> <i_epik_Tot_abs_Q>
1

> <s_lp_Force_Field>
OPLS_2005

> <r_lp_Energy>
39.3945

> <b_lp_Chiralities_Consistent>
1

> <s_lp_Variant>
BACE_28.smi:1-1

> <chiral flag>
1

> <version>
0

> <s_i_glide_gridfile>
second_dock_grid_2

> <i_i_glide_lignum>
47

> <i_i_glide_rotatable_bonds>
6

> <r_i_docking_score>
-4.22273

> <r_i_glide_ligand_efficiency>
-0.120649

> <r_i_glide_ligand_efficiency_sa>
-0.394652

> <r_i_glide_ligand_efficiency_ln>
-0.926983

> <r_glide_XP_GScore>
-4.24073

> <r_i_glide_gscore>
-4.24073

> <r_i_glide_evdw>
-30.5907

> <r_i_glide_ecoul>
-10.3845

> <r_i_glide_energy>
-40.9751

> <r_i_glide_einternal>
0

> <r_i_glide_emodel>
-59.5638

> <r_glide_XP_HBond>
-0.978285

> <i_i_glide_confnum>
1

> <i_i_glide_posenum>
10

> <r_i_glide_eff_state_penalty>
0.018

> <i_glide_XP_PoseRank>
1

$$$$
BACE_28.smi:1
                    3D
 Structure written by MMmdl.
 81 82  0  0  1  0            999 V2000
   23.4008   42.7707   -4.4334 C   0  0  0  0  0  0
   22.7804   42.6279   -5.8310 C   0  0  2  0  0  0
   23.6011   43.3589   -6.9219 C   0  0  0  0  0  0
   23.7361   44.8944   -6.7910 C   0  0  0  0  0  0
   22.8493   45.6901   -7.7645 C   0  0  0  0  0  0
   23.1036   47.2071   -7.6651 C   0  0  0  0  0  0
   22.3318   48.0493   -8.7008 C   0  0  0  0  0  0
   20.7970   47.9941   -8.5796 C   0  0  0  0  0  0
   20.2402   48.6513   -7.3009 C   0  0  0  0  0  0
   18.7156   48.4857   -7.1420 C   0  0  0  0  0  0
   18.3319   47.0269   -6.8396 C   0  0  0  0  0  0
   18.6747   46.5831   -5.7409 O   0  0  0  0  0  0
   17.6609   46.2717   -7.7553 N   0  0  0  0  0  0
   17.1977   46.8492   -9.0295 C   0  0  0  0  0  0
   17.4959   44.8140   -7.4957 C   0  0  1  0  0  0
   16.3732   44.1330   -8.3070 C   0  0  0  0  0  0
   18.8110   44.0774   -7.7984 C   0  0  0  0  0  0
   19.4876   44.3733   -8.7861 O   0  0  0  0  0  0
   19.1558   43.1233   -6.9238 N   0  0  0  0  0  0
   20.4156   42.3867   -6.8969 C   0  0  1  0  0  0
   21.2905   43.0263   -5.7928 C   0  0  0  0  0  0
   20.0769   40.8719   -6.7382 C   0  0  2  0  0  0
   20.4603   40.3643   -5.4735 O   0  0  0  0  0  0
   20.7143   39.9603   -7.7954 C   0  0  0  0  0  0
   19.8987   38.7685   -8.1071 N   0  0  0  0  0  0
   18.7624   38.8854   -9.0554 C   0  0  0  0  0  0
   18.3982   37.4475   -9.4651 C   0  0  0  0  0  0
   17.4908   39.4551   -8.3744 C   0  0  0  0  0  0
   19.1838   39.6624  -10.3125 C   0  0  0  0  0  0
   20.3741   39.2875  -10.9791 C   0  0  0  0  0  0
   20.8641   40.0315  -12.0629 C   0  0  0  0  0  0
   20.1643   41.1684  -12.4940 C   0  0  0  0  0  0
   18.9672   41.5472  -11.8624 C   0  0  0  0  0  0
   18.0273   43.0992  -12.4405 Br  0  0  0  0  0  0
   18.4720   40.7913  -10.7852 C   0  0  0  0  0  0
   22.8402   41.5631   -6.0629 H   0  0  0  0  0  0
   17.2557   44.6635   -6.4442 H   0  0  0  0  0  0
   20.9212   42.5386   -7.8511 H   0  0  0  0  0  0
   19.0060   40.7550   -6.8195 H   0  0  0  0  0  0
   24.4622   42.5514   -4.4399 H   0  0  0  0  0  0
   22.9354   42.0808   -3.7276 H   0  0  0  0  0  0
   23.2619   43.7781   -4.0425 H   0  0  0  0  0  0
   24.6129   42.9499   -6.9047 H   0  0  0  0  0  0
   23.2146   43.1047   -7.9072 H   0  0  0  0  0  0
   24.7758   45.1512   -7.0009 H   0  0  0  0  0  0
   23.5568   45.2189   -5.7658 H   0  0  0  0  0  0
   23.0403   45.3619   -8.7849 H   0  0  0  0  0  0
   21.8005   45.4749   -7.5610 H   0  0  0  0  0  0
   24.1669   47.3916   -7.8048 H   0  0  0  0  0  0
   22.8771   47.5509   -6.6544 H   0  0  0  0  0  0
   22.6576   49.0889   -8.6298 H   0  0  0  0  0  0
   22.6182   47.7200   -9.7000 H   0  0  0  0  0  0
   20.4697   46.9587   -8.6577 H   0  0  0  0  0  0
   20.3615   48.4990   -9.4423 H   0  0  0  0  0  0
   20.7353   48.2350   -6.4219 H   0  0  0  0  0  0
   20.4922   49.7113   -7.3040 H   0  0  0  0  0  0
   18.2005   48.9114   -8.0021 H   0  0  0  0  0  0
   18.3934   49.0829   -6.2883 H   0  0  0  0  0  0
   16.6683   46.1615   -9.6867 H   0  0  0  0  0  0
   18.0458   47.2226   -9.6086 H   0  0  0  0  0  0
   16.5167   47.6828   -8.8458 H   0  0  0  0  0  0
   16.1910   43.1268   -7.9262 H   0  0  0  0  0  0
   16.6150   44.0294   -9.3648 H   0  0  0  0  0  0
   15.4309   44.6732   -8.2155 H   0  0  0  0  0  0
   18.5000   42.8979   -6.1874 H   0  0  0  0  0  0
   21.2215   44.1118   -5.8425 H   0  0  0  0  0  0
   20.8606   42.7834   -4.8197 H   0  0  0  0  0  0
   19.8255   40.6883   -4.8456 H   0  0  0  0  0  0
   20.9218   40.5270   -8.7009 H   0  0  0  0  0  0
   21.6914   39.6382   -7.4374 H   0  0  0  0  0  0
   19.5420   38.4103   -7.2270 H   0  0  0  0  0  0
   18.0936   36.8513   -8.6045 H   0  0  0  0  0  0
   19.2447   36.9501   -9.9302 H   0  0  0  0  0  0
   17.5762   37.4335  -10.1804 H   0  0  0  0  0  0
   17.2939   38.9677   -7.4176 H   0  0  0  0  0  0
   16.6104   39.2913   -8.9983 H   0  0  0  0  0  0
   17.5241   40.5271   -8.1996 H   0  0  0  0  0  0
   20.9427   38.4428  -10.6186 H   0  0  0  0  0  0
   21.7931   39.7499  -12.5395 H   0  0  0  0  0  0
   20.5642   41.7487  -13.3056 H   0  0  0  0  0  0
   17.5599   41.1231  -10.3161 H   0  0  0  0  0  0
  1  2  1  0  0  0
  1 40  1  0  0  0
  1 41  1  0  0  0
  1 42  1  0  0  0
  2 36  1  0  0  0
  2 21  1  0  0  0
  2  3  1  0  0  0
  3  4  1  0  0  0
  3 43  1  0  0  0
  3 44  1  0  0  0
  4  5  1  0  0  0
  4 45  1  0  0  0
  4 46  1  0  0  0
  5  6  1  0  0  0
  5 47  1  0  0  0
  5 48  1  0  0  0
  6  7  1  0  0  0
  6 49  1  0  0  0
  6 50  1  0  0  0
  7  8  1  0  0  0
  7 51  1  0  0  0
  7 52  1  0  0  0
  8  9  1  0  0  0
  8 53  1  0  0  0
  8 54  1  0  0  0
  9 10  1  0  0  0
  9 55  1  0  0  0
  9 56  1  0  0  0
 10 11  1  0  0  0
 10 57  1  0  0  0
 10 58  1  0  0  0
 11 12  2  0  0  0
 11 13  1  0  0  0
 13 14  1  0  0  0
 13 15  1  0  0  0
 14 59  1  0  0  0
 14 60  1  0  0  0
 14 61  1  0  0  0
 15 37  1  0  0  0
 15 16  1  0  0  0
 15 17  1  0  0  0
 16 62  1  0  0  0
 16 63  1  0  0  0
 16 64  1  0  0  0
 17 18  2  0  0  0
 17 19  1  0  0  0
 19 20  1  0  0  0
 19 65  1  0  0  0
 20 38  1  0  0  0
 20 21  1  0  0  0
 20 22  1  0  0  0
 21 66  1  0  0  0
 21 67  1  0  0  0
 22 39  1  0  0  0
 22 23  1  0  0  0
 22 24  1  0  0  0
 23 68  1  0  0  0
 24 25  1  0  0  0
 24 69  1  0  0  0
 24 70  1  0  0  0
 25 26  1  0  0  0
 25 71  1  0  0  0
 26 27  1  0  0  0
 26 28  1  0  0  0
 26 29  1  0  0  0
 27 72  1  0  0  0
 27 73  1  0  0  0
 27 74  1  0  0  0
 28 75  1  0  0  0
 28 76  1  0  0  0
 28 77  1  0  0  0
 29 35  1  0  0  0
 29 30  2  0  0  0
 30 31  1  0  0  0
 30 78  1  0  0  0
 31 32  2  0  0  0
 31 79  1  0  0  0
 32 33  1  0  0  0
 32 80  1  0  0  0
 33 34  1  0  0  0
 33 35  2  0  0  0
 35 81  1  0  0  0
M  END
> <s_m_source_file>
BACE_28.smi

> <i_m_source_file_index>
1

> <i_lp_mmshare_version>
42013

> <i_f3d_flags>
0

> <s_epik_input>
W0NIM11bQ0BASF0xW0NIMl1bQ0gyXVtDSDJdW0NIMl1bQ0gyXVtDSDJdW0NIMl1bQ0gyXUMoPU8pTihbQ0gzXSlbQ0BASF0oW0NIM10pQyg9TylbTkhdW0NAQEhdKFtDSDJdMSlbQ0BIXShbT0hdKVtDSDJdW05IXUMoW0NIM10pKFtDSDNdKWMyW2NIXVtjSF1bY0hdYyhCcilbY0hdMg==

> <s_epik_cmdline>
J2VwaWtfcHl0aG9uJywgJy1waCcsICc3LjAnLCAnLXRuJywgJzgnLCAnLW1hJywgJzIwMCcsICctaW1hZScsICc8aW5maWxlLm1hZT4nLCAnLW9tYWUnLCAnPG91dGZpbGUubWFlPic=

> <r_epik_Ionization_Penalty>
  1.9526

> <r_epik_Ionization_Penalty_Charging>
  0.0000

> <r_epik_Ionization_Penalty_Neutral>
  1.9526

> <r_epik_State_Penalty>
  2.0778

> <r_epik_Charging_Adjusted_Penalty>
2.07781

> <i_epik_Tot_Q>
0

> <i_epik_Tot_abs_Q>
0

> <s_lp_Force_Field>
OPLS_2005

> <r_lp_Energy>
47.2978

> <b_lp_Chiralities_Consistent>
1

> <s_lp_Variant>
BACE_28.smi:1-2

> <chiral flag>
1

> <version>
0

> <s_i_glide_gridfile>
second_dock_grid_2

> <i_i_glide_lignum>
48

> <i_i_glide_rotatable_bonds>
6

> <r_i_docking_score>
-2.42054

> <r_i_glide_ligand_efficiency>
-0.0691584

> <r_i_glide_ligand_efficiency_sa>
-0.226222

> <r_i_glide_ligand_efficiency_ln>
-0.531363

> <r_glide_XP_GScore>
-4.49834

> <r_i_glide_gscore>
-4.49834

> <r_i_glide_evdw>
-37.101

> <r_i_glide_ecoul>
-9.10127

> <r_i_glide_energy>
-46.2023

> <r_i_glide_einternal>
6.23754

> <r_i_glide_emodel>
-58.7781

> <r_glide_XP_HBond>
-1.1278

> <i_i_glide_confnum>
1

> <i_i_glide_posenum>
3

> <r_i_glide_eff_state_penalty>
2.0778

> <i_glide_XP_PoseRank>
1

$$$$
BACE_29.smi:1
                    3D
 Structure written by MMmdl.
 86 87  0  0  1  0            999 V2000
   24.8223   45.0806   -8.3403 C   0  0  0  0  0  0
   23.8835   44.0759   -7.6524 C   0  0  2  0  0  0
   24.1920   44.0583   -6.1358 C   0  0  0  0  0  0
   23.2376   43.2344   -5.2515 C   0  0  0  0  0  0
   21.7859   43.7374   -5.2576 C   0  0  0  0  0  0
   20.8704   42.9749   -4.2844 C   0  0  0  0  0  0
   20.8112   41.4508   -4.4988 C   0  0  0  0  0  0
   20.4621   41.0377   -5.9403 C   0  0  0  0  0  0
   20.0619   39.5570   -6.0410 C   0  0  0  0  0  0
   19.5494   39.1257   -7.4302 C   0  0  0  0  0  0
   20.6184   39.1636   -8.5386 C   0  0  0  0  0  0
   21.7995   39.0174   -8.2125 O   0  0  0  0  0  0
   20.2478   39.3894   -9.8306 N   0  0  0  0  0  0
   18.8267   39.4041  -10.2242 C   0  0  0  0  0  0
   21.3027   39.6959  -10.8352 C   0  0  1  0  0  0
   20.8461   39.5493  -12.3044 C   0  0  0  0  0  0
   21.7966   41.1402  -10.6392 C   0  0  0  0  0  0
   21.0970   42.0914  -10.9883 O   0  0  0  0  0  0
   23.0058   41.2782  -10.0773 N   0  0  0  0  0  0
   23.6770   42.5479   -9.8008 C   0  0  1  0  0  0
   23.9248   42.6548   -8.2738 C   0  0  0  0  0  0
   24.9811   42.6333  -10.6395 C   0  0  2  0  0  0
   24.6369   42.9501  -11.9731 O   0  0  0  0  0  0
   25.8367   41.3407  -10.6402 C   0  0  0  0  0  0
   27.1721   41.5178  -11.2155 N   0  0  0  0  0  0
   28.0417   42.4612  -10.5131 C   0  0  0  0  0  0
   29.4060   42.4916  -11.1296 C   0  0  0  0  0  0
   29.7393   42.4988  -12.5095 C   0  0  0  0  0  0
   31.1084   42.5325  -12.5276 C   0  0  0  0  0  0
   32.2060   42.5631  -13.5610 C   0  0  0  0  0  0
   31.9152   42.4657  -15.1006 C   0  0  0  0  0  0
   32.3805   43.7676  -15.7836 C   0  0  0  0  0  0
   32.7441   41.3027  -15.6858 C   0  0  0  0  0  0
   30.4437   42.2342  -15.4970 C   0  0  0  0  0  0
   31.5610   42.5517  -11.2426 O   0  0  0  0  0  0
   30.4763   42.5292  -10.3610 N   0  0  0  0  0  0
   22.8727   44.4596   -7.7877 H   0  0  0  0  0  0
   22.1328   39.0023  -10.6942 H   0  0  0  0  0  0
   23.0262   43.3802  -10.0788 H   0  0  0  0  0  0
   25.5622   43.4687  -10.2672 H   0  0  0  0  0  0
   24.7749   46.0546   -7.8547 H   0  0  0  0  0  0
   24.5426   45.2445   -9.3800 H   0  0  0  0  0  0
   25.8594   44.7510   -8.3079 H   0  0  0  0  0  0
   25.2068   43.6883   -5.9848 H   0  0  0  0  0  0
   24.1995   45.0806   -5.7574 H   0  0  0  0  0  0
   23.6114   43.2577   -4.2269 H   0  0  0  0  0  0
   23.2617   42.1880   -5.5471 H   0  0  0  0  0  0
   21.7684   44.7966   -4.9989 H   0  0  0  0  0  0
   21.3710   43.6689   -6.2642 H   0  0  0  0  0  0
   19.8597   43.3783   -4.3670 H   0  0  0  0  0  0
   21.1860   43.1748   -3.2602 H   0  0  0  0  0  0
   21.7535   40.9875   -4.2036 H   0  0  0  0  0  0
   20.0602   41.0495   -3.8169 H   0  0  0  0  0  0
   21.3142   41.2253   -6.5909 H   0  0  0  0  0  0
   19.6602   41.6668   -6.3201 H   0  0  0  0  0  0
   20.9143   38.9496   -5.7400 H   0  0  0  0  0  0
   19.2725   39.3502   -5.3174 H   0  0  0  0  0  0
   18.7059   39.7695   -7.6797 H   0  0  0  0  0  0
   19.1608   38.1084   -7.3731 H   0  0  0  0  0  0
   18.6338   39.1512  -11.2655 H   0  0  0  0  0  0
   18.4031   40.3923  -10.0407 H   0  0  0  0  0  0
   18.2418   38.6763   -9.6595 H   0  0  0  0  0  0
   21.6804   39.7003  -12.9907 H   0  0  0  0  0  0
   20.0713   40.2655  -12.5831 H   0  0  0  0  0  0
   20.4598   38.5499  -12.4849 H   0  0  0  0  0  0
   23.4836   40.4320   -9.7975 H   0  0  0  0  0  0
   23.1544   42.0679   -7.7742 H   0  0  0  0  0  0
   24.8593   42.1647   -8.0147 H   0  0  0  0  0  0
   24.3808   42.1336  -12.3970 H   0  0  0  0  0  0
   25.9433   40.9680   -9.6238 H   0  0  0  0  0  0
   25.3159   40.5518  -11.1808 H   0  0  0  0  0  0
   27.6428   40.6128  -11.2398 H   0  0  0  0  0  0
   27.6328   43.4692  -10.5508 H   0  0  0  0  0  0
   28.1082   42.1959   -9.4579 H   0  0  0  0  0  0
   29.0419   42.4767  -13.3314 H   0  0  0  0  0  0
   32.7974   43.4596  -13.3679 H   0  0  0  0  0  0
   32.8880   41.7589  -13.2903 H   0  0  0  0  0  0
   31.8293   44.6316  -15.4088 H   0  0  0  0  0  0
   32.2299   43.7282  -16.8637 H   0  0  0  0  0  0
   33.4409   43.9549  -15.6135 H   0  0  0  0  0  0
   32.4525   40.3487  -15.2429 H   0  0  0  0  0  0
   33.8111   41.4396  -15.5068 H   0  0  0  0  0  0
   32.6052   41.2119  -16.7647 H   0  0  0  0  0  0
   30.0335   41.3501  -15.0116 H   0  0  0  0  0  0
   30.3443   42.0693  -16.5707 H   0  0  0  0  0  0
   29.8184   43.0933  -15.2562 H   0  0  0  0  0  0
  1  2  1  0  0  0
  1 41  1  0  0  0
  1 42  1  0  0  0
  1 43  1  0  0  0
  2 37  1  0  0  0
  2 21  1  0  0  0
  2  3  1  0  0  0
  3  4  1  0  0  0
  3 44  1  0  0  0
  3 45  1  0  0  0
  4  5  1  0  0  0
  4 46  1  0  0  0
  4 47  1  0  0  0
  5  6  1  0  0  0
  5 48  1  0  0  0
  5 49  1  0  0  0
  6  7  1  0  0  0
  6 50  1  0  0  0
  6 51  1  0  0  0
  7  8  1  0  0  0
  7 52  1  0  0  0
  7 53  1  0  0  0
  8  9  1  0  0  0
  8 54  1  0  0  0
  8 55  1  0  0  0
  9 10  1  0  0  0
  9 56  1  0  0  0
  9 57  1  0  0  0
 10 11  1  0  0  0
 10 58  1  0  0  0
 10 59  1  0  0  0
 11 12  2  0  0  0
 11 13  1  0  0  0
 13 14  1  0  0  0
 13 15  1  0  0  0
 14 60  1  0  0  0
 14 61  1  0  0  0
 14 62  1  0  0  0
 15 38  1  0  0  0
 15 16  1  0  0  0
 15 17  1  0  0  0
 16 63  1  0  0  0
 16 64  1  0  0  0
 16 65  1  0  0  0
 17 18  2  0  0  0
 17 19  1  0  0  0
 19 20  1  0  0  0
 19 66  1  0  0  0
 20 39  1  0  0  0
 20 21  1  0  0  0
 20 22  1  0  0  0
 21 67  1  0  0  0
 21 68  1  0  0  0
 22 40  1  0  0  0
 22 23  1  0  0  0
 22 24  1  0  0  0
 23 69  1  0  0  0
 24 25  1  0  0  0
 24 70  1  0  0  0
 24 71  1  0  0  0
 25 26  1  0  0  0
 25 72  1  0  0  0
 26 27  1  0  0  0
 26 73  1  0  0  0
 26 74  1  0  0  0
 27 36  2  0  0  0
 27 28  1  0  0  0
 28 29  2  0  0  0
 28 75  1  0  0  0
 29 30  1  0  0  0
 29 35  1  0  0  0
 30 31  1  0  0  0
 30 76  1  0  0  0
 30 77  1  0  0  0
 31 32  1  0  0  0
 31 33  1  0  0  0
 31 34  1  0  0  0
 32 78  1  0  0  0
 32 79  1  0  0  0
 32 80  1  0  0  0
 33 81  1  0  0  0
 33 82  1  0  0  0
 33 83  1  0  0  0
 34 84  1  0  0  0
 34 85  1  0  0  0
 34 86  1  0  0  0
 35 36  1  0  0  0
M  END
> <s_m_source_file>
BACE_29.smi

> <i_m_source_file_index>
1

> <i_lp_mmshare_version>
42013

> <i_f3d_flags>
0

> <s_epik_input>
W0NIM11bQ0BASF0xW0NIMl1bQ0gyXVtDSDJdW0NIMl1bQ0gyXVtDSDJdW0NIMl1bQ0gyXUMoPU8pTihbQ0gzXSlbQ0BASF0oW0NIM10pQyg9TylbTkhdW0NAQEhdKFtDSDJdMSlbQ0BIXShbT0hdKVtDSDJdW05IXVtDSDJdYzJbY0hdYyhvbjIpW0NIMl1DKFtDSDNdKShbQ0gzXSlbQ0gzXQ==

> <s_epik_cmdline>
J2VwaWtfcHl0aG9uJywgJy1waCcsICc3LjAnLCAnLXRuJywgJzgnLCAnLW1hJywgJzIwMCcsICctaW1hZScsICc8aW5maWxlLm1hZT4nLCAnLW9tYWUnLCAnPG91dGZpbGUubWFlPic=

> <r_epik_Ionization_Penalty>
  0.2749

> <r_epik_Ionization_Penalty_Charging>
  0.0000

> <r_epik_Ionization_Penalty_Neutral>
  0.2749

> <r_epik_State_Penalty>
  0.2672

> <r_epik_Charging_Adjusted_Penalty>
0.267245

> <i_epik_Tot_Q>
0

> <i_epik_Tot_abs_Q>
0

> <s_lp_Force_Field>
OPLS_2005

> <r_lp_Energy>
37.6077

> <b_lp_Chiralities_Consistent>
1

> <s_lp_Variant>
BACE_29.smi:1-1

> <chiral flag>
1

> <version>
0

> <s_i_glide_gridfile>
second_dock_grid_2

> <i_i_glide_lignum>
49

> <i_i_glide_rotatable_bonds>
8

> <r_i_docking_score>
-4.93915

> <r_i_glide_ligand_efficiency>
-0.137199

> <r_i_glide_ligand_efficiency_sa>
-0.45302

> <r_i_glide_ligand_efficiency_ln>
-1.07759

> <r_glide_XP_GScore>
-5.20635

> <r_i_glide_gscore>
-5.20635

> <r_i_glide_evdw>
-40.3626

> <r_i_glide_ecoul>
-9.53147

> <r_i_glide_energy>
-49.8941

> <r_i_glide_einternal>
9.93347

> <r_i_glide_emodel>
-63.2596

> <r_glide_XP_HBond>
-1.33

> <i_i_glide_confnum>
1

> <i_i_glide_posenum>
41

> <r_i_glide_eff_state_penalty>
0.2672

> <i_glide_XP_PoseRank>
1

$$$$
BACE_29.smi:1
                    3D
 Structure written by MMmdl.
 87 88  0  0  1  0            999 V2000
   16.3987   46.6013   -9.0866 C   0  0  0  0  0  0
   17.1175   45.6406  -10.0560 C   0  0  2  0  0  0
   17.0506   46.1604  -11.5105 C   0  0  0  0  0  0
   17.9831   47.3496  -11.8105 C   0  0  0  0  0  0
   19.4581   46.9353  -11.9576 C   0  0  0  0  0  0
   20.4433   48.1115  -12.0787 C   0  0  0  0  0  0
   20.5311   49.0334  -10.8442 C   0  0  0  0  0  0
   20.7741   48.3227   -9.5000 C   0  0  0  0  0  0
   22.1512   47.6432   -9.3882 C   0  0  0  0  0  0
   22.2935   46.7564   -8.1326 C   0  0  0  0  0  0
   21.4785   45.4468   -8.2016 C   0  0  0  0  0  0
   21.1905   44.9964   -9.3132 O   0  0  0  0  0  0
   21.0983   44.8192   -7.0557 N   0  0  0  0  0  0
   21.4209   45.3874   -5.7346 C   0  0  0  0  0  0
   20.2437   43.6053   -7.1584 C   0  0  1  0  0  0
   20.3280   42.6727   -5.9307 C   0  0  0  0  0  0
   18.7720   44.0142   -7.3529 C   0  0  0  0  0  0
   18.3049   44.9587   -6.7132 O   0  0  0  0  0  0
   18.0614   43.3042   -8.2466 N   0  0  0  0  0  0
   16.6502   43.5150   -8.5901 C   0  0  1  0  0  0
   16.5312   44.2105   -9.9686 C   0  0  0  0  0  0
   15.8336   42.1924   -8.5305 C   0  0  2  0  0  0
   14.4596   42.5525   -8.5642 O   0  0  0  0  0  0
   16.1216   41.3992   -7.2397 C   0  0  0  0  0  0
   15.1897   40.2663   -7.0197 N   0  3  0  0  0  0
   15.8110   38.9370   -6.8614 C   0  0  0  0  0  0
   16.7255   38.6143   -8.0086 C   0  0  0  0  0  0
   18.1437   38.7251   -8.0629 C   0  0  0  0  0  0
   18.4346   38.4652   -9.3714 C   0  0  0  0  0  0
   19.6914   38.5476  -10.1801 C   0  0  0  0  0  0
   19.9720   39.9439  -10.8112 C   0  0  0  0  0  0
   18.6881   40.6454  -11.3098 C   0  0  0  0  0  0
   20.6481   40.8406   -9.7582 C   0  0  0  0  0  0
   20.9212   39.7901  -12.0108 C   0  0  0  0  0  0
   17.2961   38.1569  -10.0398 O   0  0  0  0  0  0
   16.2079   38.2620   -9.1711 N   0  0  0  0  0  0
   18.1649   45.5899   -9.7643 H   0  0  0  0  0  0
   20.5706   43.0148   -8.0128 H   0  0  0  0  0  0
   16.2061   44.1607   -7.8317 H   0  0  0  0  0  0
   16.0514   41.5717   -9.4002 H   0  0  0  0  0  0
   16.7104   47.6371   -9.2184 H   0  0  0  0  0  0
   16.6015   46.3533   -8.0453 H   0  0  0  0  0  0
   15.3198   46.5554   -9.2248 H   0  0  0  0  0  0
   17.2903   45.3553  -12.2072 H   0  0  0  0  0  0
   16.0219   46.4412  -11.7381 H   0  0  0  0  0  0
   17.8757   48.1122  -11.0416 H   0  0  0  0  0  0
   17.6663   47.8227  -12.7395 H   0  0  0  0  0  0
   19.7612   46.2990  -11.1326 H   0  0  0  0  0  0
   19.5519   46.3077  -12.8395 H   0  0  0  0  0  0
   20.1798   48.7099  -12.9507 H   0  0  0  0  0  0
   21.4321   47.7137  -12.2969 H   0  0  0  0  0  0
   21.3170   49.7693  -11.0055 H   0  0  0  0  0  0
   19.6107   49.6110  -10.7665 H   0  0  0  0  0  0
   19.9766   47.6064   -9.3131 H   0  0  0  0  0  0
   20.6864   49.0536   -8.6977 H   0  0  0  0  0  0
   22.3549   47.0452  -10.2760 H   0  0  0  0  0  0
   22.9253   48.4111   -9.3738 H   0  0  0  0  0  0
   22.0171   47.3559   -7.2655 H   0  0  0  0  0  0
   23.3407   46.4820   -8.0016 H   0  0  0  0  0  0
   21.2020   44.7464   -4.8833 H   0  0  0  0  0  0
   20.8523   46.3043   -5.5779 H   0  0  0  0  0  0
   22.4832   45.6252   -5.6627 H   0  0  0  0  0  0
   19.8663   41.7109   -6.1555 H   0  0  0  0  0  0
   19.8099   43.0708   -5.0565 H   0  0  0  0  0  0
   21.3637   42.4706   -5.6583 H   0  0  0  0  0  0
   18.5478   42.5719   -8.7400 H   0  0  0  0  0  0
   17.0154   43.5768  -10.7117 H   0  0  0  0  0  0
   15.4822   44.2553  -10.2623 H   0  0  0  0  0  0
   13.9249   41.8198   -8.8399 H   0  0  0  0  0  0
   17.1566   41.0622   -7.2407 H   0  0  0  0  0  0
   16.0594   42.0681   -6.3965 H   0  0  0  0  0  0
   14.6397   40.4703   -6.1875 H   0  0  0  0  0  0
   16.3580   38.9265   -5.9207 H   0  0  0  0  0  0
   15.0146   38.1925   -6.8233 H   0  0  0  0  0  0
   18.8221   39.0285   -7.2787 H   0  0  0  0  0  0
   20.5371   38.2241   -9.5754 H   0  0  0  0  0  0
   19.6181   37.8071  -10.9761 H   0  0  0  0  0  0
   18.1555   40.0307  -12.0344 H   0  0  0  0  0  0
   18.9237   41.5922  -11.7983 H   0  0  0  0  0  0
   18.0008   40.8722  -10.4957 H   0  0  0  0  0  0
   21.6062   40.4305   -9.4395 H   0  0  0  0  0  0
   20.0240   40.9399   -8.8716 H   0  0  0  0  0  0
   20.8344   41.8410  -10.1472 H   0  0  0  0  0  0
   21.8668   39.3500  -11.7028 H   0  0  0  0  0  0
   21.1539   40.7540  -12.4636 H   0  0  0  0  0  0
   20.4855   39.1613  -12.7872 H   0  0  0  0  0  0
   14.5544   40.2046   -7.7991 H   0  0  0  0  0  0
  1  2  1  0  0  0
  1 41  1  0  0  0
  1 42  1  0  0  0
  1 43  1  0  0  0
  2 37  1  0  0  0
  2 21  1  0  0  0
  2  3  1  0  0  0
  3  4  1  0  0  0
  3 44  1  0  0  0
  3 45  1  0  0  0
  4  5  1  0  0  0
  4 46  1  0  0  0
  4 47  1  0  0  0
  5  6  1  0  0  0
  5 48  1  0  0  0
  5 49  1  0  0  0
  6  7  1  0  0  0
  6 50  1  0  0  0
  6 51  1  0  0  0
  7  8  1  0  0  0
  7 52  1  0  0  0
  7 53  1  0  0  0
  8  9  1  0  0  0
  8 54  1  0  0  0
  8 55  1  0  0  0
  9 10  1  0  0  0
  9 56  1  0  0  0
  9 57  1  0  0  0
 10 11  1  0  0  0
 10 58  1  0  0  0
 10 59  1  0  0  0
 11 12  2  0  0  0
 11 13  1  0  0  0
 13 14  1  0  0  0
 13 15  1  0  0  0
 14 60  1  0  0  0
 14 61  1  0  0  0
 14 62  1  0  0  0
 15 38  1  0  0  0
 15 16  1  0  0  0
 15 17  1  0  0  0
 16 63  1  0  0  0
 16 64  1  0  0  0
 16 65  1  0  0  0
 17 18  2  0  0  0
 17 19  1  0  0  0
 19 20  1  0  0  0
 19 66  1  0  0  0
 20 39  1  0  0  0
 20 21  1  0  0  0
 20 22  1  0  0  0
 21 67  1  0  0  0
 21 68  1  0  0  0
 22 40  1  0  0  0
 22 23  1  0  0  0
 22 24  1  0  0  0
 23 69  1  0  0  0
 24 25  1  0  0  0
 24 70  1  0  0  0
 24 71  1  0  0  0
 25 26  1  0  0  0
 25 72  1  0  0  0
 25 87  1  0  0  0
 26 27  1  0  0  0
 26 73  1  0  0  0
 26 74  1  0  0  0
 27 36  2  0  0  0
 27 28  1  0  0  0
 28 29  2  0  0  0
 28 75  1  0  0  0
 29 30  1  0  0  0
 29 35  1  0  0  0
 30 31  1  0  0  0
 30 76  1  0  0  0
 30 77  1  0  0  0
 31 32  1  0  0  0
 31 33  1  0  0  0
 31 34  1  0  0  0
 32 78  1  0  0  0
 32 79  1  0  0  0
 32 80  1  0  0  0
 33 81  1  0  0  0
 33 82  1  0  0  0
 33 83  1  0  0  0
 34 84  1  0  0  0
 34 85  1  0  0  0
 34 86  1  0  0  0
 35 36  1  0  0  0
M  CHG  1  25   1
M  END
> <s_m_source_file>
BACE_29.smi

> <i_m_source_file_index>
1

> <i_lp_mmshare_version>
42013

> <i_f3d_flags>
0

> <s_epik_input>
W0NIM11bQ0BASF0xW0NIMl1bQ0gyXVtDSDJdW0NIMl1bQ0gyXVtDSDJdW0NIMl1bQ0gyXUMoPU8pTihbQ0gzXSlbQ0BASF0oW0NIM10pQyg9TylbTkhdW0NAQEhdKFtDSDJdMSlbQ0BIXShbT0hdKVtDSDJdW05IXVtDSDJdYzJbY0hdYyhvbjIpW0NIMl1DKFtDSDNdKShbQ0gzXSlbQ0gzXQ==

> <s_epik_cmdline>
J2VwaWtfcHl0aG9uJywgJy1waCcsICc3LjAnLCAnLXRuJywgJzgnLCAnLW1hJywgJzIwMCcsICctaW1hZScsICc8aW5maWxlLm1hZT4nLCAnLW9tYWUnLCAnPG91dGZpbGUubWFlPic=

> <r_epik_Ionization_Penalty>
  0.5871

> <r_epik_Ionization_Penalty_Charging>
  0.5871

> <r_epik_Ionization_Penalty_Neutral>
  0.0000

> <r_epik_State_Penalty>
  0.6003

> <r_epik_Charging_Adjusted_Penalty>
1.18739

> <i_epik_Tot_Q>
1

> <i_epik_Tot_abs_Q>
1

> <s_lp_Force_Field>
OPLS_2005

> <r_lp_Energy>
33.4854

> <b_lp_Chiralities_Consistent>
1

> <s_lp_Variant>
BACE_29.smi:1-2

> <chiral flag>
1

> <version>
0

> <s_i_glide_gridfile>
second_dock_grid_2

> <i_i_glide_lignum>
50

> <i_i_glide_rotatable_bonds>
8

> <r_i_docking_score>
-4.51542

> <r_i_glide_ligand_efficiency>
-0.125428

> <r_i_glide_ligand_efficiency_sa>
-0.414155

> <r_i_glide_ligand_efficiency_ln>
-0.985142

> <r_glide_XP_GScore>
-5.11572

> <r_i_glide_gscore>
-5.11572

> <r_i_glide_evdw>
-30.3129

> <r_i_glide_ecoul>
-15.3085

> <r_i_glide_energy>
-45.6214

> <r_i_glide_einternal>
6.96758

> <r_i_glide_emodel>
-57.4344

> <r_glide_XP_HBond>
-0.7

> <i_i_glide_confnum>
1

> <i_i_glide_posenum>
15

> <r_i_glide_eff_state_penalty>
0.6003

> <i_glide_XP_PoseRank>
1

$$$$
BACE_30.smi:1
                    3D
 Structure written by MMmdl.
 90 91  0  0  1  0            999 V2000
   14.9177   38.3598   -9.0699 C   0  0  0  0  0  0
   16.1123   38.3980   -8.0929 C   0  0  2  0  0  0
   15.9619   39.3542   -6.9596 N   0  3  0  0  0  0
   15.5069   40.7652   -7.1665 C   0  0  0  0  0  0
   15.7214   41.4461   -8.5533 C   0  0  1  0  0  0
   14.4600   41.5603   -9.1973 O   0  0  0  0  0  0
   16.3819   42.8608   -8.4723 C   0  0  2  0  0  0
   16.2054   43.6611   -9.8007 C   0  0  0  0  0  0
   16.6843   45.1295   -9.8238 C   0  0  2  0  0  0
   15.9330   45.9666   -8.7689 C   0  0  0  0  0  0
   16.4739   45.7188  -11.2405 C   0  0  0  0  0  0
   17.3273   46.9608  -11.5512 C   0  0  0  0  0  0
   18.7603   46.6078  -11.9848 C   0  0  0  0  0  0
   19.6816   47.8305  -12.1604 C   0  0  0  0  0  0
   19.9706   48.6318  -10.8719 C   0  0  0  0  0  0
   20.4615   47.7955   -9.6750 C   0  0  0  0  0  0
   21.8006   47.0706   -9.9212 C   0  0  0  0  0  0
   22.1990   46.1090   -8.7818 C   0  0  0  0  0  0
   21.2708   44.8787   -8.6740 C   0  0  0  0  0  0
   20.8853   44.3646   -9.7263 O   0  0  0  0  0  0
   20.9166   44.3780   -7.4596 N   0  0  0  0  0  0
   21.2127   45.1036   -6.2122 C   0  0  0  0  0  0
   20.0915   43.1429   -7.3991 C   0  0  1  0  0  0
   20.3764   42.3028   -6.1335 C   0  0  0  0  0  0
   18.5932   43.4982   -7.4489 C   0  0  0  0  0  0
   18.1691   44.4796   -6.8400 O   0  0  0  0  0  0
   17.8140   42.7040   -8.2018 N   0  0  0  0  0  0
   17.4647   38.4999   -8.7567 C   0  0  0  0  0  0
   18.5230   39.4274   -8.5324 C   0  0  0  0  0  0
   19.4706   39.0741   -9.4517 C   0  0  0  0  0  0
   20.7836   39.6735   -9.8500 C   0  0  0  0  0  0
   20.7723   40.5184  -11.1580 C   0  0  0  0  0  0
   20.7883   39.5984  -12.3914 C   0  0  0  0  0  0
   19.5301   41.4303  -11.2486 C   0  0  0  0  0  0
   22.0357   41.3962  -11.1929 C   0  0  0  0  0  0
   19.0754   37.9617  -10.1168 O   0  0  0  0  0  0
   17.8165   37.5846   -9.6400 N   0  0  0  0  0  0
   16.1119   37.4171   -7.6404 H   0  0  0  0  0  0
   16.3399   40.8443   -9.2132 H   0  0  0  0  0  0
   15.9112   43.4007   -7.6460 H   0  0  0  0  0  0
   17.7512   45.1522   -9.6017 H   0  0  0  0  0  0
   20.3365   42.4993   -8.2450 H   0  0  0  0  0  0
   13.9638   38.3934   -8.5410 H   0  0  0  0  0  0
   14.9340   37.4314   -9.6422 H   0  0  0  0  0  0
   14.9357   39.1585   -9.8059 H   0  0  0  0  0  0
   16.8600   39.3956   -6.5004 H   0  0  0  0  0  0
   16.0532   41.3527   -6.4332 H   0  0  0  0  0  0
   14.4622   40.8253   -6.8574 H   0  0  0  0  0  0
   13.8310   40.9497   -8.8297 H   0  0  0  0  0  0
   16.7084   43.1071  -10.5958 H   0  0  0  0  0  0
   15.1543   43.6908  -10.0856 H   0  0  0  0  0  0
   16.1333   47.0330   -8.8687 H   0  0  0  0  0  0
   16.2061   45.6896   -7.7534 H   0  0  0  0  0  0
   14.8600   45.8103   -8.8531 H   0  0  0  0  0  0
   16.6838   44.9635  -11.9986 H   0  0  0  0  0  0
   15.4184   45.9654  -11.3640 H   0  0  0  0  0  0
   17.3380   47.6266  -10.6910 H   0  0  0  0  0  0
   16.8540   47.5230  -12.3572 H   0  0  0  0  0  0
   19.2089   45.9049  -11.2831 H   0  0  0  0  0  0
   18.7146   46.0719  -12.9340 H   0  0  0  0  0  0
   19.2485   48.5021  -12.9036 H   0  0  0  0  0  0
   20.6258   47.4954  -12.5918 H   0  0  0  0  0  0
   20.7052   49.4069  -11.0958 H   0  0  0  0  0  0
   19.0686   49.1669  -10.5744 H   0  0  0  0  0  0
   19.6870   47.0823   -9.3944 H   0  0  0  0  0  0
   20.5734   48.4511   -8.8102 H   0  0  0  0  0  0
   21.7637   46.5142  -10.8589 H   0  0  0  0  0  0
   22.5892   47.8125  -10.0557 H   0  0  0  0  0  0
   22.2766   46.6835   -7.8607 H   0  0  0  0  0  0
   23.2033   45.7306   -8.9766 H   0  0  0  0  0  0
   20.7092   44.7051   -5.3358 H   0  0  0  0  0  0
   20.8756   46.1391   -6.2790 H   0  0  0  0  0  0
   22.2839   45.0940   -6.0075 H   0  0  0  0  0  0
   19.9815   41.2930   -6.2442 H   0  0  0  0  0  0
   19.9230   42.7139   -5.2306 H   0  0  0  0  0  0
   21.4486   42.2015   -5.9601 H   0  0  0  0  0  0
   18.2761   41.9510   -8.6887 H   0  0  0  0  0  0
   18.5703   40.2439   -7.8310 H   0  0  0  0  0  0
   21.1189   40.3014   -9.0250 H   0  0  0  0  0  0
   21.5346   38.8852   -9.9232 H   0  0  0  0  0  0
   21.6600   38.9507  -12.3944 H   0  0  0  0  0  0
   20.8052   40.1705  -13.3187 H   0  0  0  0  0  0
   19.9124   38.9549  -12.4182 H   0  0  0  0  0  0
   19.4615   42.0968  -10.3907 H   0  0  0  0  0  0
   18.6026   40.8601  -11.3043 H   0  0  0  0  0  0
   19.5700   42.0602  -12.1380 H   0  0  0  0  0  0
   22.0827   42.0678  -10.3362 H   0  0  0  0  0  0
   22.0706   42.0095  -12.0934 H   0  0  0  0  0  0
   22.9382   40.7852  -11.1791 H   0  0  0  0  0  0
   15.3306   38.9234   -6.2873 H   0  0  0  0  0  0
  1  2  1  0  0  0
  1 43  1  0  0  0
  1 44  1  0  0  0
  1 45  1  0  0  0
  2 38  1  0  0  0
  2  3  1  0  0  0
  2 28  1  0  0  0
  3  4  1  0  0  0
  3 46  1  0  0  0
  3 90  1  0  0  0
  4  5  1  0  0  0
  4 47  1  0  0  0
  4 48  1  0  0  0
  5 39  1  0  0  0
  5  6  1  0  0  0
  5  7  1  0  0  0
  6 49  1  0  0  0
  7 40  1  0  0  0
  7 27  1  0  0  0
  7  8  1  0  0  0
  8  9  1  0  0  0
  8 50  1  0  0  0
  8 51  1  0  0  0
  9 41  1  0  0  0
  9 10  1  0  0  0
  9 11  1  0  0  0
 10 52  1  0  0  0
 10 53  1  0  0  0
 10 54  1  0  0  0
 11 12  1  0  0  0
 11 55  1  0  0  0
 11 56  1  0  0  0
 12 13  1  0  0  0
 12 57  1  0  0  0
 12 58  1  0  0  0
 13 14  1  0  0  0
 13 59  1  0  0  0
 13 60  1  0  0  0
 14 15  1  0  0  0
 14 61  1  0  0  0
 14 62  1  0  0  0
 15 16  1  0  0  0
 15 63  1  0  0  0
 15 64  1  0  0  0
 16 17  1  0  0  0
 16 65  1  0  0  0
 16 66  1  0  0  0
 17 18  1  0  0  0
 17 67  1  0  0  0
 17 68  1  0  0  0
 18 19  1  0  0  0
 18 69  1  0  0  0
 18 70  1  0  0  0
 19 20  2  0  0  0
 19 21  1  0  0  0
 21 22  1  0  0  0
 21 23  1  0  0  0
 22 71  1  0  0  0
 22 72  1  0  0  0
 22 73  1  0  0  0
 23 42  1  0  0  0
 23 24  1  0  0  0
 23 25  1  0  0  0
 24 74  1  0  0  0
 24 75  1  0  0  0
 24 76  1  0  0  0
 25 26  2  0  0  0
 25 27  1  0  0  0
 27 77  1  0  0  0
 28 37  2  0  0  0
 28 29  1  0  0  0
 29 30  2  0  0  0
 29 78  1  0  0  0
 30 31  1  0  0  0
 30 36  1  0  0  0
 31 32  1  0  0  0
 31 79  1  0  0  0
 31 80  1  0  0  0
 32 33  1  0  0  0
 32 34  1  0  0  0
 32 35  1  0  0  0
 33 81  1  0  0  0
 33 82  1  0  0  0
 33 83  1  0  0  0
 34 84  1  0  0  0
 34 85  1  0  0  0
 34 86  1  0  0  0
 35 87  1  0  0  0
 35 88  1  0  0  0
 35 89  1  0  0  0
 36 37  1  0  0  0
M  CHG  1   3   1
M  END
> <s_m_source_file>
BACE_30.smi

> <i_m_source_file_index>
1

> <i_lp_mmshare_version>
42013

> <i_f3d_flags>
0

> <s_epik_input>
W0NIM11DKFtDSDNdKShbQ0gzXSlbQ0gyXWMob24xKVtjSF1jMVtDQEhdKFtDSDNdKVtOSF1bQ0gyXVtDQEBIXShbT0hdKVtDQEBIXTJbQ0gyXVtDQEhdKFtDSDNdKVtDSDJdW0NIMl1bQ0gyXVtDSDJdW0NIMl1bQ0gyXVtDSDJdW0NIMl1DKD1PKU4oW0NIM10pW0NAQEhdKFtDSDNdKUMoPU8pW05IXTI=

> <s_epik_cmdline>
J2VwaWtfcHl0aG9uJywgJy1waCcsICc3LjAnLCAnLXRuJywgJzgnLCAnLW1hJywgJzIwMCcsICctaW1hZScsICc8aW5maWxlLm1hZT4nLCAnLW9tYWUnLCAnPG91dGZpbGUubWFlPic=

> <r_epik_Ionization_Penalty>
  0.3898

> <r_epik_Ionization_Penalty_Charging>
  0.3898

> <r_epik_Ionization_Penalty_Neutral>
  0.0000

> <r_epik_State_Penalty>
  0.3884

> <r_epik_Charging_Adjusted_Penalty>
0.778183

> <i_epik_Tot_Q>
1

> <i_epik_Tot_abs_Q>
1

> <s_lp_Force_Field>
OPLS_2005

> <r_lp_Energy>
33.3052

> <b_lp_Chiralities_Consistent>
1

> <s_lp_Variant>
BACE_30.smi:1-1

> <chiral flag>
1

> <version>
0

> <s_i_glide_gridfile>
second_dock_grid_2

> <i_i_glide_lignum>
51

> <i_i_glide_rotatable_bonds>
8

> <r_i_docking_score>
-4.61487

> <r_i_glide_ligand_efficiency>
-0.124726

> <r_i_glide_ligand_efficiency_sa>
-0.415616

> <r_i_glide_ligand_efficiency_ln>
-1.00086

> <r_glide_XP_GScore>
-5.00327

> <r_i_glide_gscore>
-5.00327

> <r_i_glide_evdw>
-31.8282

> <r_i_glide_ecoul>
-15.4083

> <r_i_glide_energy>
-47.2365

> <r_i_glide_einternal>
11.5317

> <r_i_glide_emodel>
-57.2261

> <r_glide_XP_HBond>
-0.934529

> <i_i_glide_confnum>
1

> <i_i_glide_posenum>
8

> <r_i_glide_eff_state_penalty>
0.3884

> <i_glide_XP_PoseRank>
1

$$$$
BACE_30.smi:1
                    3D
 Structure written by MMmdl.
 89 90  0  0  1  0            999 V2000
   21.2846   49.0379   -8.0319 C   0  0  0  0  0  0
   21.0040   48.5450   -6.6044 C   0  0  2  0  0  0
   19.5815   48.2594   -6.3628 N   0  0  0  0  0  0
   18.9597   47.1823   -7.1541 C   0  0  0  0  0  0
   19.6070   45.7923   -6.9354 C   0  0  1  0  0  0
   19.2601   45.3501   -5.6402 O   0  0  0  0  0  0
   19.1564   44.7452   -7.9885 C   0  0  2  0  0  0
   17.7718   44.1033   -7.7107 C   0  0  0  0  0  0
   17.0541   43.5553   -8.9648 C   0  0  2  0  0  0
   16.4699   44.7031   -9.8105 C   0  0  0  0  0  0
   15.9358   42.5495   -8.6046 C   0  0  0  0  0  0
   16.4107   41.1618   -8.1274 C   0  0  0  0  0  0
   17.1616   40.3726   -9.2103 C   0  0  0  0  0  0
   17.4508   38.9156   -8.8101 C   0  0  0  0  0  0
   18.1630   38.1246   -9.9252 C   0  0  0  0  0  0
   19.6072   38.5703  -10.2078 C   0  0  0  0  0  0
   20.6109   38.0961   -9.1456 C   0  0  0  0  0  0
   21.9909   38.7671   -9.2497 C   0  0  0  0  0  0
   21.9788   40.2093   -8.7118 C   0  0  0  0  0  0
   21.8132   40.3523   -7.4979 O   0  0  0  0  0  0
   22.1475   41.2648   -9.5502 N   0  0  0  0  0  0
   22.2591   41.0936  -11.0052 C   0  0  0  0  0  0
   22.1943   42.6394   -9.0040 C   0  0  1  0  0  0
   23.3640   43.4488   -9.6161 C   0  0  0  0  0  0
   20.8695   43.3944   -9.2174 C   0  0  0  0  0  0
   20.4851   43.6995  -10.3481 O   0  0  0  0  0  0
   20.2156   43.7421   -8.1007 N   0  0  0  0  0  0
   21.5203   49.5087   -5.5688 C   0  0  0  0  0  0
   22.2822   49.1946   -4.4134 C   0  0  0  0  0  0
   22.3750   50.3794   -3.7420 C   0  0  0  0  0  0
   22.9485   50.7698   -2.4146 C   0  0  0  0  0  0
   24.4563   50.4678   -2.1681 C   0  0  0  0  0  0
   25.3440   51.0646   -3.2757 C   0  0  0  0  0  0
   24.8589   51.0977   -0.8215 C   0  0  0  0  0  0
   24.7177   48.9505   -2.0684 C   0  0  0  0  0  0
   21.7225   51.3503   -4.4396 O   0  0  0  0  0  0
   21.2084   50.7954   -5.6159 N   0  0  0  0  0  0
   21.5817   47.6343   -6.4705 H   0  0  0  0  0  0
   20.6915   45.8690   -6.9908 H   0  0  0  0  0  0
   19.1088   45.2762   -8.9381 H   0  0  0  0  0  0
   17.7870   43.0486   -9.5905 H   0  0  0  0  0  0
   22.4088   42.6235   -7.9343 H   0  0  0  0  0  0
   21.0164   48.2916   -8.7801 H   0  0  0  0  0  0
   22.3432   49.2556   -8.1677 H   0  0  0  0  0  0
   20.7314   49.9514   -8.2589 H   0  0  0  0  0  0
   19.0571   49.1150   -6.5040 H   0  0  0  0  0  0
   18.9980   47.4452   -8.2092 H   0  0  0  0  0  0
   17.8995   47.1181   -6.9135 H   0  0  0  0  0  0
   19.5515   44.4534   -5.5443 H   0  0  0  0  0  0
   17.8982   43.3168   -6.9665 H   0  0  0  0  0  0
   17.1144   44.8314   -7.2394 H   0  0  0  0  0  0
   15.9709   44.3186  -10.6985 H   0  0  0  0  0  0
   17.2413   45.3904  -10.1520 H   0  0  0  0  0  0
   15.7382   45.2791   -9.2412 H   0  0  0  0  0  0
   15.2952   42.9831   -7.8359 H   0  0  0  0  0  0
   15.2906   42.3946   -9.4676 H   0  0  0  0  0  0
   15.5362   40.5894   -7.8101 H   0  0  0  0  0  0
   17.0394   41.2502   -7.2404 H   0  0  0  0  0  0
   16.5824   40.3837  -10.1338 H   0  0  0  0  0  0
   18.0999   40.8797   -9.4220 H   0  0  0  0  0  0
   16.5023   38.4224   -8.5852 H   0  0  0  0  0  0
   18.0283   38.8868   -7.8849 H   0  0  0  0  0  0
   18.1514   37.0591   -9.6811 H   0  0  0  0  0  0
   17.5812   38.2255  -10.8398 H   0  0  0  0  0  0
   19.6414   39.6509  -10.3129 H   0  0  0  0  0  0
   19.9152   38.1756  -11.1770 H   0  0  0  0  0  0
   20.2117   38.2552   -8.1436 H   0  0  0  0  0  0
   20.7366   37.0194   -9.2398 H   0  0  0  0  0  0
   22.4029   38.6701  -10.2535 H   0  0  0  0  0  0
   22.6836   38.2126   -8.6199 H   0  0  0  0  0  0
   22.1179   42.0198  -11.5623 H   0  0  0  0  0  0
   21.5174   40.3989  -11.3997 H   0  0  0  0  0  0
   23.2527   40.7121  -11.2392 H   0  0  0  0  0  0
   23.4765   44.4078   -9.1067 H   0  0  0  0  0  0
   23.2307   43.6729  -10.6749 H   0  0  0  0  0  0
   24.3102   42.9166   -9.5040 H   0  0  0  0  0  0
   20.5839   43.3748   -7.2327 H   0  0  0  0  0  0
   22.6485   48.2276   -4.1038 H   0  0  0  0  0  0
   22.7741   51.8343   -2.2684 H   0  0  0  0  0  0
   22.3580   50.2842   -1.6406 H   0  0  0  0  0  0
   25.0844   50.6826   -4.2624 H   0  0  0  0  0  0
   26.3960   50.8276   -3.1052 H   0  0  0  0  0  0
   25.2602   52.1501   -3.2993 H   0  0  0  0  0  0
   24.2657   50.6853   -0.0085 H   0  0  0  0  0  0
   24.7161   52.1779   -0.8208 H   0  0  0  0  0  0
   25.9070   50.9091   -0.5862 H   0  0  0  0  0  0
   24.0464   48.4725   -1.3552 H   0  0  0  0  0  0
   25.7366   48.7512   -1.7368 H   0  0  0  0  0  0
   24.6039   48.4519   -3.0281 H   0  0  0  0  0  0
  1  2  1  0  0  0
  1 43  1  0  0  0
  1 44  1  0  0  0
  1 45  1  0  0  0
  2 38  1  0  0  0
  2  3  1  0  0  0
  2 28  1  0  0  0
  3  4  1  0  0  0
  3 46  1  0  0  0
  4  5  1  0  0  0
  4 47  1  0  0  0
  4 48  1  0  0  0
  5 39  1  0  0  0
  5  6  1  0  0  0
  5  7  1  0  0  0
  6 49  1  0  0  0
  7 40  1  0  0  0
  7 27  1  0  0  0
  7  8  1  0  0  0
  8  9  1  0  0  0
  8 50  1  0  0  0
  8 51  1  0  0  0
  9 41  1  0  0  0
  9 10  1  0  0  0
  9 11  1  0  0  0
 10 52  1  0  0  0
 10 53  1  0  0  0
 10 54  1  0  0  0
 11 12  1  0  0  0
 11 55  1  0  0  0
 11 56  1  0  0  0
 12 13  1  0  0  0
 12 57  1  0  0  0
 12 58  1  0  0  0
 13 14  1  0  0  0
 13 59  1  0  0  0
 13 60  1  0  0  0
 14 15  1  0  0  0
 14 61  1  0  0  0
 14 62  1  0  0  0
 15 16  1  0  0  0
 15 63  1  0  0  0
 15 64  1  0  0  0
 16 17  1  0  0  0
 16 65  1  0  0  0
 16 66  1  0  0  0
 17 18  1  0  0  0
 17 67  1  0  0  0
 17 68  1  0  0  0
 18 19  1  0  0  0
 18 69  1  0  0  0
 18 70  1  0  0  0
 19 20  2  0  0  0
 19 21  1  0  0  0
 21 22  1  0  0  0
 21 23  1  0  0  0
 22 71  1  0  0  0
 22 72  1  0  0  0
 22 73  1  0  0  0
 23 42  1  0  0  0
 23 24  1  0  0  0
 23 25  1  0  0  0
 24 74  1  0  0  0
 24 75  1  0  0  0
 24 76  1  0  0  0
 25 26  2  0  0  0
 25 27  1  0  0  0
 27 77  1  0  0  0
 28 37  2  0  0  0
 28 29  1  0  0  0
 29 30  2  0  0  0
 29 78  1  0  0  0
 30 31  1  0  0  0
 30 36  1  0  0  0
 31 32  1  0  0  0
 31 79  1  0  0  0
 31 80  1  0  0  0
 32 33  1  0  0  0
 32 34  1  0  0  0
 32 35  1  0  0  0
 33 81  1  0  0  0
 33 82  1  0  0  0
 33 83  1  0  0  0
 34 84  1  0  0  0
 34 85  1  0  0  0
 34 86  1  0  0  0
 35 87  1  0  0  0
 35 88  1  0  0  0
 35 89  1  0  0  0
 36 37  1  0  0  0
M  END
> <s_m_source_file>
BACE_30.smi

> <i_m_source_file_index>
1

> <i_lp_mmshare_version>
42013

> <i_f3d_flags>
0

> <s_epik_input>
W0NIM11DKFtDSDNdKShbQ0gzXSlbQ0gyXWMob24xKVtjSF1jMVtDQEhdKFtDSDNdKVtOSF1bQ0gyXVtDQEBIXShbT0hdKVtDQEBIXTJbQ0gyXVtDQEhdKFtDSDNdKVtDSDJdW0NIMl1bQ0gyXVtDSDJdW0NIMl1bQ0gyXVtDSDJdW0NIMl1DKD1PKU4oW0NIM10pW0NAQEhdKFtDSDNdKUMoPU8pW05IXTI=

> <s_epik_cmdline>
J2VwaWtfcHl0aG9uJywgJy1waCcsICc3LjAnLCAnLXRuJywgJzgnLCAnLW1hJywgJzIwMCcsICctaW1hZScsICc8aW5maWxlLm1hZT4nLCAnLW9tYWUnLCAnPG91dGZpbGUubWFlPic=

> <r_epik_Ionization_Penalty>
  0.4323

> <r_epik_Ionization_Penalty_Charging>
  0.0000

> <r_epik_Ionization_Penalty_Neutral>
  0.4323

> <r_epik_State_Penalty>
  0.4338

> <r_epik_Charging_Adjusted_Penalty>
0.433826

> <i_epik_Tot_Q>
0

> <i_epik_Tot_abs_Q>
0

> <s_lp_Force_Field>
OPLS_2005

> <r_lp_Energy>
36.7983

> <b_lp_Chiralities_Consistent>
1

> <s_lp_Variant>
BACE_30.smi:1-2

> <chiral flag>
1

> <version>
0

> <s_i_glide_gridfile>
second_dock_grid_2

> <i_i_glide_lignum>
52

> <i_i_glide_rotatable_bonds>
8

> <r_i_docking_score>
-3.88368

> <r_i_glide_ligand_efficiency>
-0.104964

> <r_i_glide_ligand_efficiency_sa>
-0.349765

> <r_i_glide_ligand_efficiency_ln>
-0.84228

> <r_glide_XP_GScore>
-4.31748

> <r_i_glide_gscore>
-4.31748

> <r_i_glide_evdw>
-36.8914

> <r_i_glide_ecoul>
-8.57122

> <r_i_glide_energy>
-45.4626

> <r_i_glide_einternal>
7.95553

> <r_i_glide_emodel>
-53.8913

> <r_glide_XP_HBond>
-0.7

> <i_i_glide_confnum>
1

> <i_i_glide_posenum>
10

> <r_i_glide_eff_state_penalty>
0.4338

> <i_glide_XP_PoseRank>
1

$$$$
BACE_31.smi:1
                    3D
 Structure written by MMmdl.
 92 93  0  0  1  0            999 V2000
   19.1669   40.0651  -10.8793 C   0  0  0  0  0  0
   20.3700   39.6056  -10.0608 C   0  0  2  0  0  0
   20.1371   38.1753   -9.5279 C   0  0  0  0  0  0
   18.8202   37.9669   -8.7491 C   0  0  0  0  0  0
   17.5614   37.9883   -9.6401 C   0  0  0  0  0  0
   16.2502   37.6680   -8.8901 C   0  0  0  0  0  0
   15.8245   38.6930   -7.8131 C   0  0  0  0  0  0
   15.6913   40.1525   -8.2964 C   0  0  0  0  0  0
   14.6367   40.3634   -9.4073 C   0  0  0  0  0  0
   14.5472   41.8204   -9.9260 C   0  0  0  0  0  0
   15.8165   42.3015  -10.6378 C   0  0  0  0  0  0
   16.2327   41.6901  -11.6080 O   0  0  0  0  0  0
   16.4177   43.3824  -10.1204 N   0  0  0  0  0  0
   15.8083   43.9951   -8.9573 C   0  0  0  0  0  0
   17.7685   43.8089  -10.5423 C   0  0  1  0  0  0
   17.8545   45.3299  -10.4551 C   0  0  0  0  0  0
   18.8365   43.2280   -9.5895 C   0  0  0  0  0  0
   18.7111   43.3048   -8.3784 O   0  0  0  0  0  0
   19.9115   42.6770  -10.1687 N   0  0  0  0  0  0
   21.0391   42.0482   -9.4755 C   0  0  1  0  0  0
   20.6912   40.6364   -8.9559 C   0  0  0  0  0  0
   22.2300   41.9631  -10.4259 C   0  0  2  0  0  0
   21.8156   41.4913  -11.6958 O   0  0  0  0  0  0
   23.3609   41.0425   -9.9157 C   0  0  0  0  0  0
   24.6819   41.4856  -10.4311 N   0  3  0  0  0  0
   25.1291   42.8857  -10.1669 C   0  0  0  0  0  0
   24.4837   43.8602  -11.1790 C   0  0  0  0  0  0
   24.8218   43.2811   -8.7042 C   0  0  0  0  0  0
   26.6332   42.8136  -10.3894 C   0  0  0  0  0  0
   27.4764   43.5930   -9.6943 N   0  0  0  0  0  0
   28.8090   43.3943  -10.0286 N   0  0  0  0  0  0
   28.9671   42.4604  -10.9722 C   0  0  0  0  0  0
   30.3112   42.0696  -11.5175 C   0  0  0  0  0  0
   30.7876   42.7807  -12.8217 C   0  0  0  0  0  0
   30.2692   44.2331  -12.9312 C   0  0  0  0  0  0
   32.3315   42.8156  -12.8212 C   0  0  0  0  0  0
   30.3228   41.9870  -14.0628 C   0  0  0  0  0  0
   27.4622   41.7484  -11.5423 S   0  0  0  0  0  0
   21.2048   39.5776  -10.7612 H   0  0  0  0  0  0
   17.9860   43.5580  -11.5805 H   0  0  0  0  0  0
   21.3689   42.6753   -8.6473 H   0  0  0  0  0  0
   22.6497   42.9607  -10.5625 H   0  0  0  0  0  0
   18.9269   39.3598  -11.6744 H   0  0  0  0  0  0
   19.3466   41.0246  -11.3628 H   0  0  0  0  0  0
   18.2767   40.1709  -10.2580 H   0  0  0  0  0  0
   20.1681   37.4741  -10.3618 H   0  0  0  0  0  0
   20.9763   37.8954   -8.8912 H   0  0  0  0  0  0
   18.7346   38.7075   -7.9539 H   0  0  0  0  0  0
   18.8696   37.0020   -8.2445 H   0  0  0  0  0  0
   17.4708   38.9497  -10.1457 H   0  0  0  0  0  0
   17.6852   37.2554  -10.4373 H   0  0  0  0  0  0
   16.3359   36.6851   -8.4268 H   0  0  0  0  0  0
   15.4470   37.5634   -9.6196 H   0  0  0  0  0  0
   14.8768   38.3739   -7.3793 H   0  0  0  0  0  0
   16.5387   38.6615   -6.9903 H   0  0  0  0  0  0
   16.6677   40.5058   -8.6278 H   0  0  0  0  0  0
   15.4354   40.7810   -7.4434 H   0  0  0  0  0  0
   14.8347   39.6989  -10.2483 H   0  0  0  0  0  0
   13.6602   40.0633   -9.0272 H   0  0  0  0  0  0
   14.2872   42.4886   -9.1050 H   0  0  0  0  0  0
   13.7283   41.9089  -10.6400 H   0  0  0  0  0  0
   16.2682   44.9392   -8.6715 H   0  0  0  0  0  0
   15.8629   43.3356   -8.0905 H   0  0  0  0  0  0
   14.7628   44.2417   -9.1467 H   0  0  0  0  0  0
   18.8295   45.6914  -10.7849 H   0  0  0  0  0  0
   17.6968   45.6908   -9.4382 H   0  0  0  0  0  0
   17.1063   45.8050  -11.0906 H   0  0  0  0  0  0
   19.9392   42.6778  -11.1783 H   0  0  0  0  0  0
   21.5365   40.2743   -8.3706 H   0  0  0  0  0  0
   19.8620   40.7075   -8.2521 H   0  0  0  0  0  0
   22.5848   41.2854  -12.2047 H   0  0  0  0  0  0
   23.3780   41.0769   -8.8270 H   0  0  0  0  0  0
   23.1617   40.0108  -10.2029 H   0  0  0  0  0  0
   25.3802   40.8682  -10.0423 H   0  0  0  0  0  0
   23.4064   43.9471  -11.0385 H   0  0  0  0  0  0
   24.6599   43.5429  -12.2079 H   0  0  0  0  0  0
   24.8869   44.8683  -11.0762 H   0  0  0  0  0  0
   23.7515   43.3547   -8.5124 H   0  0  0  0  0  0
   25.2436   44.2557   -8.4563 H   0  0  0  0  0  0
   25.2360   42.5587   -7.9993 H   0  0  0  0  0  0
   31.0299   42.2699  -10.7216 H   0  0  0  0  0  0
   30.3306   40.9863  -11.6472 H   0  0  0  0  0  0
   29.1838   44.2790  -13.0237 H   0  0  0  0  0  0
   30.6784   44.7350  -13.8090 H   0  0  0  0  0  0
   30.5545   44.8263  -12.0616 H   0  0  0  0  0  0
   32.7543   41.8127  -12.7480 H   0  0  0  0  0  0
   32.7216   43.3948  -11.9831 H   0  0  0  0  0  0
   32.7248   43.2662  -13.7334 H   0  0  0  0  0  0
   30.6832   40.9577  -14.0415 H   0  0  0  0  0  0
   30.6909   42.4373  -14.9856 H   0  0  0  0  0  0
   29.2360   41.9505  -14.1387 H   0  0  0  0  0  0
   24.6741   41.3545  -11.4325 H   0  0  0  0  0  0
  1  2  1  0  0  0
  1 43  1  0  0  0
  1 44  1  0  0  0
  1 45  1  0  0  0
  2 39  1  0  0  0
  2 21  1  0  0  0
  2  3  1  0  0  0
  3  4  1  0  0  0
  3 46  1  0  0  0
  3 47  1  0  0  0
  4  5  1  0  0  0
  4 48  1  0  0  0
  4 49  1  0  0  0
  5  6  1  0  0  0
  5 50  1  0  0  0
  5 51  1  0  0  0
  6  7  1  0  0  0
  6 52  1  0  0  0
  6 53  1  0  0  0
  7  8  1  0  0  0
  7 54  1  0  0  0
  7 55  1  0  0  0
  8  9  1  0  0  0
  8 56  1  0  0  0
  8 57  1  0  0  0
  9 10  1  0  0  0
  9 58  1  0  0  0
  9 59  1  0  0  0
 10 11  1  0  0  0
 10 60  1  0  0  0
 10 61  1  0  0  0
 11 12  2  0  0  0
 11 13  1  0  0  0
 13 14  1  0  0  0
 13 15  1  0  0  0
 14 62  1  0  0  0
 14 63  1  0  0  0
 14 64  1  0  0  0
 15 40  1  0  0  0
 15 16  1  0  0  0
 15 17  1  0  0  0
 16 65  1  0  0  0
 16 66  1  0  0  0
 16 67  1  0  0  0
 17 18  2  0  0  0
 17 19  1  0  0  0
 19 20  1  0  0  0
 19 68  1  0  0  0
 20 41  1  0  0  0
 20 21  1  0  0  0
 20 22  1  0  0  0
 21 69  1  0  0  0
 21 70  1  0  0  0
 22 42  1  0  0  0
 22 23  1  0  0  0
 22 24  1  0  0  0
 23 71  1  0  0  0
 24 25  1  0  0  0
 24 72  1  0  0  0
 24 73  1  0  0  0
 25 26  1  0  0  0
 25 74  1  0  0  0
 25 92  1  0  0  0
 26 27  1  0  0  0
 26 28  1  0  0  0
 26 29  1  0  0  0
 27 75  1  0  0  0
 27 76  1  0  0  0
 27 77  1  0  0  0
 28 78  1  0  0  0
 28 79  1  0  0  0
 28 80  1  0  0  0
 29 38  1  0  0  0
 29 30  2  0  0  0
 30 31  1  0  0  0
 31 32  2  0  0  0
 32 33  1  0  0  0
 32 38  1  0  0  0
 33 34  1  0  0  0
 33 81  1  0  0  0
 33 82  1  0  0  0
 34 35  1  0  0  0
 34 36  1  0  0  0
 34 37  1  0  0  0
 35 83  1  0  0  0
 35 84  1  0  0  0
 35 85  1  0  0  0
 36 86  1  0  0  0
 36 87  1  0  0  0
 36 88  1  0  0  0
 37 89  1  0  0  0
 37 90  1  0  0  0
 37 91  1  0  0  0
M  CHG  1  25   1
M  END
> <s_m_source_file>
BACE_31.smi

> <i_m_source_file_index>
1

> <i_lp_mmshare_version>
42013

> <i_f3d_flags>
0

> <s_epik_input>
W0NIM11bQ0BASF0xW0NIMl1bQ0gyXVtDSDJdW0NIMl1bQ0gyXVtDSDJdW0NIMl1bQ0gyXUMoPU8pTihbQ0gzXSlbQ0BASF0oW0NIM10pQyg9TylbTkhdW0NAQEhdKFtDSDJdMSlbQ0BIXShbT0hdKVtDSDJdW05IXUMoW0NIM10pKFtDSDNdKWMybm5jKHMyKVtDSDJdQyhbQ0gzXSkoW0NIM10pW0NIM10=

> <s_epik_cmdline>
J2VwaWtfcHl0aG9uJywgJy1waCcsICc3LjAnLCAnLXRuJywgJzgnLCAnLW1hJywgJzIwMCcsICctaW1hZScsICc8aW5maWxlLm1hZT4nLCAnLW9tYWUnLCAnPG91dGZpbGUubWFlPic=

> <r_lp_tautomer_probability>
1

> <r_epik_Ionization_Penalty>
  0.1347

> <r_epik_Ionization_Penalty_Charging>
  0.1347

> <r_epik_Ionization_Penalty_Neutral>
  0.0000

> <r_epik_State_Penalty>
  0.1240

> <r_epik_Charging_Adjusted_Penalty>
0.25873

> <i_epik_Tot_Q>
1

> <i_epik_Tot_abs_Q>
1

> <s_lp_Force_Field>
OPLS_2005

> <r_lp_Energy>
28.8396

> <b_lp_Chiralities_Consistent>
1

> <s_lp_Variant>
BACE_31.smi:1-1

> <chiral flag>
1

> <version>
0

> <s_i_glide_gridfile>
second_dock_grid_2

> <i_i_glide_lignum>
53

> <i_i_glide_rotatable_bonds>
8

> <r_i_docking_score>
-4.89933

> <r_i_glide_ligand_efficiency>
-0.12893

> <r_i_glide_ligand_efficiency_sa>
-0.433459

> <r_i_glide_ligand_efficiency_ln>
-1.05644

> <r_glide_XP_GScore>
-5.02333

> <r_i_glide_gscore>
-5.02333

> <r_i_glide_evdw>
-37.7421

> <r_i_glide_ecoul>
-10.5318

> <r_i_glide_energy>
-48.2739

> <r_i_glide_einternal>
12.2671

> <r_i_glide_emodel>
-63.8533

> <r_glide_XP_HBond>
-1.30873

> <i_i_glide_confnum>
1

> <i_i_glide_posenum>
2

> <r_i_glide_eff_state_penalty>
0.124

> <i_glide_XP_PoseRank>
1

$$$$
BACE_31.smi:1
                    3D
 Structure written by MMmdl.
 91 92  0  0  1  0            999 V2000
   23.0181   39.9495   -7.9314 C   0  0  0  0  0  0
   21.5061   40.0477   -7.7501 C   0  0  2  0  0  0
   21.0894   39.2237   -6.5163 C   0  0  0  0  0  0
   21.7336   39.7325   -5.2108 C   0  0  0  0  0  0
   21.0710   41.0117   -4.6555 C   0  0  0  0  0  0
   21.8562   41.6953   -3.5158 C   0  0  0  0  0  0
   23.2375   42.2743   -3.9082 C   0  0  0  0  0  0
   23.2508   43.2071   -5.1395 C   0  0  0  0  0  0
   22.3970   44.4845   -4.9801 C   0  0  0  0  0  0
   22.3496   45.3727   -6.2495 C   0  0  0  0  0  0
   21.5823   44.7590   -7.4283 C   0  0  0  0  0  0
   20.4776   44.2744   -7.2460 O   0  0  0  0  0  0
   22.1867   44.8017   -8.6256 N   0  0  0  0  0  0
   23.5030   45.4035   -8.6954 C   0  0  0  0  0  0
   21.6173   44.1425   -9.8218 C   0  0  1  0  0  0
   22.1156   44.8684  -11.0682 C   0  0  0  0  0  0
   22.0819   42.6724   -9.9256 C   0  0  0  0  0  0
   23.2493   42.3643   -9.7501 O   0  0  0  0  0  0
   21.1381   41.7755  -10.2446 N   0  0  0  0  0  0
   21.3154   40.3221  -10.3262 C   0  0  1  0  0  0
   20.8031   39.6127   -9.0534 C   0  0  0  0  0  0
   20.5297   39.8072  -11.5287 C   0  0  2  0  0  0
   21.2610   40.0346  -12.7202 O   0  0  0  0  0  0
   19.1499   40.4844  -11.6857 C   0  0  0  0  0  0
   18.5123   40.6943  -10.3763 N   0  0  0  0  0  0
   17.2423   41.4597  -10.3033 C   0  0  0  0  0  0
   16.0800   40.6281  -10.8968 C   0  0  0  0  0  0
   16.9440   41.8073   -8.8235 C   0  0  0  0  0  0
   17.3863   42.7365  -11.1131 C   0  0  0  0  0  0
   17.8050   42.7656  -12.3893 N   0  0  0  0  0  0
   17.8268   44.0454  -12.9262 N   0  0  0  0  0  0
   17.3966   44.9700  -12.0613 C   0  0  0  0  0  0
   17.3318   46.4333  -12.3950 C   0  0  0  0  0  0
   17.5723   47.4434  -11.2307 C   0  0  0  0  0  0
   19.0721   47.4152  -10.8638 C   0  0  0  0  0  0
   17.2128   48.8757  -11.6840 C   0  0  0  0  0  0
   16.7561   47.0976   -9.9641 C   0  0  0  0  0  0
   16.9347   44.3282  -10.4886 S   0  0  0  0  0  0
   21.2962   41.1024   -7.5717 H   0  0  0  0  0  0
   20.5300   44.2151   -9.8501 H   0  0  0  0  0  0
   22.3531   40.0458  -10.5134 H   0  0  0  0  0  0
   20.3798   38.7318  -11.4211 H   0  0  0  0  0  0
   23.5523   40.2383   -7.0266 H   0  0  0  0  0  0
   23.3762   40.6063   -8.7232 H   0  0  0  0  0  0
   23.3263   38.9336   -8.1814 H   0  0  0  0  0  0
   20.0043   39.2132   -6.4139 H   0  0  0  0  0  0
   21.3830   38.1860   -6.6748 H   0  0  0  0  0  0
   22.7979   39.8925   -5.3828 H   0  0  0  0  0  0
   21.6746   38.9532   -4.4510 H   0  0  0  0  0  0
   20.9002   41.7358   -5.4521 H   0  0  0  0  0  0
   20.0749   40.7567   -4.2937 H   0  0  0  0  0  0
   21.9855   40.9907   -2.6943 H   0  0  0  0  0  0
   21.2423   42.4972   -3.1058 H   0  0  0  0  0  0
   23.6522   42.8063   -3.0520 H   0  0  0  0  0  0
   23.9290   41.4515   -4.0901 H   0  0  0  0  0  0
   22.9319   42.6460   -6.0179 H   0  0  0  0  0  0
   24.2810   43.4967   -5.3468 H   0  0  0  0  0  0
   21.3805   44.2284   -4.6812 H   0  0  0  0  0  0
   22.7992   45.0713   -4.1543 H   0  0  0  0  0  0
   23.3640   45.6379   -6.5474 H   0  0  0  0  0  0
   21.8576   46.3168   -6.0156 H   0  0  0  0  0  0
   23.8734   45.5233   -9.7117 H   0  0  0  0  0  0
   24.2381   44.8072   -8.1538 H   0  0  0  0  0  0
   23.4949   46.4129   -8.2820 H   0  0  0  0  0  0
   21.6969   44.4311  -11.9756 H   0  0  0  0  0  0
   23.2019   44.8313  -11.1561 H   0  0  0  0  0  0
   21.8241   45.9193  -11.0563 H   0  0  0  0  0  0
   20.2035   42.1288  -10.3921 H   0  0  0  0  0  0
   19.7282   39.7668   -8.9595 H   0  0  0  0  0  0
   20.9329   38.5389   -9.1883 H   0  0  0  0  0  0
   22.1830   39.9749  -12.5220 H   0  0  0  0  0  0
   19.2917   41.4480  -12.1737 H   0  0  0  0  0  0
   18.5229   39.8889  -12.3483 H   0  0  0  0  0  0
   18.3703   39.7877   -9.9425 H   0  0  0  0  0  0
   15.8722   39.7276  -10.3186 H   0  0  0  0  0  0
   16.2906   40.3223  -11.9227 H   0  0  0  0  0  0
   15.1492   41.1958  -10.9148 H   0  0  0  0  0  0
   16.8073   40.9205   -8.2054 H   0  0  0  0  0  0
   16.0262   42.3849   -8.7138 H   0  0  0  0  0  0
   17.7522   42.3922   -8.3817 H   0  0  0  0  0  0
   18.0819   46.5997  -13.1695 H   0  0  0  0  0  0
   16.3764   46.6354  -12.8816 H   0  0  0  0  0  0
   19.3804   46.4337  -10.5011 H   0  0  0  0  0  0
   19.3089   48.1359  -10.0799 H   0  0  0  0  0  0
   19.6989   47.6556  -11.7236 H   0  0  0  0  0  0
   16.1552   48.9709  -11.9303 H   0  0  0  0  0  0
   17.7814   49.1744  -12.5656 H   0  0  0  0  0  0
   17.4242   49.6067  -10.9024 H   0  0  0  0  0  0
   15.6816   47.1827  -10.1285 H   0  0  0  0  0  0
   16.9997   47.7693   -9.1399 H   0  0  0  0  0  0
   16.9610   46.0828   -9.6209 H   0  0  0  0  0  0
  1  2  1  0  0  0
  1 43  1  0  0  0
  1 44  1  0  0  0
  1 45  1  0  0  0
  2 39  1  0  0  0
  2 21  1  0  0  0
  2  3  1  0  0  0
  3  4  1  0  0  0
  3 46  1  0  0  0
  3 47  1  0  0  0
  4  5  1  0  0  0
  4 48  1  0  0  0
  4 49  1  0  0  0
  5  6  1  0  0  0
  5 50  1  0  0  0
  5 51  1  0  0  0
  6  7  1  0  0  0
  6 52  1  0  0  0
  6 53  1  0  0  0
  7  8  1  0  0  0
  7 54  1  0  0  0
  7 55  1  0  0  0
  8  9  1  0  0  0
  8 56  1  0  0  0
  8 57  1  0  0  0
  9 10  1  0  0  0
  9 58  1  0  0  0
  9 59  1  0  0  0
 10 11  1  0  0  0
 10 60  1  0  0  0
 10 61  1  0  0  0
 11 12  2  0  0  0
 11 13  1  0  0  0
 13 14  1  0  0  0
 13 15  1  0  0  0
 14 62  1  0  0  0
 14 63  1  0  0  0
 14 64  1  0  0  0
 15 40  1  0  0  0
 15 16  1  0  0  0
 15 17  1  0  0  0
 16 65  1  0  0  0
 16 66  1  0  0  0
 16 67  1  0  0  0
 17 18  2  0  0  0
 17 19  1  0  0  0
 19 20  1  0  0  0
 19 68  1  0  0  0
 20 41  1  0  0  0
 20 21  1  0  0  0
 20 22  1  0  0  0
 21 69  1  0  0  0
 21 70  1  0  0  0
 22 42  1  0  0  0
 22 23  1  0  0  0
 22 24  1  0  0  0
 23 71  1  0  0  0
 24 25  1  0  0  0
 24 72  1  0  0  0
 24 73  1  0  0  0
 25 26  1  0  0  0
 25 74  1  0  0  0
 26 27  1  0  0  0
 26 28  1  0  0  0
 26 29  1  0  0  0
 27 75  1  0  0  0
 27 76  1  0  0  0
 27 77  1  0  0  0
 28 78  1  0  0  0
 28 79  1  0  0  0
 28 80  1  0  0  0
 29 38  1  0  0  0
 29 30  2  0  0  0
 30 31  1  0  0  0
 31 32  2  0  0  0
 32 33  1  0  0  0
 32 38  1  0  0  0
 33 34  1  0  0  0
 33 81  1  0  0  0
 33 82  1  0  0  0
 34 35  1  0  0  0
 34 36  1  0  0  0
 34 37  1  0  0  0
 35 83  1  0  0  0
 35 84  1  0  0  0
 35 85  1  0  0  0
 36 86  1  0  0  0
 36 87  1  0  0  0
 36 88  1  0  0  0
 37 89  1  0  0  0
 37 90  1  0  0  0
 37 91  1  0  0  0
M  END
> <s_m_source_file>
BACE_31.smi

> <i_m_source_file_index>
1

> <i_lp_mmshare_version>
42013

> <i_f3d_flags>
0

> <s_epik_input>
W0NIM11bQ0BASF0xW0NIMl1bQ0gyXVtDSDJdW0NIMl1bQ0gyXVtDSDJdW0NIMl1bQ0gyXUMoPU8pTihbQ0gzXSlbQ0BASF0oW0NIM10pQyg9TylbTkhdW0NAQEhdKFtDSDJdMSlbQ0BIXShbT0hdKVtDSDJdW05IXUMoW0NIM10pKFtDSDNdKWMybm5jKHMyKVtDSDJdQyhbQ0gzXSkoW0NIM10pW0NIM10=

> <s_epik_cmdline>
J2VwaWtfcHl0aG9uJywgJy1waCcsICc3LjAnLCAnLXRuJywgJzgnLCAnLW1hJywgJzIwMCcsICctaW1hZScsICc8aW5maWxlLm1hZT4nLCAnLW9tYWUnLCAnPG91dGZpbGUubWFlPic=

> <r_lp_tautomer_probability>
1

> <r_epik_Ionization_Penalty>
  0.9438

> <r_epik_Ionization_Penalty_Charging>
  0.0000

> <r_epik_Ionization_Penalty_Neutral>
  0.9438

> <r_epik_State_Penalty>
  0.9874

> <r_epik_Charging_Adjusted_Penalty>
0.987402

> <i_epik_Tot_Q>
0

> <i_epik_Tot_abs_Q>
0

> <s_lp_Force_Field>
OPLS_2005

> <r_lp_Energy>
36.7378

> <b_lp_Chiralities_Consistent>
1

> <s_lp_Variant>
BACE_31.smi:1-2

> <chiral flag>
1

> <version>
0

> <s_i_glide_gridfile>
second_dock_grid_2

> <i_i_glide_lignum>
54

> <i_i_glide_rotatable_bonds>
8

> <r_i_docking_score>
-2.91865

> <r_i_glide_ligand_efficiency>
-0.0768066

> <r_i_glide_ligand_efficiency_sa>
-0.258222

> <r_i_glide_ligand_efficiency_ln>
-0.629347

> <r_glide_XP_GScore>
-3.90605

> <r_i_glide_gscore>
-3.90605

> <r_i_glide_evdw>
-36.4019

> <r_i_glide_ecoul>
-5.74688

> <r_i_glide_energy>
-42.1488

> <r_i_glide_einternal>
11.8419

> <r_i_glide_emodel>
-51.8153

> <r_glide_XP_HBond>
-1.33

> <i_i_glide_confnum>
1

> <i_i_glide_posenum>
3

> <r_i_glide_eff_state_penalty>
0.9874

> <i_glide_XP_PoseRank>
1

$$$$
