BACE_63.smi:1
                    3D
 Structure written by MMmdl.
 99102  0  0  1  0            999 V2000
   17.8430   48.1511   -6.9579 C   0  0  0  0  0  0
   17.6255   46.8190   -7.3873 O   0  0  0  0  0  0
   17.4072   46.7181   -8.7865 C   0  0  0  0  0  0
   17.2216   45.2796   -9.2346 C   0  0  0  0  0  0
   16.4877   44.3740   -8.4413 C   0  0  0  0  0  0
   16.3059   43.0361   -8.8507 C   0  0  0  0  0  0
   16.8823   42.6064  -10.0654 C   0  0  0  0  0  0
   17.5974   43.5092  -10.8789 C   0  0  0  0  0  0
   17.7515   44.8499  -10.4693 C   0  0  0  0  0  0
   18.1320   43.0534  -12.1992 C   0  0  0  0  0  0
   17.6583   43.4985  -13.2403 O   0  0  0  0  0  0
   19.0969   42.1216  -12.2182 N   0  0  0  0  0  0
   20.0021   41.7238  -11.1389 C   0  0  1  0  0  0
   20.1832   40.1913  -11.1517 C   0  0  0  0  0  0
   19.5019   39.4743   -9.9672 C   0  0  2  0  0  0
   20.3744   39.5263   -8.6984 C   0  0  0  0  0  0
   19.1595   38.0408  -10.3972 C   0  0  0  0  0  0
   18.5220   37.1257   -9.3399 C   0  0  0  0  0  0
   17.2218   37.6329   -8.7061 C   0  0  0  0  0  0
   16.0813   37.9111   -9.6895 C   0  0  0  0  0  0
   14.8375   38.5156   -9.0223 C   0  0  0  0  0  0
   14.7812   40.0491   -9.0716 C   0  0  0  0  0  0
   15.7347   40.7449   -8.0853 C   0  0  0  0  0  0
   15.5394   42.1865   -8.0399 N   0  0  0  0  0  0
   21.3133   42.5259  -11.2910 C   0  0  2  0  0  0
   22.0599   42.1501  -12.4398 O   0  0  0  0  0  0
   22.2189   42.5067  -10.0526 C   0  0  0  0  0  0
   23.2150   41.4096  -10.1230 N   0  3  0  0  0  0
   24.3820   41.4396   -9.2135 C   0  0  1  0  0  0
   25.6651   41.2455  -10.0395 C   0  0  0  0  0  0
   26.3006   42.5655  -10.5279 C   0  0  0  0  0  0
   27.7081   42.2678  -11.0701 C   0  0  0  0  0  0
   25.4846   43.2665  -11.6288 C   0  0  0  0  0  0
   26.4793   43.4906   -9.4555 O   0  0  0  0  0  0
   25.4917   43.6226   -8.5002 C   0  0  0  0  0  0
   25.5835   44.7156   -7.6163 C   0  0  0  0  0  0
   24.6716   44.8623   -6.5538 C   0  0  0  0  0  0
   23.6537   43.9070   -6.3521 C   0  0  0  0  0  0
   23.5540   42.8161   -7.2400 C   0  0  0  0  0  0
   24.4608   42.6692   -8.3148 C   0  0  0  0  0  0
   22.6816   44.0546   -5.1878 C   0  0  0  0  0  0
   21.2710   44.4150   -5.6800 C   0  0  0  0  0  0
   22.6607   42.8052   -4.2890 C   0  0  0  0  0  0
   19.5734   42.0103  -10.1781 H   0  0  0  0  0  0
   18.5598   39.9781   -9.7542 H   0  0  0  0  0  0
   21.0318   43.5709  -11.4403 H   0  0  0  0  0  0
   24.2751   40.5708   -8.5624 H   0  0  0  0  0  0
   17.9709   48.1696   -5.8756 H   0  0  0  0  0  0
   17.0003   48.7945   -7.2077 H   0  0  0  0  0  0
   18.7447   48.5670   -7.4083 H   0  0  0  0  0  0
   18.2549   47.1540   -9.3194 H   0  0  0  0  0  0
   16.5178   47.2848   -9.0668 H   0  0  0  0  0  0
   16.0615   44.7091   -7.5071 H   0  0  0  0  0  0
   16.7623   41.5897  -10.4038 H   0  0  0  0  0  0
   18.2906   45.5458  -11.0974 H   0  0  0  0  0  0
   19.3531   41.7823  -13.1308 H   0  0  0  0  0  0
   21.2344   39.9075  -11.1784 H   0  0  0  0  0  0
   19.7842   39.8026  -12.0909 H   0  0  0  0  0  0
   19.8711   39.0661   -7.8487 H   0  0  0  0  0  0
   20.5894   40.5513   -8.4013 H   0  0  0  0  0  0
   21.3239   39.0068   -8.8411 H   0  0  0  0  0  0
   18.4795   38.1147  -11.2399 H   0  0  0  0  0  0
   20.0598   37.5609  -10.7746 H   0  0  0  0  0  0
   18.3352   36.1498   -9.7856 H   0  0  0  0  0  0
   19.2454   36.9515   -8.5478 H   0  0  0  0  0  0
   16.8694   36.8528   -8.0394 H   0  0  0  0  0  0
   17.4303   38.4970   -8.0797 H   0  0  0  0  0  0
   16.4074   38.5660  -10.4960 H   0  0  0  0  0  0
   15.8053   36.9615  -10.1478 H   0  0  0  0  0  0
   13.9610   38.1493   -9.5546 H   0  0  0  0  0  0
   14.7259   38.1577   -7.9972 H   0  0  0  0  0  0
   13.7606   40.3376   -8.8409 H   0  0  0  0  0  0
   14.9461   40.3923  -10.0916 H   0  0  0  0  0  0
   15.5573   40.3571   -7.0808 H   0  0  0  0  0  0
   16.7749   40.5285   -8.3169 H   0  0  0  0  0  0
   15.2624   42.5440   -7.1247 H   0  0  0  0  0  0
   22.2714   41.2247  -12.4475 H   0  0  0  0  0  0
   21.6248   42.4446   -9.1399 H   0  0  0  0  0  0
   22.7226   43.4711  -10.0136 H   0  0  0  0  0  0
   23.5968   41.4496  -11.0605 H   0  0  0  0  0  0
   26.3956   40.7343   -9.4197 H   0  0  0  0  0  0
   25.4989   40.5513  -10.8635 H   0  0  0  0  0  0
   27.6709   41.5818  -11.9170 H   0  0  0  0  0  0
   28.3401   41.8115  -10.3077 H   0  0  0  0  0  0
   28.2051   43.1783  -11.4053 H   0  0  0  0  0  0
   25.2784   42.5914  -12.4530 H   0  0  0  0  0  0
   26.0272   44.1214  -12.0344 H   0  0  0  0  0  0
   24.5339   43.6471  -11.2703 H   0  0  0  0  0  0
   26.3769   45.4378   -7.7426 H   0  0  0  0  0  0
   24.7705   45.7021   -5.8820 H   0  0  0  0  0  0
   22.7849   42.0729   -7.0856 H   0  0  0  0  0  0
   23.0324   44.8822   -4.5696 H   0  0  0  0  0  0
   21.2837   45.3316   -6.2690 H   0  0  0  0  0  0
   20.5915   44.5700   -4.8412 H   0  0  0  0  0  0
   20.8493   43.6245   -6.3030 H   0  0  0  0  0  0
   23.6605   42.5605   -3.9280 H   0  0  0  0  0  0
   22.2736   41.9301   -4.8141 H   0  0  0  0  0  0
   22.0284   42.9677   -3.4153 H   0  0  0  0  0  0
   22.7489   40.5207  -10.0115 H   0  0  0  0  0  0
  1  2  1  0  0  0
  1 48  1  0  0  0
  1 49  1  0  0  0
  1 50  1  0  0  0
  2  3  1  0  0  0
  3  4  1  0  0  0
  3 51  1  0  0  0
  3 52  1  0  0  0
  4  9  1  0  0  0
  4  5  2  0  0  0
  5  6  1  0  0  0
  5 53  1  0  0  0
  6 24  1  0  0  0
  6  7  2  0  0  0
  7  8  1  0  0  0
  7 54  1  0  0  0
  8  9  2  0  0  0
  8 10  1  0  0  0
  9 55  1  0  0  0
 10 11  2  0  0  0
 10 12  1  0  0  0
 12 13  1  0  0  0
 12 56  1  0  0  0
 13 44  1  0  0  0
 13 14  1  0  0  0
 13 25  1  0  0  0
 14 15  1  0  0  0
 14 57  1  0  0  0
 14 58  1  0  0  0
 15 45  1  0  0  0
 15 16  1  0  0  0
 15 17  1  0  0  0
 16 59  1  0  0  0
 16 60  1  0  0  0
 16 61  1  0  0  0
 17 18  1  0  0  0
 17 62  1  0  0  0
 17 63  1  0  0  0
 18 19  1  0  0  0
 18 64  1  0  0  0
 18 65  1  0  0  0
 19 20  1  0  0  0
 19 66  1  0  0  0
 19 67  1  0  0  0
 20 21  1  0  0  0
 20 68  1  0  0  0
 20 69  1  0  0  0
 21 22  1  0  0  0
 21 70  1  0  0  0
 21 71  1  0  0  0
 22 23  1  0  0  0
 22 72  1  0  0  0
 22 73  1  0  0  0
 23 24  1  0  0  0
 23 74  1  0  0  0
 23 75  1  0  0  0
 24 76  1  0  0  0
 25 46  1  0  0  0
 25 26  1  0  0  0
 25 27  1  0  0  0
 26 77  1  0  0  0
 27 28  1  0  0  0
 27 78  1  0  0  0
 27 79  1  0  0  0
 28 29  1  0  0  0
 28 80  1  0  0  0
 28 99  1  0  0  0
 29 47  1  0  0  0
 29 40  1  0  0  0
 29 30  1  0  0  0
 30 31  1  0  0  0
 30 81  1  0  0  0
 30 82  1  0  0  0
 31 32  1  0  0  0
 31 33  1  0  0  0
 31 34  1  0  0  0
 32 83  1  0  0  0
 32 84  1  0  0  0
 32 85  1  0  0  0
 33 86  1  0  0  0
 33 87  1  0  0  0
 33 88  1  0  0  0
 34 35  1  0  0  0
 35 40  2  0  0  0
 35 36  1  0  0  0
 36 37  2  0  0  0
 36 89  1  0  0  0
 37 38  1  0  0  0
 37 90  1  0  0  0
 38 39  2  0  0  0
 38 41  1  0  0  0
 39 40  1  0  0  0
 39 91  1  0  0  0
 41 42  1  0  0  0
 41 43  1  0  0  0
 41 92  1  0  0  0
 42 93  1  0  0  0
 42 94  1  0  0  0
 42 95  1  0  0  0
 43 96  1  0  0  0
 43 97  1  0  0  0
 43 98  1  0  0  0
M  CHG  1  28   1
M  END
> <s_m_source_file>
BACE_63.smi

> <i_m_source_file_index>
1

> <i_lp_mmshare_version>
42013

> <i_f3d_flags>
0

> <s_epik_input>
W2NIXTFbY0hdYyhbQ0hdKFtDSDNdKVtDSDNdKVtjSF1jKGMxMilbQ0BIXShbQ0gyXUMoTzIpKFtDSDNdKVtDSDNdKVtOSF1bQ0gyXVtDQEBIXShbT0hdKVtDQEBIXShbTkhdQyg9TyljKFtjSF0zKVtjSF1jKFtjSF1jMzQpW0NIMl1PW0NIM10pW0NIMl1bQ0BIXShbQ0gzXSlbQ0gyXVtDSDJdW0NIMl1bQ0gyXVtDSDJdW0NIMl1bQ0gyXVtOSF00

> <s_epik_cmdline>
J2VwaWtfcHl0aG9uJywgJy1waCcsICc3LjAnLCAnLXRuJywgJzgnLCAnLW1hJywgJzIwMCcsICctaW1hZScsICc8aW5maWxlLm1hZT4nLCAnLW9tYWUnLCAnPG91dGZpbGUubWFlPic=

> <r_lp_tautomer_probability>
1

> <r_epik_Ionization_Penalty>
  0.0176

> <r_epik_Ionization_Penalty_Charging>
  0.0170

> <r_epik_Ionization_Penalty_Neutral>
  0.0006

> <r_epik_State_Penalty>
  0.0135

> <r_epik_Charging_Adjusted_Penalty>
0.0305184

> <i_epik_Tot_Q>
1

> <i_epik_Tot_abs_Q>
1

> <s_lp_Force_Field>
OPLS_2005

> <r_lp_Energy>
47.065

> <b_lp_Chiralities_Consistent>
1

> <s_lp_Variant>
BACE_63.smi:1-1

> <chiral flag>
1

> <version>
0

> <s_i_glide_gridfile>
second_dock_grid_2

> <i_i_glide_lignum>
125

> <i_i_glide_rotatable_bonds>
8

> <r_i_docking_score>
-5.95879

> <r_i_glide_ligand_efficiency>
-0.138577

> <r_i_glide_ligand_efficiency_sa>
-0.485489

> <r_i_glide_ligand_efficiency_ln>
-1.25153

> <r_glide_XP_GScore>
-5.97229

> <r_i_glide_gscore>
-5.97229

> <r_i_glide_evdw>
-41.3875

> <r_i_glide_ecoul>
-13.3151

> <r_i_glide_energy>
-54.7026

> <r_i_glide_einternal>
7.83749

> <r_i_glide_emodel>
-77.6291

> <r_glide_XP_HBond>
-1.88644

> <i_i_glide_confnum>
1

> <i_i_glide_posenum>
5

> <r_i_glide_eff_state_penalty>
0.0135

> <i_glide_XP_PoseRank>
1

$$$$
BACE_63.smi:1
                    3D
 Structure written by MMmdl.
 98101  0  0  1  0            999 V2000
   19.4163   48.2644   -8.4147 C   0  0  0  0  0  0
   18.7457   47.0806   -8.8078 O   0  0  0  0  0  0
   19.6421   46.0049   -9.0533 C   0  0  0  0  0  0
   18.9109   44.7330   -9.4349 C   0  0  0  0  0  0
   17.7604   44.3421   -8.7179 C   0  0  0  0  0  0
   17.0810   43.1514   -9.0424 C   0  0  0  0  0  0
   17.5826   42.3397  -10.0874 C   0  0  0  0  0  0
   18.7269   42.7232  -10.8108 C   0  0  0  0  0  0
   19.3912   43.9236  -10.4850 C   0  0  0  0  0  0
   19.1994   41.8772  -11.9513 C   0  0  0  0  0  0
   18.8600   42.1526  -13.0964 O   0  0  0  0  0  0
   19.9876   40.8228  -11.6948 N   0  0  0  0  0  0
   20.4881   40.3262  -10.4112 C   0  0  1  0  0  0
   20.0419   38.8485  -10.2771 C   0  0  0  0  0  0
   18.9505   38.6248   -9.2132 C   0  0  2  0  0  0
   19.5548   38.6031   -7.7964 C   0  0  0  0  0  0
   18.1701   37.3412   -9.5511 C   0  0  0  0  0  0
   17.0544   36.9384   -8.5834 C   0  0  0  0  0  0
   16.0047   38.0265   -8.3155 C   0  0  0  0  0  0
   15.2613   38.5226   -9.5629 C   0  0  0  0  0  0
   14.1346   39.5198   -9.2361 C   0  0  0  0  0  0
   14.5502   40.9992   -9.3187 C   0  0  0  0  0  0
   15.5406   41.4236   -8.2205 C   0  0  0  0  0  0
   15.9255   42.8235   -8.3170 N   0  0  0  0  0  0
   22.0252   40.4948  -10.3480 C   0  0  2  0  0  0
   22.4609   39.9536   -9.1164 O   0  0  0  0  0  0
   22.4721   41.9748  -10.4276 C   0  0  0  0  0  0
   23.8676   42.1501  -10.8400 N   0  0  0  0  0  0
   24.9319   41.8528   -9.8746 C   0  0  1  0  0  0
   26.2429   41.5665  -10.6227 C   0  0  0  0  0  0
   27.0608   42.8351  -10.9534 C   0  0  0  0  0  0
   28.4404   42.4206  -11.4910 C   0  0  0  0  0  0
   26.3721   43.7550  -11.9800 C   0  0  0  0  0  0
   27.3199   43.5941   -9.7742 O   0  0  0  0  0  0
   26.3062   43.7507   -8.8520 C   0  0  0  0  0  0
   26.5038   44.7010   -7.8309 C   0  0  0  0  0  0
   25.5615   44.8561   -6.7968 C   0  0  0  0  0  0
   24.4057   44.0501   -6.7645 C   0  0  0  0  0  0
   24.2018   43.1009   -7.7888 C   0  0  0  0  0  0
   25.1343   42.9500   -8.8401 C   0  0  0  0  0  0
   23.4062   44.1898   -5.6225 C   0  0  0  0  0  0
   22.0474   44.7026   -6.1213 C   0  0  0  0  0  0
   23.2591   42.8829   -4.8260 C   0  0  0  0  0  0
   20.0693   40.8996   -9.5837 H   0  0  0  0  0  0
   18.2467   39.4559   -9.2699 H   0  0  0  0  0  0
   22.4612   39.9205  -11.1651 H   0  0  0  0  0  0
   24.6940   40.9378   -9.3358 H   0  0  0  0  0  0
   18.6853   49.0601   -8.2599 H   0  0  0  0  0  0
   20.1183   48.5949   -9.1820 H   0  0  0  0  0  0
   19.9596   48.1184   -7.4784 H   0  0  0  0  0  0
   20.2271   45.8036   -8.1541 H   0  0  0  0  0  0
   20.3441   46.2783   -9.8445 H   0  0  0  0  0  0
   17.3989   44.9663   -7.9146 H   0  0  0  0  0  0
   17.0968   41.4165  -10.3613 H   0  0  0  0  0  0
   20.2681   44.2239  -11.0410 H   0  0  0  0  0  0
   20.2588   40.2786  -12.5001 H   0  0  0  0  0  0
   20.8855   38.1944  -10.0532 H   0  0  0  0  0  0
   19.6845   38.4884  -11.2428 H   0  0  0  0  0  0
   18.7850   38.5251   -7.0291 H   0  0  0  0  0  0
   20.1143   39.5154   -7.5910 H   0  0  0  0  0  0
   20.2352   37.7615   -7.6680 H   0  0  0  0  0  0
   17.7245   37.4662  -10.5320 H   0  0  0  0  0  0
   18.8600   36.5083   -9.6394 H   0  0  0  0  0  0
   17.5117   36.6341   -7.6437 H   0  0  0  0  0  0
   16.5531   36.0504   -8.9676 H   0  0  0  0  0  0
   16.4669   38.8378   -7.7624 H   0  0  0  0  0  0
   15.2585   37.6209   -7.6399 H   0  0  0  0  0  0
   15.9464   38.9558  -10.2921 H   0  0  0  0  0  0
   14.8291   37.6444  -10.0399 H   0  0  0  0  0  0
   13.3202   39.3608   -9.9389 H   0  0  0  0  0  0
   13.7011   39.3029   -8.2585 H   0  0  0  0  0  0
   13.6601   41.6215   -9.2401 H   0  0  0  0  0  0
   14.9479   41.2024  -10.3108 H   0  0  0  0  0  0
   16.4451   40.8233   -8.2524 H   0  0  0  0  0  0
   15.0969   41.2562   -7.2363 H   0  0  0  0  0  0
   15.7512   43.3396   -7.4598 H   0  0  0  0  0  0
   23.3362   39.6067   -9.2365 H   0  0  0  0  0  0
   22.2411   42.5094   -9.5100 H   0  0  0  0  0  0
   21.8748   42.4726  -11.1878 H   0  0  0  0  0  0
   24.0465   41.6554  -11.7182 H   0  0  0  0  0  0
   26.8588   40.9442   -9.9728 H   0  0  0  0  0  0
   26.0643   40.9655  -11.5142 H   0  0  0  0  0  0
   28.3500   41.8408  -12.4109 H   0  0  0  0  0  0
   28.9790   41.8073  -10.7685 H   0  0  0  0  0  0
   29.0603   43.2913  -11.7067 H   0  0  0  0  0  0
   26.1262   43.2113  -12.8911 H   0  0  0  0  0  0
   27.0173   44.5903  -12.2538 H   0  0  0  0  0  0
   25.4506   44.1861  -11.5897 H   0  0  0  0  0  0
   27.3982   45.3060   -7.8323 H   0  0  0  0  0  0
   25.7413   45.5828   -6.0172 H   0  0  0  0  0  0
   23.3418   42.4519   -7.7374 H   0  0  0  0  0  0
   23.7983   44.9374   -4.9315 H   0  0  0  0  0  0
   22.1591   45.6577   -6.6354 H   0  0  0  0  0  0
   21.3558   44.8515   -5.2915 H   0  0  0  0  0  0
   21.5854   44.0010   -6.8168 H   0  0  0  0  0  0
   24.2231   42.5514   -4.4399 H   0  0  0  0  0  0
   22.8493   42.0772   -5.4372 H   0  0  0  0  0  0
   22.5959   43.0177   -3.9705 H   0  0  0  0  0  0
  1  2  1  0  0  0
  1 48  1  0  0  0
  1 49  1  0  0  0
  1 50  1  0  0  0
  2  3  1  0  0  0
  3  4  1  0  0  0
  3 51  1  0  0  0
  3 52  1  0  0  0
  4  9  1  0  0  0
  4  5  2  0  0  0
  5  6  1  0  0  0
  5 53  1  0  0  0
  6 24  1  0  0  0
  6  7  2  0  0  0
  7  8  1  0  0  0
  7 54  1  0  0  0
  8  9  2  0  0  0
  8 10  1  0  0  0
  9 55  1  0  0  0
 10 11  2  0  0  0
 10 12  1  0  0  0
 12 13  1  0  0  0
 12 56  1  0  0  0
 13 44  1  0  0  0
 13 14  1  0  0  0
 13 25  1  0  0  0
 14 15  1  0  0  0
 14 57  1  0  0  0
 14 58  1  0  0  0
 15 45  1  0  0  0
 15 16  1  0  0  0
 15 17  1  0  0  0
 16 59  1  0  0  0
 16 60  1  0  0  0
 16 61  1  0  0  0
 17 18  1  0  0  0
 17 62  1  0  0  0
 17 63  1  0  0  0
 18 19  1  0  0  0
 18 64  1  0  0  0
 18 65  1  0  0  0
 19 20  1  0  0  0
 19 66  1  0  0  0
 19 67  1  0  0  0
 20 21  1  0  0  0
 20 68  1  0  0  0
 20 69  1  0  0  0
 21 22  1  0  0  0
 21 70  1  0  0  0
 21 71  1  0  0  0
 22 23  1  0  0  0
 22 72  1  0  0  0
 22 73  1  0  0  0
 23 24  1  0  0  0
 23 74  1  0  0  0
 23 75  1  0  0  0
 24 76  1  0  0  0
 25 46  1  0  0  0
 25 26  1  0  0  0
 25 27  1  0  0  0
 26 77  1  0  0  0
 27 28  1  0  0  0
 27 78  1  0  0  0
 27 79  1  0  0  0
 28 29  1  0  0  0
 28 80  1  0  0  0
 29 47  1  0  0  0
 29 40  1  0  0  0
 29 30  1  0  0  0
 30 31  1  0  0  0
 30 81  1  0  0  0
 30 82  1  0  0  0
 31 32  1  0  0  0
 31 33  1  0  0  0
 31 34  1  0  0  0
 32 83  1  0  0  0
 32 84  1  0  0  0
 32 85  1  0  0  0
 33 86  1  0  0  0
 33 87  1  0  0  0
 33 88  1  0  0  0
 34 35  1  0  0  0
 35 40  2  0  0  0
 35 36  1  0  0  0
 36 37  2  0  0  0
 36 89  1  0  0  0
 37 38  1  0  0  0
 37 90  1  0  0  0
 38 39  2  0  0  0
 38 41  1  0  0  0
 39 40  1  0  0  0
 39 91  1  0  0  0
 41 42  1  0  0  0
 41 43  1  0  0  0
 41 92  1  0  0  0
 42 93  1  0  0  0
 42 94  1  0  0  0
 42 95  1  0  0  0
 43 96  1  0  0  0
 43 97  1  0  0  0
 43 98  1  0  0  0
M  END
> <s_m_source_file>
BACE_63.smi

> <i_m_source_file_index>
1

> <i_lp_mmshare_version>
42013

> <i_f3d_flags>
0

> <s_epik_input>
W2NIXTFbY0hdYyhbQ0hdKFtDSDNdKVtDSDNdKVtjSF1jKGMxMilbQ0BIXShbQ0gyXUMoTzIpKFtDSDNdKVtDSDNdKVtOSF1bQ0gyXVtDQEBIXShbT0hdKVtDQEBIXShbTkhdQyg9TyljKFtjSF0zKVtjSF1jKFtjSF1jMzQpW0NIMl1PW0NIM10pW0NIMl1bQ0BIXShbQ0gzXSlbQ0gyXVtDSDJdW0NIMl1bQ0gyXVtDSDJdW0NIMl1bQ0gyXVtOSF00

> <s_epik_cmdline>
J2VwaWtfcHl0aG9uJywgJy1waCcsICc3LjAnLCAnLXRuJywgJzgnLCAnLW1hJywgJzIwMCcsICctaW1hZScsICc8aW5maWxlLm1hZT4nLCAnLW9tYWUnLCAnPG91dGZpbGUubWFlPic=

> <r_lp_tautomer_probability>
1

> <r_epik_Ionization_Penalty>
  2.1118

> <r_epik_Ionization_Penalty_Charging>
  0.0000

> <r_epik_Ionization_Penalty_Neutral>
  2.1118

> <r_epik_State_Penalty>
  2.2481

> <r_epik_Charging_Adjusted_Penalty>
2.24811

> <i_epik_Tot_Q>
0

> <i_epik_Tot_abs_Q>
0

> <s_lp_Force_Field>
OPLS_2005

> <r_lp_Energy>
51.1507

> <b_lp_Chiralities_Consistent>
1

> <s_lp_Variant>
BACE_63.smi:1-2

> <chiral flag>
1

> <version>
0

> <s_i_glide_gridfile>
second_dock_grid_2

> <i_i_glide_lignum>
126

> <i_i_glide_rotatable_bonds>
8

> <r_i_docking_score>
-2.57204

> <r_i_glide_ligand_efficiency>
-0.0598149

> <r_i_glide_ligand_efficiency_sa>
-0.209555

> <r_i_glide_ligand_efficiency_ln>
-0.540209

> <r_glide_XP_GScore>
-4.82014

> <r_i_glide_gscore>
-4.82014

> <r_i_glide_evdw>
-40.5272

> <r_i_glide_ecoul>
-11.2828

> <r_i_glide_energy>
-51.81

> <r_i_glide_einternal>
5.79756

> <r_i_glide_emodel>
-68.4404

> <r_glide_XP_HBond>
-1.51152

> <i_i_glide_confnum>
1

> <i_i_glide_posenum>
11

> <r_i_glide_eff_state_penalty>
2.2481

> <i_glide_XP_PoseRank>
1

$$$$
BACE_64.smi:1
                    3D
 Structure written by MMmdl.
 83 85  0  0  1  0            999 V2000
   20.6749   41.4787   -2.2141 C   0  0  0  0  0  0
   21.7650   41.1834   -3.2589 C   0  0  0  0  0  0
   22.5314   42.4412   -3.7122 C   0  0  0  0  0  0
   21.7336   43.3567   -4.5830 C   0  0  0  0  0  0
   20.4592   43.3056   -5.0664 C   0  0  0  0  0  0
   20.3497   44.4669   -5.8767 C   0  0  0  0  0  0
   19.1760   44.8914   -6.7195 C   0  0  0  0  0  0
   18.3967   43.7476   -7.2111 N   0  0  0  0  0  0
   19.1170   42.8298   -8.0971 C   0  0  0  0  0  0
   19.3063   43.3893   -9.5161 C   0  0  1  0  0  0
   20.3687   44.3295   -9.5256 O   0  0  0  0  0  0
   19.6354   42.2556  -10.5259 C   0  0  2  0  0  0
   21.1395   41.8561  -10.5132 C   0  0  0  0  0  0
   21.5390   40.4473  -11.0227 C   0  0  2  0  0  0
   20.6723   39.8849  -12.1626 C   0  0  0  0  0  0
   21.8229   39.4439   -9.8779 C   0  0  0  0  0  0
   20.6220   39.0615   -8.9931 C   0  0  0  0  0  0
   19.9145   37.7826   -9.4605 C   0  0  0  0  0  0
   18.5628   37.5203   -8.7840 C   0  0  0  0  0  0
   17.4806   38.5108   -9.2284 C   0  0  0  0  0  0
   16.0863   38.1486   -8.7023 C   0  0  0  0  0  0
   15.0769   39.2928   -8.8604 C   0  0  0  0  0  0
   14.8571   39.6524  -10.2548 N   0  0  0  0  0  0
   15.2561   40.9618  -10.5313 C   0  0  0  0  0  0
   14.4346   42.0248  -10.1116 C   0  0  0  0  0  0
   14.7930   43.3538  -10.4015 C   0  0  0  0  0  0
   13.8977   44.4851   -9.9421 C   0  0  0  0  0  0
   14.0605   44.8329   -8.5710 O   0  0  0  0  0  0
   15.3468   45.3391   -8.2594 C   0  0  0  0  0  0
   15.9693   43.6182  -11.1339 C   0  0  0  0  0  0
   16.8107   42.5657  -11.5368 C   0  0  0  0  0  0
   16.4519   41.2326  -11.2341 C   0  0  0  0  0  0
   18.0178   42.8763  -12.3716 C   0  0  0  0  0  0
   17.8578   43.3502  -13.4924 O   0  0  0  0  0  0
   19.2448   42.6524  -11.8765 N   0  0  0  0  0  0
   21.4542   45.1930   -5.8416 N   0  0  0  0  0  0
   22.3471   44.4858   -5.0215 O   0  0  0  0  0  0
   18.3930   43.9132   -9.7927 H   0  0  0  0  0  0
   19.0388   41.3842  -10.2687 H   0  0  0  0  0  0
   22.5175   40.5910  -11.4782 H   0  0  0  0  0  0
   20.2541   40.5564   -1.8153 H   0  0  0  0  0  0
   19.8517   42.0518   -2.6338 H   0  0  0  0  0  0
   21.0731   42.0573   -1.3817 H   0  0  0  0  0  0
   22.4793   40.4793   -2.8425 H   0  0  0  0  0  0
   21.3301   40.6739   -4.1226 H   0  0  0  0  0  0
   22.8888   42.9894   -2.8391 H   0  0  0  0  0  0
   23.4224   42.1320   -4.2611 H   0  0  0  0  0  0
   19.7220   42.5370   -4.9036 H   0  0  0  0  0  0
   18.5266   45.5336   -6.1230 H   0  0  0  0  0  0
   19.5079   45.5175   -7.5462 H   0  0  0  0  0  0
   18.0494   43.2163   -6.4153 H   0  0  0  0  0  0
   20.0693   42.5147   -7.6704 H   0  0  0  0  0  0
   18.5228   41.9199   -8.1648 H   0  0  0  0  0  0
   20.4679   44.6629  -10.4015 H   0  0  0  0  0  0
   21.6965   42.5959  -11.0917 H   0  0  0  0  0  0
   21.5311   41.9629   -9.5016 H   0  0  0  0  0  0
   19.6451   39.6976  -11.8491 H   0  0  0  0  0  0
   21.0837   38.9504  -12.5347 H   0  0  0  0  0  0
   20.6458   40.5723  -13.0078 H   0  0  0  0  0  0
   22.2853   38.5420  -10.2785 H   0  0  0  0  0  0
   22.5874   39.8801   -9.2344 H   0  0  0  0  0  0
   20.9753   38.8901   -7.9737 H   0  0  0  0  0  0
   19.9326   39.8954   -8.9136 H   0  0  0  0  0  0
   19.7782   37.7787  -10.5399 H   0  0  0  0  0  0
   20.5814   36.9523   -9.2401 H   0  0  0  0  0  0
   18.2332   36.5113   -9.0327 H   0  0  0  0  0  0
   18.6678   37.5502   -7.6978 H   0  0  0  0  0  0
   17.7383   39.5147   -8.8912 H   0  0  0  0  0  0
   17.4500   38.5430  -10.3194 H   0  0  0  0  0  0
   15.7217   37.2489   -9.1953 H   0  0  0  0  0  0
   16.1562   37.9079   -7.6418 H   0  0  0  0  0  0
   14.1203   38.9802   -8.4365 H   0  0  0  0  0  0
   15.4010   40.1494   -8.2658 H   0  0  0  0  0  0
   13.8709   39.5205  -10.4526 H   0  0  0  0  0  0
   13.5255   41.8214   -9.5634 H   0  0  0  0  0  0
   14.0644   45.3496  -10.5844 H   0  0  0  0  0  0
   12.8603   44.1901  -10.0939 H   0  0  0  0  0  0
   15.3522   45.7270   -7.2401 H   0  0  0  0  0  0
   15.6342   46.1511   -8.9283 H   0  0  0  0  0  0
   16.0985   44.5530   -8.3204 H   0  0  0  0  0  0
   16.2313   44.6399  -11.3701 H   0  0  0  0  0  0
   17.0731   40.4152  -11.5724 H   0  0  0  0  0  0
   20.0112   42.8514  -12.4993 H   0  0  0  0  0  0
  1  2  1  0  0  0
  1 41  1  0  0  0
  1 42  1  0  0  0
  1 43  1  0  0  0
  2  3  1  0  0  0
  2 44  1  0  0  0
  2 45  1  0  0  0
  3  4  1  0  0  0
  3 46  1  0  0  0
  3 47  1  0  0  0
  4 37  1  0  0  0
  4  5  2  0  0  0
  5  6  1  0  0  0
  5 48  1  0  0  0
  6  7  1  0  0  0
  6 36  2  0  0  0
  7  8  1  0  0  0
  7 49  1  0  0  0
  7 50  1  0  0  0
  8  9  1  0  0  0
  8 51  1  0  0  0
  9 10  1  0  0  0
  9 52  1  0  0  0
  9 53  1  0  0  0
 10 38  1  0  0  0
 10 11  1  0  0  0
 10 12  1  0  0  0
 11 54  1  0  0  0
 12 39  1  0  0  0
 12 35  1  0  0  0
 12 13  1  0  0  0
 13 14  1  0  0  0
 13 55  1  0  0  0
 13 56  1  0  0  0
 14 40  1  0  0  0
 14 15  1  0  0  0
 14 16  1  0  0  0
 15 57  1  0  0  0
 15 58  1  0  0  0
 15 59  1  0  0  0
 16 17  1  0  0  0
 16 60  1  0  0  0
 16 61  1  0  0  0
 17 18  1  0  0  0
 17 62  1  0  0  0
 17 63  1  0  0  0
 18 19  1  0  0  0
 18 64  1  0  0  0
 18 65  1  0  0  0
 19 20  1  0  0  0
 19 66  1  0  0  0
 19 67  1  0  0  0
 20 21  1  0  0  0
 20 68  1  0  0  0
 20 69  1  0  0  0
 21 22  1  0  0  0
 21 70  1  0  0  0
 21 71  1  0  0  0
 22 23  1  0  0  0
 22 72  1  0  0  0
 22 73  1  0  0  0
 23 24  1  0  0  0
 23 74  1  0  0  0
 24 32  1  0  0  0
 24 25  2  0  0  0
 25 26  1  0  0  0
 25 75  1  0  0  0
 26 27  1  0  0  0
 26 30  2  0  0  0
 27 28  1  0  0  0
 27 76  1  0  0  0
 27 77  1  0  0  0
 28 29  1  0  0  0
 29 78  1  0  0  0
 29 79  1  0  0  0
 29 80  1  0  0  0
 30 31  1  0  0  0
 30 81  1  0  0  0
 31 32  2  0  0  0
 31 33  1  0  0  0
 32 82  1  0  0  0
 33 34  2  0  0  0
 33 35  1  0  0  0
 35 83  1  0  0  0
 36 37  1  0  0  0
M  END
> <s_m_source_file>
BACE_64.smi

> <i_m_source_file_index>
1

> <i_lp_mmshare_version>
42013

> <i_f3d_flags>
0

> <s_epik_input>
W0NIM11bQ0gyXVtDSDJdYzFbY0hdYyhubzEpW0NIMl1bTkhdW0NIMl1bQ0BASF0oW09IXSlbQ0BASF0oW05IXUMoPU8pYyhbY0hdMilbY0hdYyhbY0hdYzIzKVtDSDJdT1tDSDNdKVtDSDJdW0NASF0oW0NIM10pW0NIMl1bQ0gyXVtDSDJdW0NIMl1bQ0gyXVtDSDJdW0NIMl1bTkhdMw==

> <s_epik_cmdline>
J2VwaWtfcHl0aG9uJywgJy1waCcsICc3LjAnLCAnLXRuJywgJzgnLCAnLW1hJywgJzIwMCcsICctaW1hZScsICc8aW5maWxlLm1hZT4nLCAnLW9tYWUnLCAnPG91dGZpbGUubWFlPic=

> <r_epik_Ionization_Penalty>
  0.2730

> <r_epik_Ionization_Penalty_Charging>
  0.0000

> <r_epik_Ionization_Penalty_Neutral>
  0.2730

> <r_epik_State_Penalty>
  0.2646

> <r_epik_Charging_Adjusted_Penalty>
0.264593

> <i_epik_Tot_Q>
0

> <i_epik_Tot_abs_Q>
0

> <s_lp_Force_Field>
OPLS_2005

> <r_lp_Energy>
39.1756

> <b_lp_Chiralities_Consistent>
1

> <s_lp_Variant>
BACE_64.smi:1-1

> <chiral flag>
1

> <version>
0

> <s_i_glide_gridfile>
second_dock_grid_2

> <i_i_glide_lignum>
127

> <i_i_glide_rotatable_bonds>
10

> <r_i_docking_score>
-5.2165

> <r_i_glide_ligand_efficiency>
-0.140987

> <r_i_glide_ligand_efficiency_sa>
-0.469798

> <r_i_glide_ligand_efficiency_ln>
-1.13134

> <r_glide_XP_GScore>
-5.4811

> <r_i_glide_gscore>
-5.4811

> <r_i_glide_evdw>
-43.3843

> <r_i_glide_ecoul>
-10.9729

> <r_i_glide_energy>
-54.3572

> <r_i_glide_einternal>
6.96972

> <r_i_glide_emodel>
-74.4621

> <r_glide_XP_HBond>
-1.1576

> <i_i_glide_confnum>
1

> <i_i_glide_posenum>
5

> <r_i_glide_eff_state_penalty>
0.2646

> <i_glide_XP_PoseRank>
1

$$$$
BACE_64.smi:1
                    3D
 Structure written by MMmdl.
 84 86  0  0  1  0            999 V2000
   15.6465   46.8888  -12.7280 C   0  0  0  0  0  0
   16.6248   47.7466  -11.9175 C   0  0  0  0  0  0
   17.6416   46.9017  -11.1335 C   0  0  0  0  0  0
   17.0217   45.9102  -10.2019 C   0  0  0  0  0  0
   17.1175   44.5528  -10.0677 C   0  0  0  0  0  0
   16.2587   44.2593   -8.9735 C   0  0  0  0  0  0
   15.9475   42.9231   -8.3665 C   0  0  0  0  0  0
   16.8604   42.6521   -7.2405 N   0  3  0  0  0  0
   18.2102   42.2207   -7.6519 C   0  0  0  0  0  0
   18.6650   42.9442   -8.9329 C   0  0  1  0  0  0
   19.6219   43.9225   -8.5717 O   0  0  0  0  0  0
   19.2631   41.9608   -9.9809 C   0  0  2  0  0  0
   20.7400   41.5656   -9.6864 C   0  0  0  0  0  0
   21.2820   40.2328  -10.2802 C   0  0  2  0  0  0
   20.6670   39.8016  -11.6244 C   0  0  0  0  0  0
   21.3849   39.0858   -9.2425 C   0  0  0  0  0  0
   20.0713   38.6252   -8.5854 C   0  0  0  0  0  0
   19.3313   37.5100   -9.3503 C   0  0  0  0  0  0
   17.8919   37.2895   -8.8564 C   0  0  0  0  0  0
   16.9481   38.4062   -9.3243 C   0  0  0  0  0  0
   15.5258   38.3116   -8.7617 C   0  0  0  0  0  0
   14.7355   39.6151   -8.9597 C   0  0  0  0  0  0
   14.4599   39.8999  -10.3618 N   0  0  0  0  0  0
   14.9204   41.1533  -10.7801 C   0  0  0  0  0  0
   14.0232   42.2387  -10.8119 C   0  0  0  0  0  0
   14.4555   43.5073  -11.2478 C   0  0  0  0  0  0
   13.4909   44.6783  -11.2744 C   0  0  0  0  0  0
   12.4098   44.4984  -10.3736 O   0  0  0  0  0  0
   12.8117   43.9127   -9.1477 C   0  0  0  0  0  0
   15.7976   43.6883  -11.6389 C   0  0  0  0  0  0
   16.7115   42.6128  -11.6028 C   0  0  0  0  0  0
   16.2624   41.3418  -11.1796 C   0  0  0  0  0  0
   18.1119   42.8309  -12.1059 C   0  0  0  0  0  0
   18.2758   43.3515  -13.2069 O   0  0  0  0  0  0
   19.1719   42.5083  -11.3382 N   0  0  0  0  0  0
   15.6867   45.3500   -8.4917 N   0  0  0  0  0  0
   16.1695   46.4088   -9.2686 O   0  0  0  0  0  0
   17.8010   43.4649   -9.3430 H   0  0  0  0  0  0
   18.6684   41.0521   -9.9578 H   0  0  0  0  0  0
   22.3250   40.4452  -10.5210 H   0  0  0  0  0  0
   14.9389   47.5157  -13.2711 H   0  0  0  0  0  0
   15.0734   46.2251  -12.0799 H   0  0  0  0  0  0
   16.1736   46.2731  -13.4576 H   0  0  0  0  0  0
   17.1519   48.4207  -12.5939 H   0  0  0  0  0  0
   16.0609   48.3761  -11.2279 H   0  0  0  0  0  0
   18.2868   46.3719  -11.8353 H   0  0  0  0  0  0
   18.2945   47.5623  -10.5618 H   0  0  0  0  0  0
   17.7120   43.8738  -10.6608 H   0  0  0  0  0  0
   14.9173   42.9028   -8.0089 H   0  0  0  0  0  0
   16.0417   42.1311   -9.1114 H   0  0  0  0  0  0
   16.9430   43.4945   -6.6894 H   0  0  0  0  0  0
   18.9152   42.3842   -6.8359 H   0  0  0  0  0  0
   18.1735   41.1464   -7.8318 H   0  0  0  0  0  0
   19.9369   44.3401   -9.3597 H   0  0  0  0  0  0
   21.3809   42.3778  -10.0335 H   0  0  0  0  0  0
   20.9032   41.5409   -8.6088 H   0  0  0  0  0  0
   19.5937   39.6307  -11.5534 H   0  0  0  0  0  0
   21.1243   38.8802  -11.9854 H   0  0  0  0  0  0
   20.8298   40.5605  -12.3898 H   0  0  0  0  0  0
   21.8948   38.2282   -9.6837 H   0  0  0  0  0  0
   22.0486   39.4263   -8.4467 H   0  0  0  0  0  0
   20.2995   38.2411   -7.5906 H   0  0  0  0  0  0
   19.4336   39.4872   -8.4096 H   0  0  0  0  0  0
   19.3108   37.7131  -10.4192 H   0  0  0  0  0  0
   19.8941   36.5825   -9.2404 H   0  0  0  0  0  0
   17.5231   36.3350   -9.2337 H   0  0  0  0  0  0
   17.8837   37.2136   -7.7686 H   0  0  0  0  0  0
   17.3566   39.3704   -9.0351 H   0  0  0  0  0  0
   16.9077   38.4026  -10.4135 H   0  0  0  0  0  0
   14.9971   37.4694   -9.2096 H   0  0  0  0  0  0
   15.5785   38.1069   -7.6920 H   0  0  0  0  0  0
   13.7764   39.5319   -8.4481 H   0  0  0  0  0  0
   15.2611   40.4452   -8.4837 H   0  0  0  0  0  0
   13.4829   39.7557  -10.5757 H   0  0  0  0  0  0
   12.9972   42.0962  -10.5043 H   0  0  0  0  0  0
   14.0431   45.5832  -11.0173 H   0  0  0  0  0  0
   13.1052   44.8080  -12.2869 H   0  0  0  0  0  0
   11.9442   43.7908   -8.4990 H   0  0  0  0  0  0
   13.5345   44.5428   -8.6277 H   0  0  0  0  0  0
   13.2541   42.9285   -9.3062 H   0  0  0  0  0  0
   16.1261   44.6608  -11.9773 H   0  0  0  0  0  0
   16.9378   40.5016  -11.2009 H   0  0  0  0  0  0
   20.0682   42.6935  -11.7650 H   0  0  0  0  0  0
   16.4562   41.9284   -6.6632 H   0  0  0  0  0  0
  1  2  1  0  0  0
  1 41  1  0  0  0
  1 42  1  0  0  0
  1 43  1  0  0  0
  2  3  1  0  0  0
  2 44  1  0  0  0
  2 45  1  0  0  0
  3  4  1  0  0  0
  3 46  1  0  0  0
  3 47  1  0  0  0
  4 37  1  0  0  0
  4  5  2  0  0  0
  5  6  1  0  0  0
  5 48  1  0  0  0
  6  7  1  0  0  0
  6 36  2  0  0  0
  7  8  1  0  0  0
  7 49  1  0  0  0
  7 50  1  0  0  0
  8  9  1  0  0  0
  8 51  1  0  0  0
  8 84  1  0  0  0
  9 10  1  0  0  0
  9 52  1  0  0  0
  9 53  1  0  0  0
 10 38  1  0  0  0
 10 11  1  0  0  0
 10 12  1  0  0  0
 11 54  1  0  0  0
 12 39  1  0  0  0
 12 35  1  0  0  0
 12 13  1  0  0  0
 13 14  1  0  0  0
 13 55  1  0  0  0
 13 56  1  0  0  0
 14 40  1  0  0  0
 14 15  1  0  0  0
 14 16  1  0  0  0
 15 57  1  0  0  0
 15 58  1  0  0  0
 15 59  1  0  0  0
 16 17  1  0  0  0
 16 60  1  0  0  0
 16 61  1  0  0  0
 17 18  1  0  0  0
 17 62  1  0  0  0
 17 63  1  0  0  0
 18 19  1  0  0  0
 18 64  1  0  0  0
 18 65  1  0  0  0
 19 20  1  0  0  0
 19 66  1  0  0  0
 19 67  1  0  0  0
 20 21  1  0  0  0
 20 68  1  0  0  0
 20 69  1  0  0  0
 21 22  1  0  0  0
 21 70  1  0  0  0
 21 71  1  0  0  0
 22 23  1  0  0  0
 22 72  1  0  0  0
 22 73  1  0  0  0
 23 24  1  0  0  0
 23 74  1  0  0  0
 24 32  1  0  0  0
 24 25  2  0  0  0
 25 26  1  0  0  0
 25 75  1  0  0  0
 26 27  1  0  0  0
 26 30  2  0  0  0
 27 28  1  0  0  0
 27 76  1  0  0  0
 27 77  1  0  0  0
 28 29  1  0  0  0
 29 78  1  0  0  0
 29 79  1  0  0  0
 29 80  1  0  0  0
 30 31  1  0  0  0
 30 81  1  0  0  0
 31 32  2  0  0  0
 31 33  1  0  0  0
 32 82  1  0  0  0
 33 34  2  0  0  0
 33 35  1  0  0  0
 35 83  1  0  0  0
 36 37  1  0  0  0
M  CHG  1   8   1
M  END
> <s_m_source_file>
BACE_64.smi

> <i_m_source_file_index>
1

> <i_lp_mmshare_version>
42013

> <i_f3d_flags>
0

> <s_epik_input>
W0NIM11bQ0gyXVtDSDJdYzFbY0hdYyhubzEpW0NIMl1bTkhdW0NIMl1bQ0BASF0oW09IXSlbQ0BASF0oW05IXUMoPU8pYyhbY0hdMilbY0hdYyhbY0hdYzIzKVtDSDJdT1tDSDNdKVtDSDJdW0NASF0oW0NIM10pW0NIMl1bQ0gyXVtDSDJdW0NIMl1bQ0gyXVtDSDJdW0NIMl1bTkhdMw==

> <s_epik_cmdline>
J2VwaWtfcHl0aG9uJywgJy1waCcsICc3LjAnLCAnLXRuJywgJzgnLCAnLW1hJywgJzIwMCcsICctaW1hZScsICc8aW5maWxlLm1hZT4nLCAnLW9tYWUnLCAnPG91dGZpbGUubWFlPic=

> <r_epik_Ionization_Penalty>
  0.5920

> <r_epik_Ionization_Penalty_Charging>
  0.5914

> <r_epik_Ionization_Penalty_Neutral>
  0.0006

> <r_epik_State_Penalty>
  0.6050

> <r_epik_Charging_Adjusted_Penalty>
1.19641

> <i_epik_Tot_Q>
1

> <i_epik_Tot_abs_Q>
1

> <s_lp_Force_Field>
OPLS_2005

> <r_lp_Energy>
39.21

> <b_lp_Chiralities_Consistent>
1

> <s_lp_Variant>
BACE_64.smi:1-2

> <chiral flag>
1

> <version>
0

> <s_i_glide_gridfile>
second_dock_grid_2

> <i_i_glide_lignum>
128

> <i_i_glide_rotatable_bonds>
10

> <r_i_docking_score>
-5.92963

> <r_i_glide_ligand_efficiency>
-0.16026

> <r_i_glide_ligand_efficiency_sa>
-0.534022

> <r_i_glide_ligand_efficiency_ln>
-1.286

> <r_glide_XP_GScore>
-6.53463

> <r_i_glide_gscore>
-6.53463

> <r_i_glide_evdw>
-33.5205

> <r_i_glide_ecoul>
-17.2684

> <r_i_glide_energy>
-50.7889

> <r_i_glide_einternal>
5.24219

> <r_i_glide_emodel>
-78.9759

> <r_glide_XP_HBond>
-0.758842

> <i_i_glide_confnum>
1

> <i_i_glide_posenum>
2

> <r_i_glide_eff_state_penalty>
0.605

> <i_glide_XP_PoseRank>
1

$$$$
BACE_65.smi:1
                    3D
 Structure written by MMmdl.
 81 83  0  0  1  0            999 V2000
   19.8474   42.3673   -1.9382 C   0  0  0  0  0  0
   20.4604   41.1911   -2.4463 O   0  0  0  0  0  0
   21.7998   41.3869   -2.8822 C   0  0  0  0  0  0
   21.9147   42.1586   -4.1837 C   0  0  0  0  0  0
   23.0546   42.9394   -4.4399 C   0  0  0  0  0  0
   23.1560   43.7134   -5.6133 C   0  0  0  0  0  0
   22.1127   43.6531   -6.5641 C   0  0  0  0  0  0
   21.0098   42.7977   -6.3622 C   0  0  0  0  0  0
   20.9057   42.0796   -5.1552 C   0  0  0  0  0  0
   19.9665   42.6750   -7.4284 C   0  0  0  0  0  0
   19.1875   43.6036   -7.6241 O   0  0  0  0  0  0
   19.9274   41.5667   -8.1986 N   0  0  0  0  0  0
   20.7296   40.3297   -8.2014 C   0  0  1  0  0  0
   22.2645   40.5820   -8.2374 C   0  0  0  0  0  0
   22.7885   41.5404   -9.3292 C   0  0  2  0  0  0
   22.4795   40.9944  -10.7316 C   0  0  0  0  0  0
   24.3024   41.7574   -9.1109 C   0  0  0  0  0  0
   24.9716   42.7454  -10.0849 C   0  0  0  0  0  0
   26.4026   43.1469   -9.6767 C   0  0  0  0  0  0
   26.5567   43.9060   -8.3375 C   0  0  0  0  0  0
   26.0693   45.3691   -8.3496 C   0  0  0  0  0  0
   24.5728   45.5853   -8.0457 C   0  0  0  0  0  0
   24.2153   45.7437   -6.5546 C   0  0  0  0  0  0
   24.2999   44.5058   -5.7876 N   0  0  0  0  0  0
   20.2929   39.3148   -7.1024 C   0  0  2  0  0  0
   21.1744   38.2157   -7.1331 O   0  0  0  0  0  0
   18.8692   38.7282   -7.2354 C   0  0  0  0  0  0
   17.8106   39.7489   -7.0882 N   0  3  0  0  0  0
   16.4445   39.2275   -6.8771 C   0  0  0  0  0  0
   15.8645   38.5506   -8.1300 C   0  0  0  0  0  0
   15.7307   39.5416   -9.2686 C   0  0  0  0  0  0
   14.5195   40.2271   -9.4583 C   0  0  0  0  0  0
   14.4500   41.2204  -10.4481 C   0  0  0  0  0  0
   15.4943   41.5444  -11.2400 N   0  0  0  0  0  0
   16.6499   40.8664  -11.0712 C   0  0  0  0  0  0
   16.8225   39.8568  -10.1045 C   0  0  0  0  0  0
   20.4815   39.8505   -9.1493 H   0  0  0  0  0  0
   22.2990   42.5083   -9.2291 H   0  0  0  0  0  0
   20.4108   39.7350   -6.1112 H   0  0  0  0  0  0
   18.8296   42.1415   -1.6259 H   0  0  0  0  0  0
   19.7931   43.1546   -2.6909 H   0  0  0  0  0  0
   20.3856   42.7546   -1.0728 H   0  0  0  0  0  0
   22.3693   41.8993   -2.1051 H   0  0  0  0  0  0
   22.2601   40.4106   -3.0258 H   0  0  0  0  0  0
   23.8440   42.9473   -3.7075 H   0  0  0  0  0  0
   22.1607   44.2235   -7.4780 H   0  0  0  0  0  0
   20.0600   41.4523   -4.9556 H   0  0  0  0  0  0
   19.2600   41.6329   -8.9523 H   0  0  0  0  0  0
   22.6006   40.9185   -7.2580 H   0  0  0  0  0  0
   22.7828   39.6341   -8.3822 H   0  0  0  0  0  0
   22.9282   40.0104  -10.8510 H   0  0  0  0  0  0
   22.8588   41.6483  -11.5155 H   0  0  0  0  0  0
   21.4088   40.9018  -10.9048 H   0  0  0  0  0  0
   24.4324   42.1134   -8.0910 H   0  0  0  0  0  0
   24.8288   40.8016   -9.1606 H   0  0  0  0  0  0
   25.0252   42.2789  -11.0684 H   0  0  0  0  0  0
   24.3570   43.6328  -10.2286 H   0  0  0  0  0  0
   27.0101   42.2408   -9.6412 H   0  0  0  0  0  0
   26.8399   43.7452  -10.4755 H   0  0  0  0  0  0
   26.1148   43.3572   -7.5085 H   0  0  0  0  0  0
   27.6242   43.9284   -8.1150 H   0  0  0  0  0  0
   26.6556   45.9463   -7.6330 H   0  0  0  0  0  0
   26.3018   45.8037   -9.3225 H   0  0  0  0  0  0
   24.2736   46.5097   -8.5408 H   0  0  0  0  0  0
   23.9659   44.8111   -8.5035 H   0  0  0  0  0  0
   24.8772   46.4801   -6.0960 H   0  0  0  0  0  0
   23.2095   46.1543   -6.4621 H   0  0  0  0  0  0
   24.9124   44.5474   -4.9786 H   0  0  0  0  0  0
   21.1202   37.7906   -7.9791 H   0  0  0  0  0  0
   18.7572   38.2150   -8.1892 H   0  0  0  0  0  0
   18.7270   37.9771   -6.4563 H   0  0  0  0  0  0
   18.0165   40.3158   -6.2663 H   0  0  0  0  0  0
   16.4638   38.5500   -6.0386 H   0  0  0  0  0  0
   15.7997   40.0539   -6.5760 H   0  0  0  0  0  0
   16.4695   37.7000   -8.4409 H   0  0  0  0  0  0
   14.8806   38.1440   -7.8896 H   0  0  0  0  0  0
   13.6601   40.0084   -8.8408 H   0  0  0  0  0  0
   13.5356   41.7711  -10.6076 H   0  0  0  0  0  0
   17.4638   41.1370  -11.7281 H   0  0  0  0  0  0
   17.7687   39.3461  -10.0188 H   0  0  0  0  0  0
   17.8027   40.3611   -7.8907 H   0  0  0  0  0  0
  1  2  1  0  0  0
  1 40  1  0  0  0
  1 41  1  0  0  0
  1 42  1  0  0  0
  2  3  1  0  0  0
  3  4  1  0  0  0
  3 43  1  0  0  0
  3 44  1  0  0  0
  4  9  1  0  0  0
  4  5  2  0  0  0
  5  6  1  0  0  0
  5 45  1  0  0  0
  6 24  1  0  0  0
  6  7  2  0  0  0
  7  8  1  0  0  0
  7 46  1  0  0  0
  8  9  2  0  0  0
  8 10  1  0  0  0
  9 47  1  0  0  0
 10 11  2  0  0  0
 10 12  1  0  0  0
 12 13  1  0  0  0
 12 48  1  0  0  0
 13 37  1  0  0  0
 13 14  1  0  0  0
 13 25  1  0  0  0
 14 15  1  0  0  0
 14 49  1  0  0  0
 14 50  1  0  0  0
 15 38  1  0  0  0
 15 16  1  0  0  0
 15 17  1  0  0  0
 16 51  1  0  0  0
 16 52  1  0  0  0
 16 53  1  0  0  0
 17 18  1  0  0  0
 17 54  1  0  0  0
 17 55  1  0  0  0
 18 19  1  0  0  0
 18 56  1  0  0  0
 18 57  1  0  0  0
 19 20  1  0  0  0
 19 58  1  0  0  0
 19 59  1  0  0  0
 20 21  1  0  0  0
 20 60  1  0  0  0
 20 61  1  0  0  0
 21 22  1  0  0  0
 21 62  1  0  0  0
 21 63  1  0  0  0
 22 23  1  0  0  0
 22 64  1  0  0  0
 22 65  1  0  0  0
 23 24  1  0  0  0
 23 66  1  0  0  0
 23 67  1  0  0  0
 24 68  1  0  0  0
 25 39  1  0  0  0
 25 26  1  0  0  0
 25 27  1  0  0  0
 26 69  1  0  0  0
 27 28  1  0  0  0
 27 70  1  0  0  0
 27 71  1  0  0  0
 28 29  1  0  0  0
 28 72  1  0  0  0
 28 81  1  0  0  0
 29 30  1  0  0  0
 29 73  1  0  0  0
 29 74  1  0  0  0
 30 31  1  0  0  0
 30 75  1  0  0  0
 30 76  1  0  0  0
 31 36  1  0  0  0
 31 32  2  0  0  0
 32 33  1  0  0  0
 32 77  1  0  0  0
 33 34  2  0  0  0
 33 78  1  0  0  0
 34 35  1  0  0  0
 35 36  2  0  0  0
 35 79  1  0  0  0
 36 80  1  0  0  0
M  CHG  1  28   1
M  END
> <s_m_source_file>
BACE_65.smi

> <i_m_source_file_index>
1

> <i_lp_mmshare_version>
42013

> <i_f3d_flags>
0

> <s_epik_input>
W05IXTFbQ0gyXVtDSDJdW0NIMl1bQ0gyXVtDSDJdW0NIMl1bQ0gyXVtDQEBIXShbQ0gzXSlbQ0gyXVtDQEhdKFtOSF1DKD1PKWMoW2NIXTIpW2NIXWMoW2NIXWMxMilbQ0gyXU9bQ0gzXSlbQ0BIXShbT0hdKVtDSDJdW05IXVtDSDJdW0NIMl1jM1tjSF1bY0hdbltjSF1bY0hdMw==

> <s_epik_cmdline>
J2VwaWtfcHl0aG9uJywgJy1waCcsICc3LjAnLCAnLXRuJywgJzgnLCAnLW1hJywgJzIwMCcsICctaW1hZScsICc8aW5maWxlLm1hZT4nLCAnLW9tYWUnLCAnPG91dGZpbGUubWFlPic=

> <r_epik_Ionization_Penalty>
  0.0114

> <r_epik_Ionization_Penalty_Charging>
  0.0094

> <r_epik_Ionization_Penalty_Neutral>
  0.0019

> <r_epik_State_Penalty>
  0.0072

> <r_epik_Charging_Adjusted_Penalty>
0.016608

> <i_epik_Tot_Q>
1

> <i_epik_Tot_abs_Q>
1

> <s_lp_Force_Field>
OPLS_2005

> <r_lp_Energy>
37.6189

> <b_lp_Chiralities_Consistent>
1

> <s_lp_Variant>
BACE_65.smi:1-1

> <chiral flag>
1

> <version>
0

> <s_i_glide_gridfile>
second_dock_grid_2

> <i_i_glide_lignum>
129

> <i_i_glide_rotatable_bonds>
9

> <r_i_docking_score>
-5.63543

> <r_i_glide_ligand_efficiency>
-0.15654

> <r_i_glide_ligand_efficiency_sa>
-0.516883

> <r_i_glide_ligand_efficiency_ln>
-1.2295

> <r_glide_XP_GScore>
-5.64263

> <r_i_glide_gscore>
-5.64263

> <r_i_glide_evdw>
-37.4293

> <r_i_glide_ecoul>
-17.1651

> <r_i_glide_energy>
-54.5944

> <r_i_glide_einternal>
6.85986

> <r_i_glide_emodel>
-71.7569

> <r_glide_XP_HBond>
0

> <i_i_glide_confnum>
1

> <i_i_glide_posenum>
47

> <r_i_glide_eff_state_penalty>
0.0072

> <i_glide_XP_PoseRank>
1

$$$$
BACE_65.smi:1
                    3D
 Structure written by MMmdl.
 80 82  0  0  1  0            999 V2000
   22.4955   41.1712   -4.2689 C   0  0  0  0  0  0
   21.7714   40.9947   -5.4778 O   0  0  0  0  0  0
   22.0732   39.7730   -6.1274 C   0  0  0  0  0  0
   21.1484   39.5169   -7.2996 C   0  0  0  0  0  0
   19.8748   38.9508   -7.0844 C   0  0  0  0  0  0
   19.0065   38.6991   -8.1657 C   0  0  0  0  0  0
   19.4145   39.0615   -9.4734 C   0  0  0  0  0  0
   20.6624   39.6901   -9.6887 C   0  0  0  0  0  0
   21.5489   39.8648   -8.6059 C   0  0  0  0  0  0
   21.0301   40.1560  -11.0673 C   0  0  0  0  0  0
   21.0864   39.3508  -11.9920 O   0  0  0  0  0  0
   21.2598   41.4656  -11.2971 N   0  0  0  0  0  0
   21.0688   42.6752  -10.4771 C   0  0  1  0  0  0
   19.7562   42.7161   -9.6427 C   0  0  0  0  0  0
   18.4218   42.4377  -10.3779 C   0  0  2  0  0  0
   18.0847   43.5628  -11.3748 C   0  0  0  0  0  0
   17.3121   42.2290   -9.3209 C   0  0  0  0  0  0
   15.9094   41.9119   -9.8755 C   0  0  0  0  0  0
   14.8820   41.5375   -8.7854 C   0  0  0  0  0  0
   15.1359   40.2342   -7.9920 C   0  0  0  0  0  0
   14.8353   38.9211   -8.7483 C   0  0  0  0  0  0
   15.9741   38.3788   -9.6390 C   0  0  0  0  0  0
   16.9744   37.4503   -8.9239 C   0  0  0  0  0  0
   17.7572   38.1146   -7.8949 N   0  0  0  0  0  0
   22.3098   43.0564   -9.6180 C   0  0  2  0  0  0
   22.1434   44.4042   -9.2255 O   0  0  0  0  0  0
   23.6858   43.0254  -10.3199 C   0  0  0  0  0  0
   24.2409   41.6756  -10.4392 N   0  0  0  0  0  0
   25.6946   41.6071  -10.2652 C   0  0  0  0  0  0
   26.4733   42.4543  -11.2885 C   0  0  0  0  0  0
   27.9664   42.4210  -11.0353 C   0  0  0  0  0  0
   28.8441   41.7806  -11.9319 C   0  0  0  0  0  0
   30.2225   41.8056  -11.6481 C   0  0  0  0  0  0
   30.7488   42.3899  -10.5490 N   0  0  0  0  0  0
   29.9037   43.0109   -9.7013 C   0  0  0  0  0  0
   28.5097   43.0572   -9.9014 C   0  0  0  0  0  0
   20.9802   43.4600  -11.2281 H   0  0  0  0  0  0
   18.5066   41.5099  -10.9417 H   0  0  0  0  0  0
   22.3469   42.4658   -8.7026 H   0  0  0  0  0  0
   22.2243   42.1239   -3.8153 H   0  0  0  0  0  0
   23.5745   41.1820   -4.4396 H   0  0  0  0  0  0
   22.2740   40.3815   -3.5506 H   0  0  0  0  0  0
   23.1108   39.7852   -6.4674 H   0  0  0  0  0  0
   21.9808   38.9509   -5.4210 H   0  0  0  0  0  0
   19.5715   38.7019   -6.0769 H   0  0  0  0  0  0
   18.7582   38.9072  -10.3140 H   0  0  0  0  0  0
   22.5307   40.2844   -8.7725 H   0  0  0  0  0  0
   21.5598   41.6511  -12.2403 H   0  0  0  0  0  0
   19.8508   42.0339   -8.7997 H   0  0  0  0  0  0
   19.6683   43.6957   -9.1753 H   0  0  0  0  0  0
   17.9484   44.5170  -10.8633 H   0  0  0  0  0  0
   17.1726   43.3473  -11.9307 H   0  0  0  0  0  0
   18.8757   43.6911  -12.1129 H   0  0  0  0  0  0
   17.6235   41.4104   -8.6740 H   0  0  0  0  0  0
   17.2472   43.1051   -8.6745 H   0  0  0  0  0  0
   15.5334   42.7967  -10.3882 H   0  0  0  0  0  0
   15.9593   41.1436  -10.6434 H   0  0  0  0  0  0
   14.8354   42.3609   -8.0711 H   0  0  0  0  0  0
   13.8950   41.4857   -9.2406 H   0  0  0  0  0  0
   16.1284   40.2191   -7.5441 H   0  0  0  0  0  0
   14.4608   40.2590   -7.1361 H   0  0  0  0  0  0
   14.5698   38.1511   -8.0188 H   0  0  0  0  0  0
   13.9338   39.0610   -9.3449 H   0  0  0  0  0  0
   15.5135   37.8029  -10.4400 H   0  0  0  0  0  0
   16.5100   39.1804  -10.1360 H   0  0  0  0  0  0
   16.4368   36.6297   -8.4469 H   0  0  0  0  0  0
   17.6409   36.9914   -9.6540 H   0  0  0  0  0  0
   17.4914   37.9013   -6.9394 H   0  0  0  0  0  0
   22.8117   44.6109   -8.5875 H   0  0  0  0  0  0
   23.6287   43.4984  -11.3010 H   0  0  0  0  0  0
   24.3677   43.6357   -9.7261 H   0  0  0  0  0  0
   24.0033   41.2934  -11.3557 H   0  0  0  0  0  0
   25.9459   41.9314   -9.2531 H   0  0  0  0  0  0
   26.0160   40.5629  -10.3353 H   0  0  0  0  0  0
   26.2647   42.1209  -12.3041 H   0  0  0  0  0  0
   26.1677   43.4985  -11.2437 H   0  0  0  0  0  0
   28.4838   41.2812  -12.8190 H   0  0  0  0  0  0
   30.9296   41.3504  -12.3250 H   0  0  0  0  0  0
   30.3533   43.4820   -8.8391 H   0  0  0  0  0  0
   27.8795   43.5720   -9.1901 H   0  0  0  0  0  0
  1  2  1  0  0  0
  1 40  1  0  0  0
  1 41  1  0  0  0
  1 42  1  0  0  0
  2  3  1  0  0  0
  3  4  1  0  0  0
  3 43  1  0  0  0
  3 44  1  0  0  0
  4  9  1  0  0  0
  4  5  2  0  0  0
  5  6  1  0  0  0
  5 45  1  0  0  0
  6 24  1  0  0  0
  6  7  2  0  0  0
  7  8  1  0  0  0
  7 46  1  0  0  0
  8  9  2  0  0  0
  8 10  1  0  0  0
  9 47  1  0  0  0
 10 11  2  0  0  0
 10 12  1  0  0  0
 12 13  1  0  0  0
 12 48  1  0  0  0
 13 37  1  0  0  0
 13 14  1  0  0  0
 13 25  1  0  0  0
 14 15  1  0  0  0
 14 49  1  0  0  0
 14 50  1  0  0  0
 15 38  1  0  0  0
 15 16  1  0  0  0
 15 17  1  0  0  0
 16 51  1  0  0  0
 16 52  1  0  0  0
 16 53  1  0  0  0
 17 18  1  0  0  0
 17 54  1  0  0  0
 17 55  1  0  0  0
 18 19  1  0  0  0
 18 56  1  0  0  0
 18 57  1  0  0  0
 19 20  1  0  0  0
 19 58  1  0  0  0
 19 59  1  0  0  0
 20 21  1  0  0  0
 20 60  1  0  0  0
 20 61  1  0  0  0
 21 22  1  0  0  0
 21 62  1  0  0  0
 21 63  1  0  0  0
 22 23  1  0  0  0
 22 64  1  0  0  0
 22 65  1  0  0  0
 23 24  1  0  0  0
 23 66  1  0  0  0
 23 67  1  0  0  0
 24 68  1  0  0  0
 25 39  1  0  0  0
 25 26  1  0  0  0
 25 27  1  0  0  0
 26 69  1  0  0  0
 27 28  1  0  0  0
 27 70  1  0  0  0
 27 71  1  0  0  0
 28 29  1  0  0  0
 28 72  1  0  0  0
 29 30  1  0  0  0
 29 73  1  0  0  0
 29 74  1  0  0  0
 30 31  1  0  0  0
 30 75  1  0  0  0
 30 76  1  0  0  0
 31 36  1  0  0  0
 31 32  2  0  0  0
 32 33  1  0  0  0
 32 77  1  0  0  0
 33 34  2  0  0  0
 33 78  1  0  0  0
 34 35  1  0  0  0
 35 36  2  0  0  0
 35 79  1  0  0  0
 36 80  1  0  0  0
M  END
> <s_m_source_file>
BACE_65.smi

> <i_m_source_file_index>
1

> <i_lp_mmshare_version>
42013

> <i_f3d_flags>
0

> <s_epik_input>
W05IXTFbQ0gyXVtDSDJdW0NIMl1bQ0gyXVtDSDJdW0NIMl1bQ0gyXVtDQEBIXShbQ0gzXSlbQ0gyXVtDQEhdKFtOSF1DKD1PKWMoW2NIXTIpW2NIXWMoW2NIXWMxMilbQ0gyXU9bQ0gzXSlbQ0BIXShbT0hdKVtDSDJdW05IXVtDSDJdW0NIMl1jM1tjSF1bY0hdbltjSF1bY0hdMw==

> <s_epik_cmdline>
J2VwaWtfcHl0aG9uJywgJy1waCcsICc3LjAnLCAnLXRuJywgJzgnLCAnLW1hJywgJzIwMCcsICctaW1hZScsICc8aW5maWxlLm1hZT4nLCAnLW9tYWUnLCAnPG91dGZpbGUubWFlPic=

> <r_epik_Ionization_Penalty>
  2.5509

> <r_epik_Ionization_Penalty_Charging>
  0.0000

> <r_epik_Ionization_Penalty_Neutral>
  2.5509

> <r_epik_State_Penalty>
  2.6192

> <r_epik_Charging_Adjusted_Penalty>
2.61919

> <i_epik_Tot_Q>
0

> <i_epik_Tot_abs_Q>
0

> <s_lp_Force_Field>
OPLS_2005

> <r_lp_Energy>
45.489

> <b_lp_Chiralities_Consistent>
1

> <s_lp_Variant>
BACE_65.smi:1-2

> <chiral flag>
1

> <version>
0

> <s_i_glide_gridfile>
second_dock_grid_2

> <i_i_glide_lignum>
130

> <i_i_glide_rotatable_bonds>
9

> <r_i_docking_score>
-2.00104

> <r_i_glide_ligand_efficiency>
-0.0555843

> <r_i_glide_ligand_efficiency_sa>
-0.183535

> <r_i_glide_ligand_efficiency_ln>
-0.436572

> <r_glide_XP_GScore>
-4.62024

> <r_i_glide_gscore>
-4.62024

> <r_i_glide_evdw>
-45.2269

> <r_i_glide_ecoul>
-4.46294

> <r_i_glide_energy>
-49.6899

> <r_i_glide_einternal>
5.94113

> <r_i_glide_emodel>
-69.017

> <r_glide_XP_HBond>
0

> <i_i_glide_confnum>
1

> <i_i_glide_posenum>
1

> <r_i_glide_eff_state_penalty>
2.6192

> <i_glide_XP_PoseRank>
1

$$$$
BACE_66.smi:1
                    3D
 Structure written by MMmdl.
 83 85  0  0  1  0            999 V2000
   28.2211   46.1163   -9.9944 C   0  0  0  0  0  0
   27.6932   45.1067   -8.9600 C   0  0  0  0  0  0
   28.7049   44.8753   -7.8272 C   0  0  0  0  0  0
   27.2690   43.7938   -9.6061 C   0  0  0  0  0  0
   25.9499   43.3238   -9.4424 C   0  0  0  0  0  0
   25.5470   42.1011  -10.0258 C   0  0  0  0  0  0
   24.1252   41.6192   -9.8691 C   0  0  0  0  0  0
   23.9609   40.5537   -8.8530 N   0  3  0  0  0  0
   22.5385   40.2857   -8.5239 C   0  0  0  0  0  0
   21.8107   39.5187   -9.6541 C   0  0  1  0  0  0
   22.0600   38.1501   -9.4308 O   0  0  0  0  0  0
   20.2781   39.7997   -9.7326 C   0  0  2  0  0  0
   19.3954   38.7574   -9.0023 C   0  0  0  0  0  0
   17.9269   39.1752   -8.7412 C   0  0  2  0  0  0
   17.4320   38.5433   -7.4268 C   0  0  0  0  0  0
   16.9842   38.8233   -9.9195 C   0  0  0  0  0  0
   15.5651   39.4180   -9.8094 C   0  0  0  0  0  0
   15.5904   40.9311   -9.8188 C   0  0  0  0  0  0
   15.4141   41.7054   -8.7346 C   0  0  0  0  0  0
   15.5648   43.2108   -8.7571 C   0  0  0  0  0  0
   16.9692   43.6436   -8.2863 C   0  0  0  0  0  0
   17.5736   44.7358   -9.1865 C   0  0  0  0  0  0
   19.0088   44.9021   -8.9949 N   0  0  0  0  0  0
   19.8885   44.2270   -9.8594 C   0  0  0  0  0  0
   21.1276   44.8286  -10.1622 C   0  0  0  0  0  0
   22.0244   44.2133  -11.0589 C   0  0  0  0  0  0
   23.3468   44.8783  -11.3915 C   0  0  0  0  0  0
   23.2384   45.8118  -12.4410 O   0  0  0  0  0  0
   21.6929   42.9721  -11.6384 C   0  0  0  0  0  0
   20.4826   42.3334  -11.3064 C   0  0  0  0  0  0
   19.5728   42.9771  -10.4413 C   0  0  0  0  0  0
   20.1246   41.0224  -11.9413 C   0  0  0  0  0  0
   20.0604   40.9469  -13.1662 O   0  0  0  0  0  0
   19.8847   39.9660  -11.1385 N   0  0  0  0  0  0
   26.4635   41.3577  -10.7895 C   0  0  0  0  0  0
   27.7788   41.8262  -10.9668 C   0  0  0  0  0  0
   28.1837   43.0346  -10.3687 C   0  0  0  0  0  0
   22.2640   39.7567  -10.6166 H   0  0  0  0  0  0
   20.0921   40.7400   -9.2217 H   0  0  0  0  0  0
   17.9192   40.2559   -8.5888 H   0  0  0  0  0  0
   27.4750   46.3168  -10.7642 H   0  0  0  0  0  0
   29.1241   45.7563  -10.4883 H   0  0  0  0  0  0
   28.4658   47.0687   -9.5195 H   0  0  0  0  0  0
   26.8067   45.5545   -8.5114 H   0  0  0  0  0  0
   28.2898   44.2150   -7.0650 H   0  0  0  0  0  0
   28.9667   45.8162   -7.3387 H   0  0  0  0  0  0
   29.6267   44.4264   -8.1978 H   0  0  0  0  0  0
   25.2449   43.9008   -8.8633 H   0  0  0  0  0  0
   23.5114   42.4710   -9.5856 H   0  0  0  0  0  0
   23.7769   41.2784  -10.8407 H   0  0  0  0  0  0
   24.3966   39.6940   -9.1909 H   0  0  0  0  0  0
   22.4812   39.7343   -7.5823 H   0  0  0  0  0  0
   22.0533   41.2437   -8.3279 H   0  0  0  0  0  0
   22.9643   37.9576   -9.6400 H   0  0  0  0  0  0
   19.4273   37.7921   -9.5140 H   0  0  0  0  0  0
   19.8678   38.5777   -8.0338 H   0  0  0  0  0  0
   17.4296   37.4569   -7.4927 H   0  0  0  0  0  0
   16.4244   38.8626   -7.1664 H   0  0  0  0  0  0
   18.0642   38.8230   -6.5839 H   0  0  0  0  0  0
   17.4161   39.1675  -10.8577 H   0  0  0  0  0  0
   16.9085   37.7385  -10.0192 H   0  0  0  0  0  0
   14.9596   39.0861  -10.6530 H   0  0  0  0  0  0
   15.0533   39.0586   -8.9181 H   0  0  0  0  0  0
   15.8305   41.3909  -10.7657 H   0  0  0  0  0  0
   15.2274   41.2509   -7.7693 H   0  0  0  0  0  0
   15.3806   43.5546   -9.7750 H   0  0  0  0  0  0
   14.7906   43.6620   -8.1326 H   0  0  0  0  0  0
   16.9263   43.9834   -7.2512 H   0  0  0  0  0  0
   17.6302   42.7785   -8.2710 H   0  0  0  0  0  0
   17.3774   44.5130  -10.2354 H   0  0  0  0  0  0
   17.0781   45.6860   -8.9893 H   0  0  0  0  0  0
   19.3093   45.7986   -8.6412 H   0  0  0  0  0  0
   21.3869   45.7792   -9.7230 H   0  0  0  0  0  0
   23.7352   45.3865  -10.5105 H   0  0  0  0  0  0
   24.0840   44.1263  -11.6701 H   0  0  0  0  0  0
   22.6138   46.4735  -12.1969 H   0  0  0  0  0  0
   22.3755   42.5023  -12.3344 H   0  0  0  0  0  0
   18.6305   42.4953  -10.2283 H   0  0  0  0  0  0
   19.5591   39.1287  -11.6030 H   0  0  0  0  0  0
   26.1673   40.4187  -11.2394 H   0  0  0  0  0  0
   28.4774   41.2476  -11.5543 H   0  0  0  0  0  0
   29.2017   43.3724  -10.5009 H   0  0  0  0  0  0
   24.4350   40.8488   -8.0131 H   0  0  0  0  0  0
  1  2  1  0  0  0
  1 41  1  0  0  0
  1 42  1  0  0  0
  1 43  1  0  0  0
  2  3  1  0  0  0
  2  4  1  0  0  0
  2 44  1  0  0  0
  3 45  1  0  0  0
  3 46  1  0  0  0
  3 47  1  0  0  0
  4 37  1  0  0  0
  4  5  2  0  0  0
  5  6  1  0  0  0
  5 48  1  0  0  0
  6  7  1  0  0  0
  6 35  2  0  0  0
  7  8  1  0  0  0
  7 49  1  0  0  0
  7 50  1  0  0  0
  8  9  1  0  0  0
  8 51  1  0  0  0
  8 83  1  0  0  0
  9 10  1  0  0  0
  9 52  1  0  0  0
  9 53  1  0  0  0
 10 38  1  0  0  0
 10 11  1  0  0  0
 10 12  1  0  0  0
 11 54  1  0  0  0
 12 39  1  0  0  0
 12 34  1  0  0  0
 12 13  1  0  0  0
 13 14  1  0  0  0
 13 55  1  0  0  0
 13 56  1  0  0  0
 14 40  1  0  0  0
 14 15  1  0  0  0
 14 16  1  0  0  0
 15 57  1  0  0  0
 15 58  1  0  0  0
 15 59  1  0  0  0
 16 17  1  0  0  0
 16 60  1  0  0  0
 16 61  1  0  0  0
 17 18  1  0  0  0
 17 62  1  0  0  0
 17 63  1  0  0  0
 18 19  2  0  0  0
 18 64  1  0  0  0
 19 20  1  0  0  0
 19 65  1  0  0  0
 20 21  1  0  0  0
 20 66  1  0  0  0
 20 67  1  0  0  0
 21 22  1  0  0  0
 21 68  1  0  0  0
 21 69  1  0  0  0
 22 23  1  0  0  0
 22 70  1  0  0  0
 22 71  1  0  0  0
 23 24  1  0  0  0
 23 72  1  0  0  0
 24 31  1  0  0  0
 24 25  2  0  0  0
 25 26  1  0  0  0
 25 73  1  0  0  0
 26 27  1  0  0  0
 26 29  2  0  0  0
 27 28  1  0  0  0
 27 74  1  0  0  0
 27 75  1  0  0  0
 28 76  1  0  0  0
 29 30  1  0  0  0
 29 77  1  0  0  0
 30 31  2  0  0  0
 30 32  1  0  0  0
 31 78  1  0  0  0
 32 33  2  0  0  0
 32 34  1  0  0  0
 34 79  1  0  0  0
 35 36  1  0  0  0
 35 80  1  0  0  0
 36 37  2  0  0  0
 36 81  1  0  0  0
 37 82  1  0  0  0
M  CHG  1   8   1
M  END
> <s_m_source_file>
BACE_66.smi

> <i_m_source_file_index>
1

> <i_lp_mmshare_version>
42013

> <i_f3d_flags>
0

> <s_epik_input>
W0NIM11bQ0hdKFtDSDNdKWMxW2NIXWMoW2NIXVtjSF1bY0hdMSlbQ0gyXVtOSF1bQ0gyXVtDQEBIXShbT0hdKVtDQEBIXShbTkhdQyg9TyljKFtjSF0yKVtjSF1jKFtjSF1jMjMpW0NIMl1bT0hdKVtDSDJdW0NASF0oW0NIM10pW0NIMl1bQ0gyXS9bQ0hdPVtDSF0vW0NIMl1bQ0gyXVtDSDJdW05IXTM=

> <s_epik_cmdline>
J2VwaWtfcHl0aG9uJywgJy1waCcsICc3LjAnLCAnLXRuJywgJzgnLCAnLW1hJywgJzIwMCcsICctaW1hZScsICc8aW5maWxlLm1hZT4nLCAnLW9tYWUnLCAnPG91dGZpbGUubWFlPic=

> <r_epik_Ionization_Penalty>
  0.0171

> <r_epik_Ionization_Penalty_Charging>
  0.0166

> <r_epik_Ionization_Penalty_Neutral>
  0.0005

> <r_epik_State_Penalty>
  0.0131

> <r_epik_Charging_Adjusted_Penalty>
0.0296672

> <i_epik_Tot_Q>
1

> <i_epik_Tot_abs_Q>
1

> <s_lp_Force_Field>
OPLS_2005

> <r_lp_Energy>
32.3625

> <b_lp_Chiralities_Consistent>
1

> <s_lp_Variant>
BACE_66.smi:1-1

> <chiral flag>
1

> <version>
0

> <s_i_glide_gridfile>
second_dock_grid_2

> <i_i_glide_lignum>
131

> <i_i_glide_rotatable_bonds>
9

> <r_i_docking_score>
-4.82136

> <r_i_glide_ligand_efficiency>
-0.130307

> <r_i_glide_ligand_efficiency_sa>
-0.434212

> <r_i_glide_ligand_efficiency_ln>
-1.04564

> <r_glide_XP_GScore>
-4.83446

> <r_i_glide_gscore>
-4.83446

> <r_i_glide_evdw>
-35.7795

> <r_i_glide_ecoul>
-13.1943

> <r_i_glide_energy>
-48.9738

> <r_i_glide_einternal>
4.57484

> <r_i_glide_emodel>
-71.4281

> <r_glide_XP_HBond>
-0.745093

> <i_i_glide_confnum>
1

> <i_i_glide_posenum>
11

> <r_i_glide_eff_state_penalty>
0.0131

> <i_glide_XP_PoseRank>
1

$$$$
BACE_66.smi:1
                    3D
 Structure written by MMmdl.
 82 84  0  0  1  0            999 V2000
   20.6539   42.8087   -1.2708 C   0  0  0  0  0  0
   20.3072   42.1976   -2.6406 C   0  0  0  0  0  0
   20.4401   40.6710   -2.6058 C   0  0  0  0  0  0
   21.1163   42.7821   -3.7955 C   0  0  0  0  0  0
   20.4588   43.2685   -4.9443 C   0  0  0  0  0  0
   21.1798   43.7973   -6.0333 C   0  0  0  0  0  0
   20.3977   44.2400   -7.2626 C   0  0  0  0  0  0
   21.0930   45.1347   -8.1980 N   0  0  0  0  0  0
   21.9966   44.5169   -9.1809 C   0  0  0  0  0  0
   21.3119   43.9832  -10.4645 C   0  0  1  0  0  0
   22.3219   43.8987  -11.4545 O   0  0  0  0  0  0
   20.6228   42.5889  -10.3834 C   0  0  2  0  0  0
   21.5890   41.4327  -10.0197 C   0  0  0  0  0  0
   20.9041   40.1334   -9.5369 C   0  0  2  0  0  0
   21.7620   39.4407   -8.4580 C   0  0  0  0  0  0
   20.6124   39.1786  -10.7138 C   0  0  0  0  0  0
   19.7247   37.9750  -10.3577 C   0  0  0  0  0  0
   18.3292   38.3919   -9.9564 C   0  0  0  0  0  0
   17.8013   38.2424   -8.7314 C   0  0  0  0  0  0
   16.4398   38.7835   -8.3582 C   0  0  0  0  0  0
   16.5600   40.2012   -7.7750 C   0  0  0  0  0  0
   15.4479   41.1379   -8.2648 C   0  0  0  0  0  0
   15.7725   42.5394   -8.0401 N   0  0  0  0  0  0
   16.4449   43.2992   -9.0109 C   0  0  0  0  0  0
   16.3515   44.7040   -8.9380 C   0  0  0  0  0  0
   16.9800   45.5201   -9.9025 C   0  0  0  0  0  0
   16.8599   47.0296   -9.8170 C   0  0  0  0  0  0
   16.4600   47.6189  -11.0370 O   0  0  0  0  0  0
   17.7382   44.9238  -10.9324 C   0  0  0  0  0  0
   17.8813   43.5223  -10.9927 C   0  0  0  0  0  0
   17.2118   42.7131  -10.0481 C   0  0  0  0  0  0
   18.7607   42.9051  -12.0425 C   0  0  0  0  0  0
   18.4462   42.9499  -13.2315 O   0  0  0  0  0  0
   19.9083   42.3327  -11.6383 N   0  0  0  0  0  0
   22.5900   43.8422   -5.9625 C   0  0  0  0  0  0
   23.2588   43.3301   -4.8396 C   0  0  0  0  0  0
   22.5270   42.8040   -3.7558 C   0  0  0  0  0  0
   20.6035   44.7407  -10.7991 H   0  0  0  0  0  0
   19.8707   42.6263   -9.6053 H   0  0  0  0  0  0
   19.9631   40.4068   -9.0576 H   0  0  0  0  0  0
   20.4549   43.8774   -1.2402 H   0  0  0  0  0  0
   21.6996   42.6552   -1.0085 H   0  0  0  0  0  0
   20.0485   42.3547   -0.4852 H   0  0  0  0  0  0
   19.2601   42.4327   -2.8274 H   0  0  0  0  0  0
   20.1030   40.2292   -3.5438 H   0  0  0  0  0  0
   19.8394   40.2428   -1.8024 H   0  0  0  0  0  0
   21.4763   40.3793   -2.4453 H   0  0  0  0  0  0
   19.3817   43.2144   -5.0038 H   0  0  0  0  0  0
   20.0288   43.3420   -7.7463 H   0  0  0  0  0  0
   19.5051   44.7529   -6.8973 H   0  0  0  0  0  0
   21.6397   45.7809   -7.6397 H   0  0  0  0  0  0
   22.6921   45.2958   -9.4969 H   0  0  0  0  0  0
   22.6276   43.7573   -8.7278 H   0  0  0  0  0  0
   22.9190   43.2041  -11.2199 H   0  0  0  0  0  0
   22.2700   41.2177  -10.8449 H   0  0  0  0  0  0
   22.2300   41.7713   -9.2092 H   0  0  0  0  0  0
   22.7216   39.1116   -8.8600 H   0  0  0  0  0  0
   21.2604   38.5694   -8.0379 H   0  0  0  0  0  0
   21.9644   40.1120   -7.6210 H   0  0  0  0  0  0
   20.1289   39.7197  -11.5270 H   0  0  0  0  0  0
   21.5625   38.8272  -11.1193 H   0  0  0  0  0  0
   19.6370   37.3497  -11.2397 H   0  0  0  0  0  0
   20.1765   37.3520   -9.5857 H   0  0  0  0  0  0
   17.7519   38.8869  -10.7230 H   0  0  0  0  0  0
   18.3784   37.7929   -7.9360 H   0  0  0  0  0  0
   15.8199   38.7886   -9.2551 H   0  0  0  0  0  0
   15.9508   38.1147   -7.6498 H   0  0  0  0  0  0
   16.5543   40.1508   -6.6858 H   0  0  0  0  0  0
   17.5271   40.6270   -8.0444 H   0  0  0  0  0  0
   15.2444   40.9852   -9.3236 H   0  0  0  0  0  0
   14.5196   40.9036   -7.7419 H   0  0  0  0  0  0
   15.4913   42.9483   -7.1476 H   0  0  0  0  0  0
   15.7787   45.1572   -8.1421 H   0  0  0  0  0  0
   16.1381   47.3056   -9.0468 H   0  0  0  0  0  0
   17.8234   47.4449   -9.5177 H   0  0  0  0  0  0
   17.1313   47.4496  -11.6817 H   0  0  0  0  0  0
   18.2454   45.5426  -11.6586 H   0  0  0  0  0  0
   17.3232   41.6406  -10.1119 H   0  0  0  0  0  0
   20.4568   41.8896  -12.3582 H   0  0  0  0  0  0
   23.1896   44.2497   -6.7577 H   0  0  0  0  0  0
   24.3381   43.3488   -4.8088 H   0  0  0  0  0  0
   23.0582   42.4192   -2.8995 H   0  0  0  0  0  0
  1  2  1  0  0  0
  1 41  1  0  0  0
  1 42  1  0  0  0
  1 43  1  0  0  0
  2  3  1  0  0  0
  2  4  1  0  0  0
  2 44  1  0  0  0
  3 45  1  0  0  0
  3 46  1  0  0  0
  3 47  1  0  0  0
  4 37  1  0  0  0
  4  5  2  0  0  0
  5  6  1  0  0  0
  5 48  1  0  0  0
  6  7  1  0  0  0
  6 35  2  0  0  0
  7  8  1  0  0  0
  7 49  1  0  0  0
  7 50  1  0  0  0
  8  9  1  0  0  0
  8 51  1  0  0  0
  9 10  1  0  0  0
  9 52  1  0  0  0
  9 53  1  0  0  0
 10 38  1  0  0  0
 10 11  1  0  0  0
 10 12  1  0  0  0
 11 54  1  0  0  0
 12 39  1  0  0  0
 12 34  1  0  0  0
 12 13  1  0  0  0
 13 14  1  0  0  0
 13 55  1  0  0  0
 13 56  1  0  0  0
 14 40  1  0  0  0
 14 15  1  0  0  0
 14 16  1  0  0  0
 15 57  1  0  0  0
 15 58  1  0  0  0
 15 59  1  0  0  0
 16 17  1  0  0  0
 16 60  1  0  0  0
 16 61  1  0  0  0
 17 18  1  0  0  0
 17 62  1  0  0  0
 17 63  1  0  0  0
 18 19  2  0  0  0
 18 64  1  0  0  0
 19 20  1  0  0  0
 19 65  1  0  0  0
 20 21  1  0  0  0
 20 66  1  0  0  0
 20 67  1  0  0  0
 21 22  1  0  0  0
 21 68  1  0  0  0
 21 69  1  0  0  0
 22 23  1  0  0  0
 22 70  1  0  0  0
 22 71  1  0  0  0
 23 24  1  0  0  0
 23 72  1  0  0  0
 24 31  1  0  0  0
 24 25  2  0  0  0
 25 26  1  0  0  0
 25 73  1  0  0  0
 26 27  1  0  0  0
 26 29  2  0  0  0
 27 28  1  0  0  0
 27 74  1  0  0  0
 27 75  1  0  0  0
 28 76  1  0  0  0
 29 30  1  0  0  0
 29 77  1  0  0  0
 30 31  2  0  0  0
 30 32  1  0  0  0
 31 78  1  0  0  0
 32 33  2  0  0  0
 32 34  1  0  0  0
 34 79  1  0  0  0
 35 36  1  0  0  0
 35 80  1  0  0  0
 36 37  2  0  0  0
 36 81  1  0  0  0
 37 82  1  0  0  0
M  END
> <s_m_source_file>
BACE_66.smi

> <i_m_source_file_index>
1

> <i_lp_mmshare_version>
42013

> <i_f3d_flags>
0

> <s_epik_input>
W0NIM11bQ0hdKFtDSDNdKWMxW2NIXWMoW2NIXVtjSF1bY0hdMSlbQ0gyXVtOSF1bQ0gyXVtDQEBIXShbT0hdKVtDQEBIXShbTkhdQyg9TyljKFtjSF0yKVtjSF1jKFtjSF1jMjMpW0NIMl1bT0hdKVtDSDJdW0NASF0oW0NIM10pW0NIMl1bQ0gyXS9bQ0hdPVtDSF0vW0NIMl1bQ0gyXVtDSDJdW05IXTM=

> <s_epik_cmdline>
J2VwaWtfcHl0aG9uJywgJy1waCcsICc3LjAnLCAnLXRuJywgJzgnLCAnLW1hJywgJzIwMCcsICctaW1hZScsICc8aW5maWxlLm1hZT4nLCAnLW9tYWUnLCAnPG91dGZpbGUubWFlPic=

> <r_epik_Ionization_Penalty>
  2.1278

> <r_epik_Ionization_Penalty_Charging>
  0.0000

> <r_epik_Ionization_Penalty_Neutral>
  2.1278

> <r_epik_State_Penalty>
  2.2653

> <r_epik_Charging_Adjusted_Penalty>
2.26532

> <i_epik_Tot_Q>
0

> <i_epik_Tot_abs_Q>
0

> <s_lp_Force_Field>
OPLS_2005

> <r_lp_Energy>
36.9969

> <b_lp_Chiralities_Consistent>
1

> <s_lp_Variant>
BACE_66.smi:1-2

> <chiral flag>
1

> <version>
0

> <s_i_glide_gridfile>
second_dock_grid_2

> <i_i_glide_lignum>
132

> <i_i_glide_rotatable_bonds>
9

> <r_i_docking_score>
-2.88788

> <r_i_glide_ligand_efficiency>
-0.0780508

> <r_i_glide_ligand_efficiency_sa>
-0.260083

> <r_i_glide_ligand_efficiency_ln>
-0.626314

> <r_glide_XP_GScore>
-5.15318

> <r_i_glide_gscore>
-5.15318

> <r_i_glide_evdw>
-40.0846

> <r_i_glide_ecoul>
-7.09977

> <r_i_glide_energy>
-47.1843

> <r_i_glide_einternal>
3.55773

> <r_i_glide_emodel>
-60.4622

> <r_glide_XP_HBond>
-0.979892

> <i_i_glide_confnum>
1

> <i_i_glide_posenum>
10

> <r_i_glide_eff_state_penalty>
2.2653

> <i_glide_XP_PoseRank>
1

$$$$
BACE_67.smi:1
                    3D
 Structure written by MMmdl.
 84 86  0  0  1  0            999 V2000
   20.2979   45.9443   -9.9449 C   0  0  0  0  0  0
   19.6592   44.5452   -9.8765 C   0  0  2  0  0  0
   20.1472   43.7548   -8.6430 C   0  0  0  0  0  0
   21.6604   43.4617   -8.5942 C   0  0  0  0  0  0
   22.1006   42.6168   -7.4115 C   0  0  0  0  0  0
   21.3005   42.0987   -6.4662 C   0  0  0  0  0  0
   21.7731   41.1955   -5.3509 C   0  0  0  0  0  0
   21.1559   39.7935   -5.4511 C   0  0  0  0  0  0
   21.8469   38.8325   -6.4385 C   0  0  0  0  0  0
   21.9306   39.2953   -7.8065 N   0  0  0  0  0  0
   20.8452   39.2000   -8.6751 C   0  0  0  0  0  0
   21.0289   39.7239   -9.9611 C   0  0  0  0  0  0
   19.9665   39.7450  -10.8731 C   0  0  0  0  0  0
   18.7149   39.1890  -10.5199 C   0  0  0  0  0  0
   18.5282   38.6249   -9.2377 C   0  0  0  0  0  0
   17.1861   38.0433   -8.8158 C   0  0  0  0  0  0
   17.2600   36.6820   -8.4401 O   0  0  0  0  0  0
   19.5952   38.6414   -8.3163 C   0  0  0  0  0  0
   20.1890   40.4109  -12.1897 C   0  0  0  0  0  0
   20.8601   39.8666  -13.0602 O   0  0  0  0  0  0
   19.6637   41.6296  -12.3690 N   0  0  0  0  0  0
   18.9771   42.4997  -11.4162 C   0  0  1  0  0  0
   19.8329   43.7864  -11.2176 C   0  0  0  0  0  0
   17.5552   42.7132  -11.9793 C   0  0  2  0  0  0
   17.6533   43.3509  -13.2410 O   0  0  0  0  0  0
   16.6479   43.5849  -11.1040 C   0  0  0  0  0  0
   15.2724   43.5823  -11.5964 N   0  0  0  0  0  0
   14.4895   44.7454  -11.1865 C   0  0  0  0  0  0
   14.7630   45.9624  -12.0407 C   0  0  0  0  0  0
   15.9327   46.7695  -12.0991 C   0  0  0  0  0  0
   15.6368   47.7392  -13.0174 C   0  0  0  0  0  0
   16.3659   48.9166  -13.6058 C   0  0  0  0  0  0
   17.6959   49.3764  -12.9449 C   0  0  0  0  0  0
   17.5236   49.6684  -11.4378 C   0  0  0  0  0  0
   18.1398   50.6894  -13.6256 C   0  0  0  0  0  0
   18.8102   48.3323  -13.1685 C   0  0  0  0  0  0
   14.3725   47.5417  -13.4813 O   0  0  0  0  0  0
   13.8190   46.4274  -12.8407 N   0  0  0  0  0  0
   18.6029   44.7209   -9.7054 H   0  0  0  0  0  0
   18.8754   41.9967  -10.4570 H   0  0  0  0  0  0
   17.0901   41.7311  -12.1114 H   0  0  0  0  0  0
   21.3662   45.8932  -10.1608 H   0  0  0  0  0  0
   20.1720   46.4802   -9.0034 H   0  0  0  0  0  0
   19.8351   46.5462  -10.7247 H   0  0  0  0  0  0
   19.8695   44.3110   -7.7455 H   0  0  0  0  0  0
   19.5936   42.8174   -8.5812 H   0  0  0  0  0  0
   21.9722   42.9267   -9.4913 H   0  0  0  0  0  0
   22.2272   44.3910   -8.5659 H   0  0  0  0  0  0
   23.1557   42.3941   -7.3744 H   0  0  0  0  0  0
   20.2364   42.2784   -6.4777 H   0  0  0  0  0  0
   22.8576   41.1372   -5.3317 H   0  0  0  0  0  0
   21.4711   41.6580   -4.4111 H   0  0  0  0  0  0
   21.2598   39.3500   -4.4617 H   0  0  0  0  0  0
   20.0852   39.8612   -5.6454 H   0  0  0  0  0  0
   22.8595   38.6894   -6.1090 H   0  0  0  0  0  0
   21.3818   37.8475   -6.4410 H   0  0  0  0  0  0
   22.8130   39.6509   -8.1469 H   0  0  0  0  0  0
   21.9792   40.1573  -10.2374 H   0  0  0  0  0  0
   17.8973   39.2058  -11.2283 H   0  0  0  0  0  0
   16.8153   38.6155   -7.9640 H   0  0  0  0  0  0
   16.4525   38.1543   -9.6159 H   0  0  0  0  0  0
   16.7140   36.5501   -7.6621 H   0  0  0  0  0  0
   19.4276   38.2292   -7.3335 H   0  0  0  0  0  0
   19.8024   42.0381  -13.2788 H   0  0  0  0  0  0
   19.6433   44.4749  -12.0384 H   0  0  0  0  0  0
   20.8884   43.5344  -11.3264 H   0  0  0  0  0  0
   17.8076   44.2706  -13.0855 H   0  0  0  0  0  0
   16.6673   43.2312  -10.0726 H   0  0  0  0  0  0
   17.0421   44.5933  -11.0922 H   0  0  0  0  0  0
   14.8021   42.7405  -11.2722 H   0  0  0  0  0  0
   13.4309   44.4930  -11.2514 H   0  0  0  0  0  0
   14.6726   44.9691  -10.1340 H   0  0  0  0  0  0
   16.8479   46.6561  -11.5390 H   0  0  0  0  0  0
   16.5505   48.7102  -14.6608 H   0  0  0  0  0  0
   15.6737   49.7592  -13.6018 H   0  0  0  0  0  0
   18.4332   50.0965  -11.0120 H   0  0  0  0  0  0
   17.2975   48.7755  -10.8564 H   0  0  0  0  0  0
   16.7205   50.3858  -11.2639 H   0  0  0  0  0  0
   17.4002   51.4800  -13.4941 H   0  0  0  0  0  0
   18.2850   50.5538  -14.6994 H   0  0  0  0  0  0
   19.0823   51.0548  -13.2153 H   0  0  0  0  0  0
   19.7607   48.6680  -12.7446 H   0  0  0  0  0  0
   18.9758   48.1543  -14.2330 H   0  0  0  0  0  0
   18.5821   47.3690  -12.7136 H   0  0  0  0  0  0
  1  2  1  0  0  0
  1 42  1  0  0  0
  1 43  1  0  0  0
  1 44  1  0  0  0
  2 39  1  0  0  0
  2 23  1  0  0  0
  2  3  1  0  0  0
  3  4  1  0  0  0
  3 45  1  0  0  0
  3 46  1  0  0  0
  4  5  1  0  0  0
  4 47  1  0  0  0
  4 48  1  0  0  0
  5  6  2  0  0  0
  5 49  1  0  0  0
  6  7  1  0  0  0
  6 50  1  0  0  0
  7  8  1  0  0  0
  7 51  1  0  0  0
  7 52  1  0  0  0
  8  9  1  0  0  0
  8 53  1  0  0  0
  8 54  1  0  0  0
  9 10  1  0  0  0
  9 55  1  0  0  0
  9 56  1  0  0  0
 10 11  1  0  0  0
 10 57  1  0  0  0
 11 18  1  0  0  0
 11 12  2  0  0  0
 12 13  1  0  0  0
 12 58  1  0  0  0
 13 14  2  0  0  0
 13 19  1  0  0  0
 14 15  1  0  0  0
 14 59  1  0  0  0
 15 16  1  0  0  0
 15 18  2  0  0  0
 16 17  1  0  0  0
 16 60  1  0  0  0
 16 61  1  0  0  0
 17 62  1  0  0  0
 18 63  1  0  0  0
 19 20  2  0  0  0
 19 21  1  0  0  0
 21 22  1  0  0  0
 21 64  1  0  0  0
 22 40  1  0  0  0
 22 23  1  0  0  0
 22 24  1  0  0  0
 23 65  1  0  0  0
 23 66  1  0  0  0
 24 41  1  0  0  0
 24 25  1  0  0  0
 24 26  1  0  0  0
 25 67  1  0  0  0
 26 27  1  0  0  0
 26 68  1  0  0  0
 26 69  1  0  0  0
 27 28  1  0  0  0
 27 70  1  0  0  0
 28 29  1  0  0  0
 28 71  1  0  0  0
 28 72  1  0  0  0
 29 38  2  0  0  0
 29 30  1  0  0  0
 30 31  2  0  0  0
 30 73  1  0  0  0
 31 32  1  0  0  0
 31 37  1  0  0  0
 32 33  1  0  0  0
 32 74  1  0  0  0
 32 75  1  0  0  0
 33 34  1  0  0  0
 33 35  1  0  0  0
 33 36  1  0  0  0
 34 76  1  0  0  0
 34 77  1  0  0  0
 34 78  1  0  0  0
 35 79  1  0  0  0
 35 80  1  0  0  0
 35 81  1  0  0  0
 36 82  1  0  0  0
 36 83  1  0  0  0
 36 84  1  0  0  0
 37 38  1  0  0  0
M  END
> <s_m_source_file>
BACE_67.smi

> <i_m_source_file_index>
1

> <i_lp_mmshare_version>
42013

> <i_f3d_flags>
0

> <s_epik_input>
W05IXTFbQ0gyXVtDSDJdW0NIMl1cW0NIXT1bQ0hdXFtDSDJdW0NIMl1bQ0BASF0oW0NIM10pW0NIMl1bQ0BIXShbTkhdQyg9TyljKFtjSF1jMTIpW2NIXWMoW2NIXTIpW0NIMl1bT0hdKVtDQEhdKFtPSF0pW0NIMl1bTkhdW0NIMl1jM1tjSF1jKG9uMylbQ0gyXUMoW0NIM10pKFtDSDNdKVtDSDNd

> <s_epik_cmdline>
J2VwaWtfcHl0aG9uJywgJy1waCcsICc3LjAnLCAnLXRuJywgJzgnLCAnLW1hJywgJzIwMCcsICctaW1hZScsICc8aW5maWxlLm1hZT4nLCAnLW9tYWUnLCAnPG91dGZpbGUubWFlPic=

> <r_epik_Ionization_Penalty>
  0.2724

> <r_epik_Ionization_Penalty_Charging>
  0.0000

> <r_epik_Ionization_Penalty_Neutral>
  0.2724

> <r_epik_State_Penalty>
  0.2639

> <r_epik_Charging_Adjusted_Penalty>
0.263939

> <i_epik_Tot_Q>
0

> <i_epik_Tot_abs_Q>
0

> <s_lp_Force_Field>
OPLS_2005

> <r_lp_Energy>
38.7753

> <b_lp_Chiralities_Consistent>
1

> <s_lp_Variant>
BACE_67.smi:1-1

> <chiral flag>
1

> <version>
0

> <s_i_glide_gridfile>
second_dock_grid_2

> <i_i_glide_lignum>
133

> <i_i_glide_rotatable_bonds>
10

> <r_i_docking_score>
-4.32725

> <r_i_glide_ligand_efficiency>
-0.113875

> <r_i_glide_ligand_efficiency_sa>
-0.382845

> <r_i_glide_ligand_efficiency_ln>
-0.933083

> <r_glide_XP_GScore>
-4.59115

> <r_i_glide_gscore>
-4.59115

> <r_i_glide_evdw>
-36.0395

> <r_i_glide_ecoul>
-12.9592

> <r_i_glide_energy>
-48.9987

> <r_i_glide_einternal>
11.1103

> <r_i_glide_emodel>
-64.7463

> <r_glide_XP_HBond>
-0.80376

> <i_i_glide_confnum>
1

> <i_i_glide_posenum>
1

> <r_i_glide_eff_state_penalty>
0.2639

> <i_glide_XP_PoseRank>
1

$$$$
BACE_67.smi:1
                    3D
 Structure written by MMmdl.
 85 87  0  0  1  0            999 V2000
   22.4569   39.4897   -6.3646 C   0  0  0  0  0  0
   21.6464   40.2611   -7.4116 C   0  0  2  0  0  0
   20.1269   40.0309   -7.2488 C   0  0  0  0  0  0
   19.6562   38.5563   -7.2741 C   0  0  0  0  0  0
   18.1484   38.3705   -7.2024 C   0  0  0  0  0  0
   17.2436   39.3583   -7.1184 C   0  0  0  0  0  0
   15.7412   39.1969   -7.1381 C   0  0  0  0  0  0
   15.1167   39.9513   -8.3198 C   0  0  0  0  0  0
   15.2382   39.2088   -9.6619 C   0  0  0  0  0  0
   16.6194   38.9464  -10.0465 N   0  0  0  0  0  0
   17.4471   39.9092  -10.6410 C   0  0  0  0  0  0
   18.7627   39.5342  -10.9937 C   0  0  0  0  0  0
   19.6212   40.4485  -11.6382 C   0  0  0  0  0  0
   19.1674   41.7527  -11.9126 C   0  0  0  0  0  0
   17.8670   42.1426  -11.5483 C   0  0  0  0  0  0
   17.4013   43.5457  -11.8528 C   0  0  0  0  0  0
   17.2601   43.7560  -13.2399 O   0  0  0  0  0  0
   17.0064   41.2222  -10.9188 C   0  0  0  0  0  0
   21.0215   40.0664  -12.0021 C   0  0  0  0  0  0
   21.2597   39.4072  -13.0097 O   0  0  0  0  0  0
   22.0066   40.5228  -11.2160 N   0  0  0  0  0  0
   21.8742   41.0948   -9.8744 C   0  0  1  0  0  0
   22.1664   39.9767   -8.8404 C   0  0  0  0  0  0
   22.7630   42.3618   -9.7295 C   0  0  2  0  0  0
   22.0420   43.4574  -10.2535 O   0  0  0  0  0  0
   24.1508   42.3379  -10.4042 C   0  0  0  0  0  0
   25.0626   41.3832   -9.7354 N   0  3  0  0  0  0
   26.3550   41.1327  -10.4023 C   0  0  0  0  0  0
   27.0804   42.3952  -10.7618 C   0  0  0  0  0  0
   27.4303   42.8610  -12.0546 C   0  0  0  0  0  0
   27.9792   44.0874  -11.8184 C   0  0  0  0  0  0
   28.4914   45.1522  -12.7342 C   0  0  0  0  0  0
   27.4898   46.2956  -13.0721 C   0  0  0  0  0  0
   27.7669   46.8009  -14.5025 C   0  0  0  0  0  0
   27.6924   47.4605  -12.0837 C   0  0  0  0  0  0
   26.0155   45.8332  -13.0000 C   0  0  0  0  0  0
   27.9829   44.3495  -10.4861 O   0  0  0  0  0  0
   27.4175   43.2575   -9.8172 N   0  0  0  0  0  0
   21.8185   41.3152   -7.1967 H   0  0  0  0  0  0
   20.8489   41.4108   -9.6899 H   0  0  0  0  0  0
   22.8992   42.5941   -8.6727 H   0  0  0  0  0  0
   22.3727   38.4141   -6.5074 H   0  0  0  0  0  0
   22.1261   39.7209   -5.3512 H   0  0  0  0  0  0
   23.5090   39.7499   -6.4408 H   0  0  0  0  0  0
   19.8141   40.4720   -6.3009 H   0  0  0  0  0  0
   19.6027   40.5916   -8.0233 H   0  0  0  0  0  0
   19.9922   38.0643   -8.1862 H   0  0  0  0  0  0
   20.0939   38.0062   -6.4428 H   0  0  0  0  0  0
   17.7922   37.3510   -7.2522 H   0  0  0  0  0  0
   17.5656   40.3868   -7.0689 H   0  0  0  0  0  0
   15.4581   38.1502   -7.1881 H   0  0  0  0  0  0
   15.3503   39.5854   -6.1954 H   0  0  0  0  0  0
   14.0600   40.0827   -8.1069 H   0  0  0  0  0  0
   15.5340   40.9573   -8.3831 H   0  0  0  0  0  0
   14.7277   38.2485   -9.5833 H   0  0  0  0  0  0
   14.7208   39.7521  -10.4512 H   0  0  0  0  0  0
   17.0194   38.0633   -9.7658 H   0  0  0  0  0  0
   19.1078   38.5322  -10.7828 H   0  0  0  0  0  0
   19.8178   42.4618  -12.4018 H   0  0  0  0  0  0
   16.4503   43.7471  -11.3566 H   0  0  0  0  0  0
   18.1271   44.2545  -11.4526 H   0  0  0  0  0  0
   17.0043   44.6559  -13.3780 H   0  0  0  0  0  0
   16.0083   41.5354  -10.6546 H   0  0  0  0  0  0
   22.9397   40.3377  -11.5618 H   0  0  0  0  0  0
   23.2351   39.7776   -8.8077 H   0  0  0  0  0  0
   21.7335   39.0381   -9.1857 H   0  0  0  0  0  0
   21.8159   43.2665  -11.1520 H   0  0  0  0  0  0
   24.0806   42.1451  -11.4746 H   0  0  0  0  0  0
   24.5878   43.3351  -10.3208 H   0  0  0  0  0  0
   25.2600   41.7440   -8.8129 H   0  0  0  0  0  0
   26.9551   40.5499   -9.7135 H   0  0  0  0  0  0
   26.1935   40.5188  -11.2866 H   0  0  0  0  0  0
   27.2744   42.3923  -13.0123 H   0  0  0  0  0  0
   29.4209   45.5618  -12.3351 H   0  0  0  0  0  0
   28.7872   44.6524  -13.6577 H   0  0  0  0  0  0
   27.1176   47.6369  -14.7644 H   0  0  0  0  0  0
   27.6003   46.0111  -15.2359 H   0  0  0  0  0  0
   28.7977   47.1415  -14.6100 H   0  0  0  0  0  0
   28.7076   47.8564  -12.1339 H   0  0  0  0  0  0
   27.5136   47.1437  -11.0533 H   0  0  0  0  0  0
   27.0121   48.2867  -12.2933 H   0  0  0  0  0  0
   25.3369   46.6141  -13.3468 H   0  0  0  0  0  0
   25.7152   45.5794  -11.9805 H   0  0  0  0  0  0
   25.8455   44.9532  -13.6254 H   0  0  0  0  0  0
   24.6050   40.4857   -9.6403 H   0  0  0  0  0  0
  1  2  1  0  0  0
  1 42  1  0  0  0
  1 43  1  0  0  0
  1 44  1  0  0  0
  2 39  1  0  0  0
  2 23  1  0  0  0
  2  3  1  0  0  0
  3  4  1  0  0  0
  3 45  1  0  0  0
  3 46  1  0  0  0
  4  5  1  0  0  0
  4 47  1  0  0  0
  4 48  1  0  0  0
  5  6  2  0  0  0
  5 49  1  0  0  0
  6  7  1  0  0  0
  6 50  1  0  0  0
  7  8  1  0  0  0
  7 51  1  0  0  0
  7 52  1  0  0  0
  8  9  1  0  0  0
  8 53  1  0  0  0
  8 54  1  0  0  0
  9 10  1  0  0  0
  9 55  1  0  0  0
  9 56  1  0  0  0
 10 11  1  0  0  0
 10 57  1  0  0  0
 11 18  1  0  0  0
 11 12  2  0  0  0
 12 13  1  0  0  0
 12 58  1  0  0  0
 13 14  2  0  0  0
 13 19  1  0  0  0
 14 15  1  0  0  0
 14 59  1  0  0  0
 15 16  1  0  0  0
 15 18  2  0  0  0
 16 17  1  0  0  0
 16 60  1  0  0  0
 16 61  1  0  0  0
 17 62  1  0  0  0
 18 63  1  0  0  0
 19 20  2  0  0  0
 19 21  1  0  0  0
 21 22  1  0  0  0
 21 64  1  0  0  0
 22 40  1  0  0  0
 22 23  1  0  0  0
 22 24  1  0  0  0
 23 65  1  0  0  0
 23 66  1  0  0  0
 24 41  1  0  0  0
 24 25  1  0  0  0
 24 26  1  0  0  0
 25 67  1  0  0  0
 26 27  1  0  0  0
 26 68  1  0  0  0
 26 69  1  0  0  0
 27 28  1  0  0  0
 27 70  1  0  0  0
 27 85  1  0  0  0
 28 29  1  0  0  0
 28 71  1  0  0  0
 28 72  1  0  0  0
 29 38  2  0  0  0
 29 30  1  0  0  0
 30 31  2  0  0  0
 30 73  1  0  0  0
 31 32  1  0  0  0
 31 37  1  0  0  0
 32 33  1  0  0  0
 32 74  1  0  0  0
 32 75  1  0  0  0
 33 34  1  0  0  0
 33 35  1  0  0  0
 33 36  1  0  0  0
 34 76  1  0  0  0
 34 77  1  0  0  0
 34 78  1  0  0  0
 35 79  1  0  0  0
 35 80  1  0  0  0
 35 81  1  0  0  0
 36 82  1  0  0  0
 36 83  1  0  0  0
 36 84  1  0  0  0
 37 38  1  0  0  0
M  CHG  1  27   1
M  END
> <s_m_source_file>
BACE_67.smi

> <i_m_source_file_index>
1

> <i_lp_mmshare_version>
42013

> <i_f3d_flags>
0

> <s_epik_input>
W05IXTFbQ0gyXVtDSDJdW0NIMl1cW0NIXT1bQ0hdXFtDSDJdW0NIMl1bQ0BASF0oW0NIM10pW0NIMl1bQ0BIXShbTkhdQyg9TyljKFtjSF1jMTIpW2NIXWMoW2NIXTIpW0NIMl1bT0hdKVtDQEhdKFtPSF0pW0NIMl1bTkhdW0NIMl1jM1tjSF1jKG9uMylbQ0gyXUMoW0NIM10pKFtDSDNdKVtDSDNd

> <s_epik_cmdline>
J2VwaWtfcHl0aG9uJywgJy1waCcsICc3LjAnLCAnLXRuJywgJzgnLCAnLW1hJywgJzIwMCcsICctaW1hZScsICc8aW5maWxlLm1hZT4nLCAnLW9tYWUnLCAnPG91dGZpbGUubWFlPic=

> <r_epik_Ionization_Penalty>
  0.5930

> <r_epik_Ionization_Penalty_Charging>
  0.5925

> <r_epik_Ionization_Penalty_Neutral>
  0.0005

> <r_epik_State_Penalty>
  0.6062

> <r_epik_Charging_Adjusted_Penalty>
1.19864

> <i_epik_Tot_Q>
1

> <i_epik_Tot_abs_Q>
1

> <s_lp_Force_Field>
OPLS_2005

> <r_lp_Energy>
27.9283

> <b_lp_Chiralities_Consistent>
1

> <s_lp_Variant>
BACE_67.smi:1-2

> <chiral flag>
1

> <version>
0

> <s_i_glide_gridfile>
second_dock_grid_2

> <i_i_glide_lignum>
134

> <i_i_glide_rotatable_bonds>
10

> <r_i_docking_score>
-3.33068

> <r_i_glide_ligand_efficiency>
-0.0876495

> <r_i_glide_ligand_efficiency_sa>
-0.294676

> <r_i_glide_ligand_efficiency_ln>
-0.718193

> <r_glide_XP_GScore>
-3.93688

> <r_i_glide_gscore>
-3.93688

> <r_i_glide_evdw>
-40.3406

> <r_i_glide_ecoul>
-12.3224

> <r_i_glide_energy>
-52.6629

> <r_i_glide_einternal>
6.47557

> <r_i_glide_emodel>
-73.2587

> <r_glide_XP_HBond>
-1.46472

> <i_i_glide_confnum>
1

> <i_i_glide_posenum>
11

> <r_i_glide_eff_state_penalty>
0.6062

> <i_glide_XP_PoseRank>
1

$$$$
BACE_68.smi:1
                    3D
 Structure written by MMmdl.
 97100  0  0  1  0            999 V2000
   21.4953   38.9566   -7.1315 C   0  0  0  0  0  0
   20.2829   39.5567   -7.8608 C   0  0  2  0  0  0
   19.2159   38.4722   -8.1245 C   0  0  0  0  0  0
   18.2348   38.2493   -6.9597 C   0  0  0  0  0  0
   16.8869   38.9704   -7.1487 C   0  0  0  0  0  0
   16.0097   38.3441   -8.2583 C   0  0  0  0  0  0
   14.5871   38.9237   -8.3791 C   0  0  0  0  0  0
   14.4625   40.1205   -9.3330 C   0  0  0  0  0  0
   14.9475   41.4402   -8.7181 C   0  0  0  0  0  0
   14.6970   42.5643   -9.6061 N   0  0  0  0  0  0
   15.7092   43.0118  -10.4625 C   0  0  0  0  0  0
   15.6202   44.3231  -10.9646 C   0  0  0  0  0  0
   16.6237   44.8411  -11.8072 C   0  0  0  0  0  0
   17.7136   44.0185  -12.1698 C   0  0  0  0  0  0
   17.8286   42.7099  -11.6535 C   0  0  0  0  0  0
   16.8064   42.1995  -10.8303 C   0  0  0  0  0  0
   18.9996   41.8642  -12.0538 C   0  0  0  0  0  0
   19.2602   41.7500  -13.2403 O   0  0  0  0  0  0
   19.7962   41.2960  -11.1352 N   0  0  0  0  0  0
   19.7489   41.3163   -9.6762 C   0  0  1  0  0  0
   20.7165   40.2116   -9.1857 C   0  0  0  0  0  0
   20.1229   42.7019   -9.0695 C   0  0  2  0  0  0
   18.9618   43.5010   -8.9778 O   0  0  0  0  0  0
   21.2328   43.5184   -9.7937 C   0  0  0  0  0  0
   22.5883   43.1935   -9.3318 N   0  0  0  0  0  0
   23.1205   44.0175   -8.2374 C   0  0  0  0  0  0
   23.8643   45.2782   -8.6077 C   0  0  0  0  0  0
   24.6225   44.0733   -8.0883 C   0  0  0  0  0  0
   22.2594   43.9962   -7.0094 C   0  0  0  0  0  0
   22.4392   42.9980   -6.0272 C   0  0  0  0  0  0
   21.5621   42.8986   -4.9194 C   0  0  0  0  0  0
   20.4776   43.8018   -4.8401 C   0  0  0  0  0  0
   20.3115   44.8223   -5.7917 C   0  0  0  0  0  0
   21.2133   44.9317   -6.8619 C   0  0  0  0  0  0
   21.7602   41.8647   -3.7983 C   0  0  0  0  0  0
   20.5191   40.9631   -3.6785 C   0  0  0  0  0  0
   22.9796   40.9481   -4.0288 C   0  0  0  0  0  0
   21.9628   42.6168   -2.4676 C   0  0  0  0  0  0
   16.4820   46.2358  -12.3471 C   0  0  0  0  0  0
   15.4158   46.5568  -12.8790 O   0  0  0  0  0  0
   17.5253   47.0919  -12.2170 N   0  0  0  0  0  0
   17.4807   48.4032  -12.8647 C   0  0  0  0  0  0
   18.6917   46.8567  -11.3590 C   0  0  0  0  0  0
   19.8591   40.3332   -7.2214 H   0  0  0  0  0  0
   18.7491   41.0325   -9.3515 H   0  0  0  0  0  0
   20.3934   42.5333   -8.0294 H   0  0  0  0  0  0
   21.2107   38.5513   -6.1609 H   0  0  0  0  0  0
   21.9499   38.1517   -7.7103 H   0  0  0  0  0  0
   22.2634   39.7110   -6.9685 H   0  0  0  0  0  0
   19.7117   37.5323   -8.3659 H   0  0  0  0  0  0
   18.6587   38.7149   -9.0270 H   0  0  0  0  0  0
   18.0597   37.1808   -6.8406 H   0  0  0  0  0  0
   18.6882   38.5689   -6.0219 H   0  0  0  0  0  0
   16.3370   38.9353   -6.2061 H   0  0  0  0  0  0
   17.0773   40.0234   -7.3341 H   0  0  0  0  0  0
   16.5027   38.3898   -9.2288 H   0  0  0  0  0  0
   15.9110   37.2823   -8.0404 H   0  0  0  0  0  0
   14.1771   39.1590   -7.3953 H   0  0  0  0  0  0
   13.9407   38.1422   -8.7778 H   0  0  0  0  0  0
   14.9903   39.9065  -10.2623 H   0  0  0  0  0  0
   13.4164   40.2281   -9.6252 H   0  0  0  0  0  0
   14.4489   41.6235   -7.7680 H   0  0  0  0  0  0
   16.0062   41.4004   -8.4760 H   0  0  0  0  0  0
   13.9696   43.2033   -9.3232 H   0  0  0  0  0  0
   14.7781   44.9443  -10.6939 H   0  0  0  0  0  0
   18.4760   44.3952  -12.8379 H   0  0  0  0  0  0
   16.8770   41.1780  -10.4885 H   0  0  0  0  0  0
   20.5663   40.7713  -11.5235 H   0  0  0  0  0  0
   21.7193   40.6275   -9.0884 H   0  0  0  0  0  0
   20.8176   39.4185   -9.9301 H   0  0  0  0  0  0
   18.5297   43.5050   -9.8204 H   0  0  0  0  0  0
   21.0605   44.5864   -9.6572 H   0  0  0  0  0  0
   21.1753   43.3740  -10.8712 H   0  0  0  0  0  0
   22.6744   42.2090   -9.1034 H   0  0  0  0  0  0
   23.9839   45.5139   -9.6633 H   0  0  0  0  0  0
   23.7806   46.1354   -7.9435 H   0  0  0  0  0  0
   25.0357   44.1394   -7.0836 H   0  0  0  0  0  0
   25.2323   43.5315   -8.8082 H   0  0  0  0  0  0
   23.2600   42.3090   -6.1531 H   0  0  0  0  0  0
   19.7770   43.7418   -4.0217 H   0  0  0  0  0  0
   19.4894   45.5169   -5.7077 H   0  0  0  0  0  0
   21.0668   45.7016   -7.6052 H   0  0  0  0  0  0
   19.6601   41.5392   -3.3437 H   0  0  0  0  0  0
   20.6648   40.1669   -2.9476 H   0  0  0  0  0  0
   20.2664   40.4939   -4.6302 H   0  0  0  0  0  0
   23.9125   41.5116   -4.0398 H   0  0  0  0  0  0
   22.8992   40.3942   -4.9600 H   0  0  0  0  0  0
   23.0607   40.2019   -3.2406 H   0  0  0  0  0  0
   22.8568   43.2410   -2.4938 H   0  0  0  0  0  0
   22.0599   41.9217   -1.6402 H   0  0  0  0  0  0
   21.1226   43.2676   -2.2235 H   0  0  0  0  0  0
   18.4526   48.8983  -12.8561 H   0  0  0  0  0  0
   16.7646   49.0558  -12.3597 H   0  0  0  0  0  0
   17.1825   48.3099  -13.9127 H   0  0  0  0  0  0
   19.1327   47.7933  -11.0136 H   0  0  0  0  0  0
   19.4613   46.2993  -11.8991 H   0  0  0  0  0  0
   18.4320   46.2929  -10.4607 H   0  0  0  0  0  0
  1  2  1  0  0  0
  1 47  1  0  0  0
  1 48  1  0  0  0
  1 49  1  0  0  0
  2 44  1  0  0  0
  2 21  1  0  0  0
  2  3  1  0  0  0
  3  4  1  0  0  0
  3 50  1  0  0  0
  3 51  1  0  0  0
  4  5  1  0  0  0
  4 52  1  0  0  0
  4 53  1  0  0  0
  5  6  1  0  0  0
  5 54  1  0  0  0
  5 55  1  0  0  0
  6  7  1  0  0  0
  6 56  1  0  0  0
  6 57  1  0  0  0
  7  8  1  0  0  0
  7 58  1  0  0  0
  7 59  1  0  0  0
  8  9  1  0  0  0
  8 60  1  0  0  0
  8 61  1  0  0  0
  9 10  1  0  0  0
  9 62  1  0  0  0
  9 63  1  0  0  0
 10 11  1  0  0  0
 10 64  1  0  0  0
 11 16  1  0  0  0
 11 12  2  0  0  0
 12 13  1  0  0  0
 12 65  1  0  0  0
 13 14  2  0  0  0
 13 39  1  0  0  0
 14 15  1  0  0  0
 14 66  1  0  0  0
 15 16  2  0  0  0
 15 17  1  0  0  0
 16 67  1  0  0  0
 17 18  2  0  0  0
 17 19  1  0  0  0
 19 20  1  0  0  0
 19 68  1  0  0  0
 20 45  1  0  0  0
 20 21  1  0  0  0
 20 22  1  0  0  0
 21 69  1  0  0  0
 21 70  1  0  0  0
 22 46  1  0  0  0
 22 23  1  0  0  0
 22 24  1  0  0  0
 23 71  1  0  0  0
 24 25  1  0  0  0
 24 72  1  0  0  0
 24 73  1  0  0  0
 25 26  1  0  0  0
 25 74  1  0  0  0
 26 28  1  0  0  0
 26 27  1  0  0  0
 26 29  1  0  0  0
 27 28  1  0  0  0
 27 75  1  0  0  0
 27 76  1  0  0  0
 28 77  1  0  0  0
 28 78  1  0  0  0
 29 34  1  0  0  0
 29 30  2  0  0  0
 30 31  1  0  0  0
 30 79  1  0  0  0
 31 32  2  0  0  0
 31 35  1  0  0  0
 32 33  1  0  0  0
 32 80  1  0  0  0
 33 34  2  0  0  0
 33 81  1  0  0  0
 34 82  1  0  0  0
 35 36  1  0  0  0
 35 37  1  0  0  0
 35 38  1  0  0  0
 36 83  1  0  0  0
 36 84  1  0  0  0
 36 85  1  0  0  0
 37 86  1  0  0  0
 37 87  1  0  0  0
 37 88  1  0  0  0
 38 89  1  0  0  0
 38 90  1  0  0  0
 38 91  1  0  0  0
 39 40  2  0  0  0
 39 41  1  0  0  0
 41 42  1  0  0  0
 41 43  1  0  0  0
 42 92  1  0  0  0
 42 93  1  0  0  0
 42 94  1  0  0  0
 43 95  1  0  0  0
 43 96  1  0  0  0
 43 97  1  0  0  0
M  END
> <s_m_source_file>
BACE_68.smi

> <i_m_source_file_index>
1

> <i_lp_mmshare_version>
42013

> <i_f3d_flags>
0

> <s_epik_input>
W05IXTFbQ0gyXVtDSDJdW0NIMl1bQ0gyXVtDSDJdW0NIMl1bQ0gyXVtDQEBIXShbQ0gzXSlbQ0gyXVtDQEhdKFtOSF1DKD1PKWMoW2NIXTIpW2NIXWMoW2NIXWMxMilDKD1PKU4oW0NIM10pW0NIM10pW0NASF0oW09IXSlbQ0gyXVtOSF1DMyhbQ0gyXVtDSDJdMyljNFtjSF1jKEMoW0NIM10pKFtDSDNdKVtDSDNdKVtjSF1bY0hdW2NIXTQ=

> <s_epik_cmdline>
J2VwaWtfcHl0aG9uJywgJy1waCcsICc3LjAnLCAnLXRuJywgJzgnLCAnLW1hJywgJzIwMCcsICctaW1hZScsICc8aW5maWxlLm1hZT4nLCAnLW9tYWUnLCAnPG91dGZpbGUubWFlPic=

> <r_epik_Ionization_Penalty>
  0.3642

> <r_epik_Ionization_Penalty_Charging>
  0.0000

> <r_epik_Ionization_Penalty_Neutral>
  0.3642

> <r_epik_State_Penalty>
  0.3611

> <r_epik_Charging_Adjusted_Penalty>
0.361069

> <i_epik_Tot_Q>
0

> <i_epik_Tot_abs_Q>
0

> <s_lp_Force_Field>
OPLS_2005

> <r_lp_Energy>
68.3834

> <b_lp_Chiralities_Consistent>
1

> <s_lp_Variant>
BACE_68.smi:1-1

> <chiral flag>
1

> <version>
0

> <s_i_glide_gridfile>
second_dock_grid_2

> <i_i_glide_lignum>
135

> <i_i_glide_rotatable_bonds>
9

> <r_i_docking_score>
-3.5901

> <r_i_glide_ligand_efficiency>
-0.0834907

> <r_i_glide_ligand_efficiency_sa>
-0.292501

> <r_i_glide_ligand_efficiency_ln>
-0.754033

> <r_glide_XP_GScore>
-3.9512

> <r_i_glide_gscore>
-3.9512

> <r_i_glide_evdw>
-44.8989

> <r_i_glide_ecoul>
-5.27712

> <r_i_glide_energy>
-50.176

> <r_i_glide_einternal>
6.96295

> <r_i_glide_emodel>
-68.2466

> <r_glide_XP_HBond>
-1.36883

> <i_i_glide_confnum>
1

> <i_i_glide_posenum>
3

> <r_i_glide_eff_state_penalty>
0.3611

> <i_glide_XP_PoseRank>
1

$$$$
BACE_68.smi:1
                    3D
 Structure written by MMmdl.
 98101  0  0  1  0            999 V2000
   20.3693   39.0352   -6.8815 C   0  0  0  0  0  0
   19.8099   39.0172   -8.3158 C   0  0  2  0  0  0
   18.9687   37.7469   -8.5417 C   0  0  0  0  0  0
   17.8501   37.8494   -9.5937 C   0  0  0  0  0  0
   16.7290   38.7796   -9.1155 C   0  0  0  0  0  0
   15.4501   38.7573   -9.9598 C   0  0  0  0  0  0
   14.3249   39.6270   -9.3658 C   0  0  0  0  0  0
   14.6310   41.1367   -9.3136 C   0  0  0  0  0  0
   15.3410   41.5742   -8.0132 C   0  0  0  0  0  0
   15.8343   42.9440   -8.0403 N   0  0  0  0  0  0
   17.1980   43.0867   -8.3324 C   0  0  0  0  0  0
   17.9728   43.8587   -7.4538 C   0  0  0  0  0  0
   19.3724   43.9874   -7.6181 C   0  0  0  0  0  0
   19.9801   43.3170   -8.7108 C   0  0  0  0  0  0
   19.2081   42.5744   -9.6315 C   0  0  0  0  0  0
   17.8164   42.4796   -9.4451 C   0  0  0  0  0  0
   19.8224   41.9443  -10.8512 C   0  0  0  0  0  0
   19.3397   42.1717  -11.9600 O   0  0  0  0  0  0
   20.8809   41.1268  -10.7284 N   0  0  0  0  0  0
   21.5081   40.5378   -9.5391 C   0  0  1  0  0  0
   20.9486   39.1101   -9.3492 C   0  0  0  0  0  0
   23.0474   40.5249   -9.7059 C   0  0  2  0  0  0
   23.6582   40.1787   -8.4807 O   0  0  0  0  0  0
   23.6685   41.8722  -10.1249 C   0  0  0  0  0  0
   25.1075   41.7111  -10.4388 N   0  3  0  0  0  0
   25.8726   42.8820  -10.9573 C   0  0  0  0  0  0
   25.3624   43.3981  -12.2876 C   0  0  0  0  0  0
   25.1692   44.2294  -11.0376 C   0  0  0  0  0  0
   27.3513   42.7676  -10.7274 C   0  0  0  0  0  0
   28.0119   43.6241   -9.8194 C   0  0  0  0  0  0
   29.4170   43.5701   -9.6386 C   0  0  0  0  0  0
   30.1468   42.6263  -10.3980 C   0  0  0  0  0  0
   29.4971   41.7519  -11.2837 C   0  0  0  0  0  0
   28.1060   41.8271  -11.4503 C   0  0  0  0  0  0
   30.1339   44.5461   -8.6827 C   0  0  0  0  0  0
   31.4063   43.9154   -8.0697 C   0  0  0  0  0  0
   30.5376   45.7999   -9.4783 C   0  0  0  0  0  0
   29.2351   44.9968   -7.5062 C   0  0  0  0  0  0
   20.1568   44.7161   -6.5491 C   0  0  0  0  0  0
   19.6605   44.8161   -5.4244 O   0  0  0  0  0  0
   21.3890   45.2357   -6.8190 N   0  0  0  0  0  0
   22.2820   45.6157   -5.7159 C   0  0  0  0  0  0
   21.8769   45.6583   -8.1337 C   0  0  0  0  0  0
   19.1718   39.8926   -8.4147 H   0  0  0  0  0  0
   21.2946   41.1252   -8.6511 H   0  0  0  0  0  0
   23.2876   39.7588  -10.4471 H   0  0  0  0  0  0
   19.5581   39.0390   -6.1518 H   0  0  0  0  0  0
   20.9770   39.9192   -6.6871 H   0  0  0  0  0  0
   20.9876   38.1600   -6.6827 H   0  0  0  0  0  0
   18.5184   37.4203   -7.6035 H   0  0  0  0  0  0
   19.6464   36.9513   -8.8458 H   0  0  0  0  0  0
   18.2478   38.1917  -10.5495 H   0  0  0  0  0  0
   17.4435   36.8517   -9.7688 H   0  0  0  0  0  0
   16.4753   38.5324   -8.0837 H   0  0  0  0  0  0
   17.1293   39.7840   -9.1258 H   0  0  0  0  0  0
   15.0936   37.7320  -10.0372 H   0  0  0  0  0  0
   15.6730   39.0906  -10.9730 H   0  0  0  0  0  0
   13.4396   39.4778   -9.9812 H   0  0  0  0  0  0
   14.0445   39.2711   -8.3724 H   0  0  0  0  0  0
   13.6948   41.6892   -9.3794 H   0  0  0  0  0  0
   15.1825   41.4221  -10.2037 H   0  0  0  0  0  0
   16.1511   40.9126   -7.7210 H   0  0  0  0  0  0
   14.6318   41.5006   -7.1886 H   0  0  0  0  0  0
   15.6109   43.3501   -7.1281 H   0  0  0  0  0  0
   17.4927   44.3181   -6.6058 H   0  0  0  0  0  0
   21.0436   43.3510   -8.8610 H   0  0  0  0  0  0
   17.2383   41.9135  -10.1563 H   0  0  0  0  0  0
   21.2128   40.7586  -11.6093 H   0  0  0  0  0  0
   21.7365   38.4199   -9.0464 H   0  0  0  0  0  0
   20.6153   38.7259  -10.3163 H   0  0  0  0  0  0
   23.8675   39.2559   -8.5243 H   0  0  0  0  0  0
   23.5348   42.6074   -9.3317 H   0  0  0  0  0  0
   23.1592   42.2525  -11.0071 H   0  0  0  0  0  0
   25.1894   40.9726  -11.1266 H   0  0  0  0  0  0
   26.0950   43.7614  -13.0070 H   0  0  0  0  0  0
   24.4703   42.9664  -12.7309 H   0  0  0  0  0  0
   24.1451   44.3500  -10.6941 H   0  0  0  0  0  0
   25.7808   45.1248  -10.9608 H   0  0  0  0  0  0
   27.4148   44.3457   -9.2808 H   0  0  0  0  0  0
   31.2212   42.5559  -10.3161 H   0  0  0  0  0  0
   30.0667   41.0261  -11.8474 H   0  0  0  0  0  0
   27.6218   41.1533  -12.1429 H   0  0  0  0  0  0
   31.1968   42.9562   -7.5956 H   0  0  0  0  0  0
   31.8426   44.5627   -7.3098 H   0  0  0  0  0  0
   32.1895   43.7501   -8.8083 H   0  0  0  0  0  0
   29.6673   46.2889   -9.9173 H   0  0  0  0  0  0
   31.2196   45.5592  -10.2934 H   0  0  0  0  0  0
   31.0342   46.5333   -8.8407 H   0  0  0  0  0  0
   28.3857   45.5977   -7.8299 H   0  0  0  0  0  0
   29.7857   45.6214   -6.8049 H   0  0  0  0  0  0
   28.8458   44.1499   -6.9402 H   0  0  0  0  0  0
   23.3276   45.5985   -6.0326 H   0  0  0  0  0  0
   22.2004   44.9196   -4.8744 H   0  0  0  0  0  0
   22.0579   46.6245   -5.3557 H   0  0  0  0  0  0
   22.4132   46.6067   -8.0513 H   0  0  0  0  0  0
   21.0732   45.8157   -8.8562 H   0  0  0  0  0  0
   22.5801   44.9280   -8.5288 H   0  0  0  0  0  0
   25.5535   41.3937   -9.5900 H   0  0  0  0  0  0
  1  2  1  0  0  0
  1 47  1  0  0  0
  1 48  1  0  0  0
  1 49  1  0  0  0
  2 44  1  0  0  0
  2 21  1  0  0  0
  2  3  1  0  0  0
  3  4  1  0  0  0
  3 50  1  0  0  0
  3 51  1  0  0  0
  4  5  1  0  0  0
  4 52  1  0  0  0
  4 53  1  0  0  0
  5  6  1  0  0  0
  5 54  1  0  0  0
  5 55  1  0  0  0
  6  7  1  0  0  0
  6 56  1  0  0  0
  6 57  1  0  0  0
  7  8  1  0  0  0
  7 58  1  0  0  0
  7 59  1  0  0  0
  8  9  1  0  0  0
  8 60  1  0  0  0
  8 61  1  0  0  0
  9 10  1  0  0  0
  9 62  1  0  0  0
  9 63  1  0  0  0
 10 11  1  0  0  0
 10 64  1  0  0  0
 11 16  1  0  0  0
 11 12  2  0  0  0
 12 13  1  0  0  0
 12 65  1  0  0  0
 13 14  2  0  0  0
 13 39  1  0  0  0
 14 15  1  0  0  0
 14 66  1  0  0  0
 15 16  2  0  0  0
 15 17  1  0  0  0
 16 67  1  0  0  0
 17 18  2  0  0  0
 17 19  1  0  0  0
 19 20  1  0  0  0
 19 68  1  0  0  0
 20 45  1  0  0  0
 20 21  1  0  0  0
 20 22  1  0  0  0
 21 69  1  0  0  0
 21 70  1  0  0  0
 22 46  1  0  0  0
 22 23  1  0  0  0
 22 24  1  0  0  0
 23 71  1  0  0  0
 24 25  1  0  0  0
 24 72  1  0  0  0
 24 73  1  0  0  0
 25 26  1  0  0  0
 25 74  1  0  0  0
 25 98  1  0  0  0
 26 28  1  0  0  0
 26 27  1  0  0  0
 26 29  1  0  0  0
 27 28  1  0  0  0
 27 75  1  0  0  0
 27 76  1  0  0  0
 28 77  1  0  0  0
 28 78  1  0  0  0
 29 34  1  0  0  0
 29 30  2  0  0  0
 30 31  1  0  0  0
 30 79  1  0  0  0
 31 32  2  0  0  0
 31 35  1  0  0  0
 32 33  1  0  0  0
 32 80  1  0  0  0
 33 34  2  0  0  0
 33 81  1  0  0  0
 34 82  1  0  0  0
 35 36  1  0  0  0
 35 37  1  0  0  0
 35 38  1  0  0  0
 36 83  1  0  0  0
 36 84  1  0  0  0
 36 85  1  0  0  0
 37 86  1  0  0  0
 37 87  1  0  0  0
 37 88  1  0  0  0
 38 89  1  0  0  0
 38 90  1  0  0  0
 38 91  1  0  0  0
 39 40  2  0  0  0
 39 41  1  0  0  0
 41 42  1  0  0  0
 41 43  1  0  0  0
 42 92  1  0  0  0
 42 93  1  0  0  0
 42 94  1  0  0  0
 43 95  1  0  0  0
 43 96  1  0  0  0
 43 97  1  0  0  0
M  CHG  1  25   1
M  END
> <s_m_source_file>
BACE_68.smi

> <i_m_source_file_index>
1

> <i_lp_mmshare_version>
42013

> <i_f3d_flags>
0

> <s_epik_input>
W05IXTFbQ0gyXVtDSDJdW0NIMl1bQ0gyXVtDSDJdW0NIMl1bQ0gyXVtDQEBIXShbQ0gzXSlbQ0gyXVtDQEhdKFtOSF1DKD1PKWMoW2NIXTIpW2NIXWMoW2NIXWMxMilDKD1PKU4oW0NIM10pW0NIM10pW0NASF0oW09IXSlbQ0gyXVtOSF1DMyhbQ0gyXVtDSDJdMyljNFtjSF1jKEMoW0NIM10pKFtDSDNdKVtDSDNdKVtjSF1bY0hdW2NIXTQ=

> <s_epik_cmdline>
J2VwaWtfcHl0aG9uJywgJy1waCcsICc3LjAnLCAnLXRuJywgJzgnLCAnLW1hJywgJzIwMCcsICctaW1hZScsICc8aW5maWxlLm1hZT4nLCAnLW9tYWUnLCAnPG91dGZpbGUubWFlPic=

> <r_epik_Ionization_Penalty>
  0.4614

> <r_epik_Ionization_Penalty_Charging>
  0.4613

> <r_epik_Ionization_Penalty_Neutral>
  0.0001

> <r_epik_State_Penalty>
  0.4648

> <r_epik_Charging_Adjusted_Penalty>
0.926118

> <i_epik_Tot_Q>
1

> <i_epik_Tot_abs_Q>
1

> <s_lp_Force_Field>
OPLS_2005

> <r_lp_Energy>
55.0954

> <b_lp_Chiralities_Consistent>
1

> <s_lp_Variant>
BACE_68.smi:1-2

> <chiral flag>
1

> <version>
0

> <s_i_glide_gridfile>
second_dock_grid_2

> <i_i_glide_lignum>
136

> <i_i_glide_rotatable_bonds>
9

> <r_i_docking_score>
-4.54715

> <r_i_glide_ligand_efficiency>
-0.105748

> <r_i_glide_ligand_efficiency_sa>
-0.370476

> <r_i_glide_ligand_efficiency_ln>
-0.955044

> <r_glide_XP_GScore>
-5.01195

> <r_i_glide_gscore>
-5.01195

> <r_i_glide_evdw>
-41.0314

> <r_i_glide_ecoul>
-15.3035

> <r_i_glide_energy>
-56.3349

> <r_i_glide_einternal>
5.45964

> <r_i_glide_emodel>
-74.1507

> <r_glide_XP_HBond>
-0.845399

> <i_i_glide_confnum>
1

> <i_i_glide_posenum>
8

> <r_i_glide_eff_state_penalty>
0.4648

> <i_glide_XP_PoseRank>
1

$$$$
BACE_69.smi:1
                    3D
 Structure written by MMmdl.
 98100  0  0  1  0            999 V2000
   23.3762   41.7850  -10.8416 C   0  0  0  0  0  0
   21.9542   41.5446  -11.3747 C   0  0  0  0  0  0
   21.1435   42.8490  -11.4280 C   0  0  0  0  0  0
   21.2210   40.4714  -10.5797 C   0  0  0  0  0  0
   21.3202   40.4312   -9.1728 C   0  0  0  0  0  0
   20.6250   39.4556   -8.4305 C   0  0  0  0  0  0
   20.7269   39.4511   -6.9197 C   0  0  0  0  0  0
   20.0600   40.6444   -6.3674 N   0  3  0  0  0  0
   20.5290   41.9227   -6.9359 C   0  0  0  0  0  0
   19.8591   43.1157   -6.2288 C   0  0  1  0  0  0
   20.1065   42.9949   -4.8405 O   0  0  0  0  0  0
   20.3636   44.4850   -6.7535 C   0  0  2  0  0  0
   21.9101   44.5920   -6.8414 C   0  0  0  0  0  0
   22.5027   45.7500   -7.6847 C   0  0  2  0  0  0
   22.2787   47.1412   -7.0650 C   0  0  0  0  0  0
   22.0745   45.6841   -9.1668 C   0  0  0  0  0  0
   22.9243   46.5709  -10.0985 C   0  0  0  0  0  0
   22.6279   46.3789  -11.5984 C   0  0  0  0  0  0
   21.5684   47.3264  -12.1918 C   0  0  0  0  0  0
   20.1441   47.1077  -11.6613 C   0  0  0  0  0  0
   19.0873   47.8913  -12.4556 C   0  0  0  0  0  0
   17.6468   47.6232  -11.9823 C   0  0  0  0  0  0
   17.3881   48.0952  -10.6156 N   0  0  0  0  0  0
   17.3164   47.0837   -9.6404 C   0  0  0  0  0  0
   18.0628   47.2187   -8.4512 C   0  0  0  0  0  0
   18.0183   46.2236   -7.4558 C   0  0  0  0  0  0
   17.1962   45.0917   -7.6383 C   0  0  0  0  0  0
   16.4253   44.9432   -8.8145 C   0  0  0  0  0  0
   16.4958   45.9449   -9.8069 C   0  0  0  0  0  0
   15.5869   43.8293   -9.0093 N   0  0  0  0  0  0
   16.0935   42.5788   -8.4562 C   0  0  0  0  0  0
   14.1232   43.7948   -9.9610 S   0  0  0  0  0  0
   13.7986   41.9989  -10.2090 C   0  0  0  0  0  0
   13.0610   44.3521   -9.1095 O   0  0  0  0  0  0
   14.4621   44.4143  -11.2511 O   0  0  0  0  0  0
   18.8044   46.4086   -6.1923 C   0  0  0  0  0  0
   18.5359   47.3425   -5.4410 O   0  0  0  0  0  0
   19.8082   45.5536   -5.9194 N   0  0  0  0  0  0
   17.4140   49.8079  -10.2598 S   0  0  0  0  0  0
   19.1200   50.3541  -10.6885 C   0  0  0  0  0  0
   16.4705   50.4271  -11.2031 O   0  0  0  0  0  0
   17.2098   49.9311   -8.8082 O   0  0  0  0  0  0
   19.8259   38.5065   -9.0999 C   0  0  0  0  0  0
   19.7279   38.5356  -10.5044 C   0  0  0  0  0  0
   20.4216   39.5150  -11.2421 C   0  0  0  0  0  0
   18.7821   43.0462   -6.3826 H   0  0  0  0  0  0
   19.9774   44.5914   -7.7657 H   0  0  0  0  0  0
   23.5810   45.5855   -7.6626 H   0  0  0  0  0  0
   23.9552   40.8608  -10.8413 H   0  0  0  0  0  0
   23.3692   42.1750   -9.8234 H   0  0  0  0  0  0
   23.9089   42.5051  -11.4633 H   0  0  0  0  0  0
   22.0553   41.1854  -12.3999 H   0  0  0  0  0  0
   20.1645   42.6824  -11.8781 H   0  0  0  0  0  0
   21.6548   43.6053  -12.0243 H   0  0  0  0  0  0
   20.9847   43.2649  -10.4329 H   0  0  0  0  0  0
   21.9265   41.1590   -8.6573 H   0  0  0  0  0  0
   20.2734   38.5481   -6.5087 H   0  0  0  0  0  0
   21.7794   39.4452   -6.6328 H   0  0  0  0  0  0
   19.0703   40.5634   -6.5498 H   0  0  0  0  0  0
   21.6164   41.9806   -6.8706 H   0  0  0  0  0  0
   20.2745   41.9340   -7.9963 H   0  0  0  0  0  0
   19.5827   42.2845   -4.5011 H   0  0  0  0  0  0
   22.3277   44.6422   -5.8349 H   0  0  0  0  0  0
   22.2981   43.6636   -7.2605 H   0  0  0  0  0  0
   21.2604   47.4955   -7.2199 H   0  0  0  0  0  0
   22.9455   47.8810   -7.5078 H   0  0  0  0  0  0
   22.4765   47.1341   -5.9931 H   0  0  0  0  0  0
   22.1547   44.6514   -9.5079 H   0  0  0  0  0  0
   21.0227   45.9477   -9.2535 H   0  0  0  0  0  0
   22.8210   47.6236   -9.8345 H   0  0  0  0  0  0
   23.9732   46.3239   -9.9306 H   0  0  0  0  0  0
   23.5553   46.5589  -12.1433 H   0  0  0  0  0  0
   22.3686   45.3407  -11.8076 H   0  0  0  0  0  0
   21.8647   48.3631  -12.0275 H   0  0  0  0  0  0
   21.5640   47.1851  -13.2733 H   0  0  0  0  0  0
   19.9014   46.0448  -11.6862 H   0  0  0  0  0  0
   20.1018   47.4197  -10.6190 H   0  0  0  0  0  0
   19.3102   48.9573  -12.4208 H   0  0  0  0  0  0
   19.1582   47.6093  -13.5065 H   0  0  0  0  0  0
   16.9431   48.1069  -12.6583 H   0  0  0  0  0  0
   17.4539   46.5580  -12.1038 H   0  0  0  0  0  0
   18.6869   48.0886   -8.3037 H   0  0  0  0  0  0
   17.1317   44.3531   -6.8542 H   0  0  0  0  0  0
   15.9009   45.8435  -10.7026 H   0  0  0  0  0  0
   17.1830   42.5393   -8.4629 H   0  0  0  0  0  0
   15.7462   41.7360   -9.0525 H   0  0  0  0  0  0
   15.7427   42.4409   -7.4332 H   0  0  0  0  0  0
   12.8433   41.8768  -10.7191 H   0  0  0  0  0  0
   13.7556   41.4971   -9.2425 H   0  0  0  0  0  0
   14.5830   41.5559  -10.8207 H   0  0  0  0  0  0
   20.2994   45.7197   -5.0527 H   0  0  0  0  0  0
   19.1900   51.4345  -10.5658 H   0  0  0  0  0  0
   19.3364   50.0962  -11.7251 H   0  0  0  0  0  0
   19.8433   49.8756  -10.0294 H   0  0  0  0  0  0
   19.2847   37.7569   -8.5412 H   0  0  0  0  0  0
   19.1152   37.8086  -11.0169 H   0  0  0  0  0  0
   20.3325   39.5296  -12.3186 H   0  0  0  0  0  0
   20.2011   40.6624   -5.3671 H   0  0  0  0  0  0
  1  2  1  0  0  0
  1 49  1  0  0  0
  1 50  1  0  0  0
  1 51  1  0  0  0
  2  3  1  0  0  0
  2  4  1  0  0  0
  2 52  1  0  0  0
  3 53  1  0  0  0
  3 54  1  0  0  0
  3 55  1  0  0  0
  4 45  1  0  0  0
  4  5  2  0  0  0
  5  6  1  0  0  0
  5 56  1  0  0  0
  6  7  1  0  0  0
  6 43  2  0  0  0
  7  8  1  0  0  0
  7 57  1  0  0  0
  7 58  1  0  0  0
  8  9  1  0  0  0
  8 59  1  0  0  0
  8 98  1  0  0  0
  9 10  1  0  0  0
  9 60  1  0  0  0
  9 61  1  0  0  0
 10 46  1  0  0  0
 10 11  1  0  0  0
 10 12  1  0  0  0
 11 62  1  0  0  0
 12 47  1  0  0  0
 12 38  1  0  0  0
 12 13  1  0  0  0
 13 14  1  0  0  0
 13 63  1  0  0  0
 13 64  1  0  0  0
 14 48  1  0  0  0
 14 15  1  0  0  0
 14 16  1  0  0  0
 15 65  1  0  0  0
 15 66  1  0  0  0
 15 67  1  0  0  0
 16 17  1  0  0  0
 16 68  1  0  0  0
 16 69  1  0  0  0
 17 18  1  0  0  0
 17 70  1  0  0  0
 17 71  1  0  0  0
 18 19  1  0  0  0
 18 72  1  0  0  0
 18 73  1  0  0  0
 19 20  1  0  0  0
 19 74  1  0  0  0
 19 75  1  0  0  0
 20 21  1  0  0  0
 20 76  1  0  0  0
 20 77  1  0  0  0
 21 22  1  0  0  0
 21 78  1  0  0  0
 21 79  1  0  0  0
 22 23  1  0  0  0
 22 80  1  0  0  0
 22 81  1  0  0  0
 23 24  1  0  0  0
 23 39  1  0  0  0
 24 29  1  0  0  0
 24 25  2  0  0  0
 25 26  1  0  0  0
 25 82  1  0  0  0
 26 27  2  0  0  0
 26 36  1  0  0  0
 27 28  1  0  0  0
 27 83  1  0  0  0
 28 29  2  0  0  0
 28 30  1  0  0  0
 29 84  1  0  0  0
 30 31  1  0  0  0
 30 32  1  0  0  0
 31 85  1  0  0  0
 31 86  1  0  0  0
 31 87  1  0  0  0
 32 33  1  0  0  0
 32 34  2  0  0  0
 32 35  2  0  0  0
 33 88  1  0  0  0
 33 89  1  0  0  0
 33 90  1  0  0  0
 36 37  2  0  0  0
 36 38  1  0  0  0
 38 91  1  0  0  0
 39 40  1  0  0  0
 39 41  2  0  0  0
 39 42  2  0  0  0
 40 92  1  0  0  0
 40 93  1  0  0  0
 40 94  1  0  0  0
 43 44  1  0  0  0
 43 95  1  0  0  0
 44 45  2  0  0  0
 44 96  1  0  0  0
 45 97  1  0  0  0
M  CHG  1   8   1
M  END
> <s_m_source_file>
BACE_69.smi

> <i_m_source_file_index>
1

> <i_lp_mmshare_version>
42013

> <i_f3d_flags>
0

> <s_epik_input>
W0NIM11bQ0hdKFtDSDNdKWMxW2NIXWMoW2NIXVtjSF1bY0hdMSlbQ0gyXVtOSF1bQ0gyXVtDQEBIXShbT0hdKVtDQEBIXShbTkhdQyg9TyljKFtjSF1jMjMpW2NIXWMoW2NIXTMpTihbQ0gzXSlTKD1PKSg9TylbQ0gzXSlbQ0gyXVtDQEhdKFtDSDNdKVtDSDJdW0NIMl1bQ0gyXVtDSDJdW0NIMl1bQ0gyXVtDSDJdTjJTKD1PKSg9TylbQ0gzXQ==

> <s_epik_cmdline>
J2VwaWtfcHl0aG9uJywgJy1waCcsICc3LjAnLCAnLXRuJywgJzgnLCAnLW1hJywgJzIwMCcsICctaW1hZScsICc8aW5maWxlLm1hZT4nLCAnLW9tYWUnLCAnPG91dGZpbGUubWFlPic=

> <r_epik_Ionization_Penalty>
  0.0165

> <r_epik_Ionization_Penalty_Charging>
  0.0165

> <r_epik_Ionization_Penalty_Neutral>
  0.0000

> <r_epik_State_Penalty>
  0.0130

> <r_epik_Charging_Adjusted_Penalty>
0.0295552

> <i_epik_Tot_Q>
1

> <i_epik_Tot_abs_Q>
1

> <s_lp_Force_Field>
OPLS_2005

> <r_lp_Energy>
27.0295

> <b_lp_Chiralities_Consistent>
1

> <s_lp_Variant>
BACE_69.smi:1-1

> <chiral flag>
1

> <version>
0

> <s_i_glide_gridfile>
second_dock_grid_2

> <i_i_glide_lignum>
137

> <i_i_glide_rotatable_bonds>
10

> <r_i_docking_score>
-6.22529

> <r_i_glide_ligand_efficiency>
-0.13834

> <r_i_glide_ligand_efficiency_sa>
-0.49206

> <r_i_glide_ligand_efficiency_ln>
-1.29514

> <r_glide_XP_GScore>
-6.23829

> <r_i_glide_gscore>
-6.23829

> <r_i_glide_evdw>
-39.8809

> <r_i_glide_ecoul>
-16.4587

> <r_i_glide_energy>
-56.3396

> <r_i_glide_einternal>
4.18309

> <r_i_glide_emodel>
-81.651

> <r_glide_XP_HBond>
0

> <i_i_glide_confnum>
1

> <i_i_glide_posenum>
37

> <r_i_glide_eff_state_penalty>
0.013

> <i_glide_XP_PoseRank>
1

$$$$
BACE_69.smi:1
                    3D
 Structure written by MMmdl.
 97 99  0  0  1  0            999 V2000
   16.9015   36.3355   -9.2928 C   0  0  0  0  0  0
   17.3585   37.6047   -8.5613 C   0  0  0  0  0  0
   16.2808   38.6993   -8.5608 C   0  0  0  0  0  0
   18.6868   38.1071   -9.1042 C   0  0  0  0  0  0
   19.8053   38.1504   -8.2517 C   0  0  0  0  0  0
   21.0471   38.6193   -8.7198 C   0  0  0  0  0  0
   22.1852   38.7991   -7.7379 C   0  0  0  0  0  0
   22.3184   40.1456   -7.1559 N   0  0  0  0  0  0
   21.0784   40.7375   -6.6426 C   0  0  0  0  0  0
   20.3351   41.5379   -7.7412 C   0  0  1  0  0  0
   18.9495   41.3004   -7.6364 O   0  0  0  0  0  0
   20.6541   43.0542   -7.8032 C   0  0  2  0  0  0
   22.1414   43.2677   -8.1966 C   0  0  0  0  0  0
   22.6005   44.6759   -8.6524 C   0  0  2  0  0  0
   22.6558   45.7220   -7.5259 C   0  0  0  0  0  0
   21.8347   45.1740   -9.8926 C   0  0  0  0  0  0
   22.5223   46.3551  -10.6057 C   0  0  0  0  0  0
   21.9230   46.6765  -11.9861 C   0  0  0  0  0  0
   20.8444   47.7753  -12.0015 C   0  0  0  0  0  0
   19.5635   47.4207  -11.2313 C   0  0  0  0  0  0
   18.4531   48.4664  -11.4201 C   0  0  0  0  0  0
   17.1659   48.1543  -10.6408 C   0  0  0  0  0  0
   17.3658   48.0343   -9.1893 N   0  0  0  0  0  0
   17.3866   46.7172   -8.6887 C   0  0  0  0  0  0
   18.3936   46.3658   -7.7712 C   0  0  0  0  0  0
   18.4724   45.0630   -7.2558 C   0  0  0  0  0  0
   17.5004   44.1154   -7.6228 C   0  0  0  0  0  0
   16.4684   44.4195   -8.5426 C   0  0  0  0  0  0
   16.4332   45.7357   -9.0630 C   0  0  0  0  0  0
   15.5018   43.4703   -8.9636 N   0  0  0  0  0  0
   15.1805   42.3703   -8.0435 C   0  0  0  0  0  0
   14.6030   43.5404  -10.4682 S   0  0  0  0  0  0
   13.8007   41.8960  -10.6514 C   0  0  0  0  0  0
   13.5517   44.5496  -10.2714 O   0  0  0  0  0  0
   15.5966   43.6961  -11.5409 O   0  0  0  0  0  0
   19.5488   44.7269   -6.2665 C   0  0  0  0  0  0
   19.6607   45.4010   -5.2474 O   0  0  0  0  0  0
   20.3857   43.7074   -6.5215 N   0  0  0  0  0  0
   17.5837   49.4807   -8.2218 S   0  0  0  0  0  0
   19.3815   49.8592   -8.3223 C   0  0  0  0  0  0
   16.8312   50.5518   -8.8870 O   0  0  0  0  0  0
   17.2613   49.1041   -6.8398 O   0  0  0  0  0  0
   21.1953   38.9882  -10.0703 C   0  0  0  0  0  0
   20.0779   38.9513  -10.9287 C   0  0  0  0  0  0
   18.8233   38.5401  -10.4400 C   0  0  0  0  0  0
   20.5817   41.1521   -8.7250 H   0  0  0  0  0  0
   20.0397   43.4777   -8.5964 H   0  0  0  0  0  0
   23.6366   44.5310   -8.9659 H   0  0  0  0  0  0
   17.6965   35.5911   -9.3173 H   0  0  0  0  0  0
   16.6004   36.5520  -10.3192 H   0  0  0  0  0  0
   16.0559   35.8806   -8.7862 H   0  0  0  0  0  0
   17.5194   37.3326   -7.5172 H   0  0  0  0  0  0
   16.6065   39.5477   -7.9609 H   0  0  0  0  0  0
   15.3524   38.3298   -8.1226 H   0  0  0  0  0  0
   16.0628   39.0577   -9.5649 H   0  0  0  0  0  0
   19.6989   37.8703   -7.2127 H   0  0  0  0  0  0
   22.0600   38.0657   -6.9392 H   0  0  0  0  0  0
   23.1116   38.5502   -8.2564 H   0  0  0  0  0  0
   22.9749   40.0828   -6.3851 H   0  0  0  0  0  0
   20.4394   39.9566   -6.2288 H   0  0  0  0  0  0
   21.3064   41.3910   -5.8014 H   0  0  0  0  0  0
   18.6907   41.3500   -6.7234 H   0  0  0  0  0  0
   22.7838   42.9453   -7.3754 H   0  0  0  0  0  0
   22.3759   42.5831   -9.0129 H   0  0  0  0  0  0
   21.6725   46.1278   -7.3014 H   0  0  0  0  0  0
   23.2867   46.5649   -7.8056 H   0  0  0  0  0  0
   23.0688   45.3012   -6.6094 H   0  0  0  0  0  0
   21.7502   44.3474  -10.5995 H   0  0  0  0  0  0
   20.8160   45.4350   -9.6153 H   0  0  0  0  0  0
   22.5219   47.2462   -9.9776 H   0  0  0  0  0  0
   23.5708   46.0941  -10.7524 H   0  0  0  0  0  0
   22.7337   47.0102  -12.6350 H   0  0  0  0  0  0
   21.5412   45.7628  -12.4397 H   0  0  0  0  0  0
   21.2606   48.7021  -11.6085 H   0  0  0  0  0  0
   20.5852   47.9808  -13.0414 H   0  0  0  0  0  0
   19.2006   46.4424  -11.5462 H   0  0  0  0  0  0
   19.8032   47.3437  -10.1734 H   0  0  0  0  0  0
   18.8195   49.4555  -11.1592 H   0  0  0  0  0  0
   18.2062   48.5270  -12.4811 H   0  0  0  0  0  0
   16.4457   48.9487  -10.8269 H   0  0  0  0  0  0
   16.7224   47.2676  -11.0862 H   0  0  0  0  0  0
   19.1278   47.0879   -7.4549 H   0  0  0  0  0  0
   17.5706   43.1516   -7.1588 H   0  0  0  0  0  0
   15.6429   46.0088   -9.7425 H   0  0  0  0  0  0
   15.7967   42.2398   -7.1631 H   0  0  0  0  0  0
   15.2491   41.4159   -8.5579 H   0  0  0  0  0  0
   14.1570   42.4890   -7.6899 H   0  0  0  0  0  0
   13.1759   41.8954  -11.5401 H   0  0  0  0  0  0
   13.1683   41.6884   -9.7881 H   0  0  0  0  0  0
   14.5584   41.1174  -10.7332 H   0  0  0  0  0  0
   21.0449   43.5006   -5.7856 H   0  0  0  0  0  0
   19.6239   50.6128   -7.5734 H   0  0  0  0  0  0
   19.6280   50.2514   -9.3056 H   0  0  0  0  0  0
   19.9753   48.9683   -8.1337 H   0  0  0  0  0  0
   22.1482   39.3464  -10.4348 H   0  0  0  0  0  0
   20.1776   39.2641  -11.9594 H   0  0  0  0  0  0
   17.9723   38.5449  -11.1026 H   0  0  0  0  0  0
  1  2  1  0  0  0
  1 49  1  0  0  0
  1 50  1  0  0  0
  1 51  1  0  0  0
  2  3  1  0  0  0
  2  4  1  0  0  0
  2 52  1  0  0  0
  3 53  1  0  0  0
  3 54  1  0  0  0
  3 55  1  0  0  0
  4 45  1  0  0  0
  4  5  2  0  0  0
  5  6  1  0  0  0
  5 56  1  0  0  0
  6  7  1  0  0  0
  6 43  2  0  0  0
  7  8  1  0  0  0
  7 57  1  0  0  0
  7 58  1  0  0  0
  8  9  1  0  0  0
  8 59  1  0  0  0
  9 10  1  0  0  0
  9 60  1  0  0  0
  9 61  1  0  0  0
 10 46  1  0  0  0
 10 11  1  0  0  0
 10 12  1  0  0  0
 11 62  1  0  0  0
 12 47  1  0  0  0
 12 38  1  0  0  0
 12 13  1  0  0  0
 13 14  1  0  0  0
 13 63  1  0  0  0
 13 64  1  0  0  0
 14 48  1  0  0  0
 14 15  1  0  0  0
 14 16  1  0  0  0
 15 65  1  0  0  0
 15 66  1  0  0  0
 15 67  1  0  0  0
 16 17  1  0  0  0
 16 68  1  0  0  0
 16 69  1  0  0  0
 17 18  1  0  0  0
 17 70  1  0  0  0
 17 71  1  0  0  0
 18 19  1  0  0  0
 18 72  1  0  0  0
 18 73  1  0  0  0
 19 20  1  0  0  0
 19 74  1  0  0  0
 19 75  1  0  0  0
 20 21  1  0  0  0
 20 76  1  0  0  0
 20 77  1  0  0  0
 21 22  1  0  0  0
 21 78  1  0  0  0
 21 79  1  0  0  0
 22 23  1  0  0  0
 22 80  1  0  0  0
 22 81  1  0  0  0
 23 24  1  0  0  0
 23 39  1  0  0  0
 24 29  1  0  0  0
 24 25  2  0  0  0
 25 26  1  0  0  0
 25 82  1  0  0  0
 26 27  2  0  0  0
 26 36  1  0  0  0
 27 28  1  0  0  0
 27 83  1  0  0  0
 28 29  2  0  0  0
 28 30  1  0  0  0
 29 84  1  0  0  0
 30 31  1  0  0  0
 30 32  1  0  0  0
 31 85  1  0  0  0
 31 86  1  0  0  0
 31 87  1  0  0  0
 32 33  1  0  0  0
 32 34  2  0  0  0
 32 35  2  0  0  0
 33 88  1  0  0  0
 33 89  1  0  0  0
 33 90  1  0  0  0
 36 37  2  0  0  0
 36 38  1  0  0  0
 38 91  1  0  0  0
 39 40  1  0  0  0
 39 41  2  0  0  0
 39 42  2  0  0  0
 40 92  1  0  0  0
 40 93  1  0  0  0
 40 94  1  0  0  0
 43 44  1  0  0  0
 43 95  1  0  0  0
 44 45  2  0  0  0
 44 96  1  0  0  0
 45 97  1  0  0  0
M  END
> <s_m_source_file>
BACE_69.smi

> <i_m_source_file_index>
1

> <i_lp_mmshare_version>
42013

> <i_f3d_flags>
0

> <s_epik_input>
W0NIM11bQ0hdKFtDSDNdKWMxW2NIXWMoW2NIXVtjSF1bY0hdMSlbQ0gyXVtOSF1bQ0gyXVtDQEBIXShbT0hdKVtDQEBIXShbTkhdQyg9TyljKFtjSF1jMjMpW2NIXWMoW2NIXTMpTihbQ0gzXSlTKD1PKSg9TylbQ0gzXSlbQ0gyXVtDQEhdKFtDSDNdKVtDSDJdW0NIMl1bQ0gyXVtDSDJdW0NIMl1bQ0gyXVtDSDJdTjJTKD1PKSg9TylbQ0gzXQ==

> <s_epik_cmdline>
J2VwaWtfcHl0aG9uJywgJy1waCcsICc3LjAnLCAnLXRuJywgJzgnLCAnLW1hJywgJzIwMCcsICctaW1hZScsICc8aW5maWxlLm1hZT4nLCAnLW9tYWUnLCAnPG91dGZpbGUubWFlPic=

> <r_epik_Ionization_Penalty>
  2.1294

> <r_epik_Ionization_Penalty_Charging>
  0.0000

> <r_epik_Ionization_Penalty_Neutral>
  2.1294

> <r_epik_State_Penalty>
  2.2676

> <r_epik_Charging_Adjusted_Penalty>
2.26762

> <i_epik_Tot_Q>
0

> <i_epik_Tot_abs_Q>
0

> <s_lp_Force_Field>
OPLS_2005

> <r_lp_Energy>
40.2767

> <b_lp_Chiralities_Consistent>
1

> <s_lp_Variant>
BACE_69.smi:1-2

> <chiral flag>
1

> <version>
0

> <s_i_glide_gridfile>
second_dock_grid_2

> <i_i_glide_lignum>
138

> <i_i_glide_rotatable_bonds>
10

> <r_i_docking_score>
-1.7235

> <r_i_glide_ligand_efficiency>
-0.0383

> <r_i_glide_ligand_efficiency_sa>
-0.136229

> <r_i_glide_ligand_efficiency_ln>
-0.358565

> <r_glide_XP_GScore>
-3.9911

> <r_i_glide_gscore>
-3.9911

> <r_i_glide_evdw>
-43.3434

> <r_i_glide_ecoul>
-15.1179

> <r_i_glide_energy>
-58.4613

> <r_i_glide_einternal>
6.30257

> <r_i_glide_emodel>
-79.8091

> <r_glide_XP_HBond>
-0.237277

> <i_i_glide_confnum>
1

> <i_i_glide_posenum>
24

> <r_i_glide_eff_state_penalty>
2.2676

> <i_glide_XP_PoseRank>
1

$$$$
BACE_70.smi:1
                    3D
 Structure written by MMmdl.
 86 88  0  0  1  0            999 V2000
   18.4706   48.0444   -5.4949 C   0  0  0  0  0  0
   18.9910   47.6315   -6.8807 C   0  0  0  0  0  0
   17.8564   47.0648   -7.7516 C   0  0  0  0  0  0
   20.1622   46.6594   -6.8197 C   0  0  0  0  0  0
   20.0201   45.3882   -6.2227 C   0  0  0  0  0  0
   21.0713   44.4338   -6.2561 C   0  0  0  0  0  0
   22.2873   44.8104   -6.8784 C   0  0  0  0  0  0
   22.4471   46.0867   -7.4502 C   0  0  0  0  0  0
   21.3869   47.0071   -7.4236 C   0  0  0  0  0  0
   20.8873   43.0334   -5.6221 C   0  0  0  0  0  0
   22.2397   42.3245   -5.3707 C   0  0  0  0  0  0
   20.2368   43.1532   -4.2295 C   0  0  0  0  0  0
   20.0605   42.0985   -6.4402 N   0  3  0  0  0  0
   19.2903   42.5518   -7.6282 C   0  0  0  0  0  0
   20.0990   42.6483   -8.9623 C   0  0  1  0  0  0
   21.4408   42.2301   -8.7822 O   0  0  0  0  0  0
   19.4463   41.8418  -10.1326 C   0  0  2  0  0  0
   20.0606   40.4425  -10.4193 C   0  0  0  0  0  0
   19.8957   39.4212   -9.2675 C   0  0  2  0  0  0
   21.0824   38.4437   -9.2010 C   0  0  0  0  0  0
   18.5443   38.6761   -9.3744 C   0  0  0  0  0  0
   18.0801   37.9786   -8.0802 C   0  0  0  0  0  0
   17.6372   38.9224   -6.9474 C   0  0  0  0  0  0
   16.3917   39.7799   -7.2382 C   0  0  0  0  0  0
   15.0575   39.0097   -7.2388 C   0  0  0  0  0  0
   14.5746   38.5198   -8.6069 C   0  0  0  0  0  0
   14.1444   39.6600   -9.5159 C   0  0  0  0  0  0
   15.1203   39.9679  -10.5373 N   0  0  0  0  0  0
   15.3605   41.3033  -10.8426 C   0  0  0  0  0  0
   14.4171   42.3384  -10.6519 C   0  0  0  0  0  0
   14.8001   43.6583  -10.9513 C   0  0  0  0  0  0
   16.1025   43.8919  -11.4307 C   0  0  0  0  0  0
   16.9720   42.7899  -11.5814 C   0  0  0  0  0  0
   16.5830   41.5231  -11.3433 N   0  0  0  0  0  0
   18.3501   42.9882  -12.1323 C   0  0  0  0  0  0
   18.4593   43.5157  -13.2398 O   0  0  0  0  0  0
   19.4155   42.6207  -11.3832 N   0  0  0  0  0  0
   20.1431   43.7058   -9.2249 H   0  0  0  0  0  0
   18.4287   41.6551   -9.8177 H   0  0  0  0  0  0
   19.9162   39.9665   -8.3303 H   0  0  0  0  0  0
   19.2229   48.5356   -4.8685 H   0  0  0  0  0  0
   18.0725   47.1913   -4.9462 H   0  0  0  0  0  0
   17.6609   48.7551   -5.6402 H   0  0  0  0  0  0
   19.3432   48.5419   -7.3674 H   0  0  0  0  0  0
   18.2191   46.8238   -8.7517 H   0  0  0  0  0  0
   17.0453   47.7830   -7.8639 H   0  0  0  0  0  0
   17.4398   46.1528   -7.3222 H   0  0  0  0  0  0
   19.0661   45.1344   -5.7871 H   0  0  0  0  0  0
   23.1274   44.1367   -6.9414 H   0  0  0  0  0  0
   23.3817   46.3521   -7.9223 H   0  0  0  0  0  0
   21.5133   47.9717   -7.8898 H   0  0  0  0  0  0
   22.9045   42.9362   -4.7575 H   0  0  0  0  0  0
   22.7655   42.0845   -6.2958 H   0  0  0  0  0  0
   22.1026   41.3816   -4.8399 H   0  0  0  0  0  0
   20.8517   43.7495   -3.5570 H   0  0  0  0  0  0
   20.0836   42.1794   -3.7622 H   0  0  0  0  0  0
   19.2604   43.6177   -4.2644 H   0  0  0  0  0  0
   20.6706   41.3587   -6.7569 H   0  0  0  0  0  0
   18.5148   41.7944   -7.7232 H   0  0  0  0  0  0
   18.7332   43.4652   -7.4326 H   0  0  0  0  0  0
   21.5048   41.3043   -8.9803 H   0  0  0  0  0  0
   19.6033   40.0221  -11.3176 H   0  0  0  0  0  0
   21.1119   40.5567  -10.6843 H   0  0  0  0  0  0
   21.0839   37.7547  -10.0401 H   0  0  0  0  0  0
   21.0518   37.8442   -8.2922 H   0  0  0  0  0  0
   22.0391   38.9690   -9.2007 H   0  0  0  0  0  0
   17.7665   39.3637   -9.6983 H   0  0  0  0  0  0
   18.6123   37.9328  -10.1708 H   0  0  0  0  0  0
   17.2692   37.2873   -8.3047 H   0  0  0  0  0  0
   18.8831   37.3509   -7.7043 H   0  0  0  0  0  0
   17.4517   38.3326   -6.0493 H   0  0  0  0  0  0
   18.4642   39.5763   -6.6807 H   0  0  0  0  0  0
   16.3267   40.5224   -6.4457 H   0  0  0  0  0  0
   16.5122   40.3679   -8.1450 H   0  0  0  0  0  0
   15.1104   38.1536   -6.5761 H   0  0  0  0  0  0
   14.2848   39.6466   -6.8031 H   0  0  0  0  0  0
   15.2893   37.8543   -9.0904 H   0  0  0  0  0  0
   13.6840   37.9174   -8.4396 H   0  0  0  0  0  0
   13.2599   39.3446  -10.0400 H   0  0  0  0  0  0
   13.8838   40.5283   -8.9154 H   0  0  0  0  0  0
   15.9060   39.3403  -10.6190 H   0  0  0  0  0  0
   13.4249   42.1371  -10.2730 H   0  0  0  0  0  0
   14.1081   44.4765  -10.8107 H   0  0  0  0  0  0
   16.4321   44.8943  -11.6680 H   0  0  0  0  0  0
   20.3191   42.8299  -11.7807 H   0  0  0  0  0  0
   19.3779   41.6979   -5.8000 H   0  0  0  0  0  0
  1  2  1  0  0  0
  1 41  1  0  0  0
  1 42  1  0  0  0
  1 43  1  0  0  0
  2  3  1  0  0  0
  2  4  1  0  0  0
  2 44  1  0  0  0
  3 45  1  0  0  0
  3 46  1  0  0  0
  3 47  1  0  0  0
  4  9  1  0  0  0
  4  5  2  0  0  0
  5  6  1  0  0  0
  5 48  1  0  0  0
  6  7  2  0  0  0
  6 10  1  0  0  0
  7  8  1  0  0  0
  7 49  1  0  0  0
  8  9  2  0  0  0
  8 50  1  0  0  0
  9 51  1  0  0  0
 10 11  1  0  0  0
 10 12  1  0  0  0
 10 13  1  0  0  0
 11 52  1  0  0  0
 11 53  1  0  0  0
 11 54  1  0  0  0
 12 55  1  0  0  0
 12 56  1  0  0  0
 12 57  1  0  0  0
 13 14  1  0  0  0
 13 58  1  0  0  0
 13 86  1  0  0  0
 14 15  1  0  0  0
 14 59  1  0  0  0
 14 60  1  0  0  0
 15 38  1  0  0  0
 15 16  1  0  0  0
 15 17  1  0  0  0
 16 61  1  0  0  0
 17 39  1  0  0  0
 17 37  1  0  0  0
 17 18  1  0  0  0
 18 19  1  0  0  0
 18 62  1  0  0  0
 18 63  1  0  0  0
 19 40  1  0  0  0
 19 20  1  0  0  0
 19 21  1  0  0  0
 20 64  1  0  0  0
 20 65  1  0  0  0
 20 66  1  0  0  0
 21 22  1  0  0  0
 21 67  1  0  0  0
 21 68  1  0  0  0
 22 23  1  0  0  0
 22 69  1  0  0  0
 22 70  1  0  0  0
 23 24  1  0  0  0
 23 71  1  0  0  0
 23 72  1  0  0  0
 24 25  1  0  0  0
 24 73  1  0  0  0
 24 74  1  0  0  0
 25 26  1  0  0  0
 25 75  1  0  0  0
 25 76  1  0  0  0
 26 27  1  0  0  0
 26 77  1  0  0  0
 26 78  1  0  0  0
 27 28  1  0  0  0
 27 79  1  0  0  0
 27 80  1  0  0  0
 28 29  1  0  0  0
 28 81  1  0  0  0
 29 34  1  0  0  0
 29 30  2  0  0  0
 30 31  1  0  0  0
 30 82  1  0  0  0
 31 32  2  0  0  0
 31 83  1  0  0  0
 32 33  1  0  0  0
 32 84  1  0  0  0
 33 34  2  0  0  0
 33 35  1  0  0  0
 35 36  2  0  0  0
 35 37  1  0  0  0
 37 85  1  0  0  0
M  CHG  1  13   1
M  END
> <s_m_source_file>
BACE_70.smi

> <i_m_source_file_index>
1

> <i_lp_mmshare_version>
42013

> <i_f3d_flags>
0

> <s_epik_input>
W0NIM11bQ0hdKFtDSDNdKWMxW2NIXWMoW2NIXVtjSF1bY0hdMSlDKFtDSDNdKShbQ0gzXSlbTkhdW0NIMl1bQ0BASF0oW09IXSlbQ0BASF0oW05IXUMoPU8pYyhuMilbY0hdW2NIXVtjSF1jMjMpW0NIMl1bQ0BIXShbQ0gzXSlbQ0gyXVtDSDJdW0NIMl1bQ0gyXVtDSDJdW0NIMl1bQ0gyXVtOSF0z

> <s_epik_cmdline>
J2VwaWtfcHl0aG9uJywgJy1waCcsICc3LjAnLCAnLXRuJywgJzgnLCAnLW1hJywgJzIwMCcsICctaW1hZScsICc8aW5maWxlLm1hZT4nLCAnLW9tYWUnLCAnPG91dGZpbGUubWFlPic=

> <r_lp_tautomer_probability>
1

> <r_epik_Ionization_Penalty>
  0.0314

> <r_epik_Ionization_Penalty_Charging>
  0.0173

> <r_epik_Ionization_Penalty_Neutral>
  0.0140

> <r_epik_State_Penalty>
  0.0244

> <r_epik_Charging_Adjusted_Penalty>
0.041739

> <i_epik_Tot_Q>
1

> <i_epik_Tot_abs_Q>
1

> <s_lp_Force_Field>
OPLS_2005

> <r_lp_Energy>
44.1125

> <b_lp_Chiralities_Consistent>
1

> <s_lp_Variant>
BACE_70.smi:1-1

> <chiral flag>
1

> <version>
0

> <s_i_glide_gridfile>
second_dock_grid_2

> <i_i_glide_lignum>
139

> <i_i_glide_rotatable_bonds>
7

> <r_i_docking_score>
-5.01806

> <r_i_glide_ligand_efficiency>
-0.135623

> <r_i_glide_ligand_efficiency_sa>
-0.451926

> <r_i_glide_ligand_efficiency_ln>
-1.0883

> <r_glide_XP_GScore>
-5.04246

> <r_i_glide_gscore>
-5.04246

> <r_i_glide_evdw>
-36.2398

> <r_i_glide_ecoul>
-13.5388

> <r_i_glide_energy>
-49.7786

> <r_i_glide_einternal>
8.60112

> <r_i_glide_emodel>
-64.4493

> <r_glide_XP_HBond>
-0.7

> <i_i_glide_confnum>
1

> <i_i_glide_posenum>
6

> <r_i_glide_eff_state_penalty>
0.0244

> <i_glide_XP_PoseRank>
1

$$$$
BACE_70.smi:1
                    3D
 Structure written by MMmdl.
 85 87  0  0  1  0            999 V2000
   30.7891   45.1582  -10.9216 C   0  0  0  0  0  0
   29.7727   44.7629   -9.8361 C   0  0  0  0  0  0
   30.4702   44.2757   -8.5590 C   0  0  0  0  0  0
   28.7368   43.7534  -10.3260 C   0  0  0  0  0  0
   27.3775   43.9289   -9.9825 C   0  0  0  0  0  0
   26.3799   43.0220  -10.4239 C   0  0  0  0  0  0
   26.7833   41.9352  -11.2351 C   0  0  0  0  0  0
   28.1340   41.7501  -11.5778 C   0  0  0  0  0  0
   29.1115   42.6469  -11.1170 C   0  0  0  0  0  0
   24.8873   43.1896  -10.0661 C   0  0  0  0  0  0
   24.6778   44.2232   -8.9295 C   0  0  0  0  0  0
   24.1242   43.6832  -11.3124 C   0  0  0  0  0  0
   24.3569   41.8737   -9.6599 N   0  0  0  0  0  0
   23.0275   41.7740   -9.0413 C   0  0  0  0  0  0
   22.6704   40.3043   -8.7428 C   0  0  1  0  0  0
   23.7510   39.7436   -8.0397 O   0  0  0  0  0  0
   21.3570   40.1080   -7.9273 C   0  0  2  0  0  0
   21.4828   39.9195   -6.3860 C   0  0  0  0  0  0
   21.8598   41.1827   -5.5786 C   0  0  2  0  0  0
   22.4697   40.7956   -4.2198 C   0  0  0  0  0  0
   20.6321   42.1073   -5.3885 C   0  0  0  0  0  0
   20.9478   43.6012   -5.1734 C   0  0  0  0  0  0
   21.4967   44.3483   -6.4077 C   0  0  0  0  0  0
   20.6360   44.3280   -7.6961 C   0  0  0  0  0  0
   19.5593   45.4258   -7.8094 C   0  0  0  0  0  0
   18.2525   45.1941   -7.0291 C   0  0  0  0  0  0
   17.2032   44.3102   -7.7267 C   0  0  0  0  0  0
   17.4974   42.8832   -7.6401 N   0  0  0  0  0  0
   17.7598   42.0959   -8.7677 C   0  0  0  0  0  0
   17.4244   42.4726  -10.0893 C   0  0  0  0  0  0
   17.7737   41.6130  -11.1460 C   0  0  0  0  0  0
   18.4629   40.4237  -10.8573 C   0  0  0  0  0  0
   18.7735   40.1329   -9.5139 C   0  0  0  0  0  0
   18.3850   40.9346   -8.4948 N   0  0  0  0  0  0
   19.5179   38.8676   -9.1863 C   0  0  0  0  0  0
   19.1340   37.7930   -9.6425 O   0  0  0  0  0  0
   20.6493   38.9392   -8.4604 N   0  0  0  0  0  0
   22.5965   39.7852   -9.7014 H   0  0  0  0  0  0
   20.7781   41.0086   -8.0954 H   0  0  0  0  0  0
   22.6379   41.7102   -6.1236 H   0  0  0  0  0  0
   30.2846   45.5224  -11.8169 H   0  0  0  0  0  0
   31.4289   44.3242  -11.2073 H   0  0  0  0  0  0
   31.4431   45.9570  -10.5704 H   0  0  0  0  0  0
   29.2340   45.6762   -9.5778 H   0  0  0  0  0  0
   29.7495   44.1503   -7.7496 H   0  0  0  0  0  0
   31.2122   44.9982   -8.2178 H   0  0  0  0  0  0
   30.9781   43.3217   -8.7148 H   0  0  0  0  0  0
   27.1261   44.7789   -9.3697 H   0  0  0  0  0  0
   26.0523   41.2275  -11.5965 H   0  0  0  0  0  0
   28.4235   40.9039  -12.1857 H   0  0  0  0  0  0
   30.1441   42.4792  -11.3827 H   0  0  0  0  0  0
   25.0307   45.2145   -9.2136 H   0  0  0  0  0  0
   25.1943   43.9252   -8.0146 H   0  0  0  0  0  0
   23.6265   44.3615   -8.6874 H   0  0  0  0  0  0
   24.5374   44.6249  -11.6768 H   0  0  0  0  0  0
   23.0672   43.8469  -11.1059 H   0  0  0  0  0  0
   24.1915   42.9625  -12.1289 H   0  0  0  0  0  0
   25.0420   41.3709   -9.1015 H   0  0  0  0  0  0
   23.0076   42.3352   -8.1128 H   0  0  0  0  0  0
   22.2672   42.2062   -9.6925 H   0  0  0  0  0  0
   24.2620   39.2380   -8.6687 H   0  0  0  0  0  0
   20.5321   39.5498   -5.9943 H   0  0  0  0  0  0
   22.1893   39.1156   -6.1765 H   0  0  0  0  0  0
   21.7624   40.2285   -3.6133 H   0  0  0  0  0  0
   22.7675   41.6754   -3.6489 H   0  0  0  0  0  0
   23.3587   40.1777   -4.3468 H   0  0  0  0  0  0
   19.9411   42.0035   -6.2208 H   0  0  0  0  0  0
   20.0603   41.7514   -4.5298 H   0  0  0  0  0  0
   20.0559   44.1010   -4.8040 H   0  0  0  0  0  0
   21.6692   43.6984   -4.3617 H   0  0  0  0  0  0
   21.7073   45.3809   -6.1313 H   0  0  0  0  0  0
   22.4746   43.9265   -6.6386 H   0  0  0  0  0  0
   21.3200   44.4945   -8.5286 H   0  0  0  0  0  0
   20.2173   43.3455   -7.8960 H   0  0  0  0  0  0
   19.9985   46.3721   -7.4921 H   0  0  0  0  0  0
   19.3106   45.5676   -8.8616 H   0  0  0  0  0  0
   18.4609   44.8262   -6.0338 H   0  0  0  0  0  0
   17.7940   46.1724   -6.8823 H   0  0  0  0  0  0
   16.2402   44.4603   -7.2423 H   0  0  0  0  0  0
   17.0711   44.6588   -8.7458 H   0  0  0  0  0  0
   17.6538   42.4632   -6.7279 H   0  0  0  0  0  0
   16.8962   43.3847  -10.3161 H   0  0  0  0  0  0
   17.5242   41.8656  -12.1653 H   0  0  0  0  0  0
   18.7490   39.7484  -11.6504 H   0  0  0  0  0  0
   21.0986   38.0542   -8.2872 H   0  0  0  0  0  0
  1  2  1  0  0  0
  1 41  1  0  0  0
  1 42  1  0  0  0
  1 43  1  0  0  0
  2  3  1  0  0  0
  2  4  1  0  0  0
  2 44  1  0  0  0
  3 45  1  0  0  0
  3 46  1  0  0  0
  3 47  1  0  0  0
  4  9  1  0  0  0
  4  5  2  0  0  0
  5  6  1  0  0  0
  5 48  1  0  0  0
  6  7  2  0  0  0
  6 10  1  0  0  0
  7  8  1  0  0  0
  7 49  1  0  0  0
  8  9  2  0  0  0
  8 50  1  0  0  0
  9 51  1  0  0  0
 10 11  1  0  0  0
 10 12  1  0  0  0
 10 13  1  0  0  0
 11 52  1  0  0  0
 11 53  1  0  0  0
 11 54  1  0  0  0
 12 55  1  0  0  0
 12 56  1  0  0  0
 12 57  1  0  0  0
 13 14  1  0  0  0
 13 58  1  0  0  0
 14 15  1  0  0  0
 14 59  1  0  0  0
 14 60  1  0  0  0
 15 38  1  0  0  0
 15 16  1  0  0  0
 15 17  1  0  0  0
 16 61  1  0  0  0
 17 39  1  0  0  0
 17 37  1  0  0  0
 17 18  1  0  0  0
 18 19  1  0  0  0
 18 62  1  0  0  0
 18 63  1  0  0  0
 19 40  1  0  0  0
 19 20  1  0  0  0
 19 21  1  0  0  0
 20 64  1  0  0  0
 20 65  1  0  0  0
 20 66  1  0  0  0
 21 22  1  0  0  0
 21 67  1  0  0  0
 21 68  1  0  0  0
 22 23  1  0  0  0
 22 69  1  0  0  0
 22 70  1  0  0  0
 23 24  1  0  0  0
 23 71  1  0  0  0
 23 72  1  0  0  0
 24 25  1  0  0  0
 24 73  1  0  0  0
 24 74  1  0  0  0
 25 26  1  0  0  0
 25 75  1  0  0  0
 25 76  1  0  0  0
 26 27  1  0  0  0
 26 77  1  0  0  0
 26 78  1  0  0  0
 27 28  1  0  0  0
 27 79  1  0  0  0
 27 80  1  0  0  0
 28 29  1  0  0  0
 28 81  1  0  0  0
 29 34  1  0  0  0
 29 30  2  0  0  0
 30 31  1  0  0  0
 30 82  1  0  0  0
 31 32  2  0  0  0
 31 83  1  0  0  0
 32 33  1  0  0  0
 32 84  1  0  0  0
 33 34  2  0  0  0
 33 35  1  0  0  0
 35 36  2  0  0  0
 35 37  1  0  0  0
 37 85  1  0  0  0
M  END
> <s_m_source_file>
BACE_70.smi

> <i_m_source_file_index>
1

> <i_lp_mmshare_version>
42013

> <i_f3d_flags>
0

> <s_epik_input>
W0NIM11bQ0hdKFtDSDNdKWMxW2NIXWMoW2NIXVtjSF1bY0hdMSlDKFtDSDNdKShbQ0gzXSlbTkhdW0NIMl1bQ0BASF0oW09IXSlbQ0BASF0oW05IXUMoPU8pYyhuMilbY0hdW2NIXVtjSF1jMjMpW0NIMl1bQ0BIXShbQ0gzXSlbQ0gyXVtDSDJdW0NIMl1bQ0gyXVtDSDJdW0NIMl1bQ0gyXVtOSF0z

> <s_epik_cmdline>
J2VwaWtfcHl0aG9uJywgJy1waCcsICc3LjAnLCAnLXRuJywgJzgnLCAnLW1hJywgJzIwMCcsICctaW1hZScsICc8aW5maWxlLm1hZT4nLCAnLW9tYWUnLCAnPG91dGZpbGUubWFlPic=

> <r_lp_tautomer_probability>
1

> <r_epik_Ionization_Penalty>
  2.1294

> <r_epik_Ionization_Penalty_Charging>
  0.0000

> <r_epik_Ionization_Penalty_Neutral>
  2.1294

> <r_epik_State_Penalty>
  2.2483

> <r_epik_Charging_Adjusted_Penalty>
2.2483

> <i_epik_Tot_Q>
0

> <i_epik_Tot_abs_Q>
0

> <s_lp_Force_Field>
OPLS_2005

> <r_lp_Energy>
50.1854

> <b_lp_Chiralities_Consistent>
1

> <s_lp_Variant>
BACE_70.smi:1-2

> <chiral flag>
1

> <version>
0

> <s_i_glide_gridfile>
second_dock_grid_2

> <i_i_glide_lignum>
140

> <i_i_glide_rotatable_bonds>
7

> <r_i_docking_score>
-0.412867

> <r_i_glide_ligand_efficiency>
-0.0111586

> <r_i_glide_ligand_efficiency_sa>
-0.0371828

> <r_i_glide_ligand_efficiency_ln>
-0.0895411

> <r_glide_XP_GScore>
-2.66117

> <r_i_glide_gscore>
-2.66117

> <r_i_glide_evdw>
-38.0634

> <r_i_glide_ecoul>
-5.03694

> <r_i_glide_energy>
-43.1004

> <r_i_glide_einternal>
6.33545

> <r_i_glide_emodel>
-53.5484

> <r_glide_XP_HBond>
-0.715737

> <i_i_glide_confnum>
1

> <i_i_glide_posenum>
13

> <r_i_glide_eff_state_penalty>
2.2483

> <i_glide_XP_PoseRank>
1

$$$$
BACE_70.smi:1
                    3D
 Structure written by MMmdl.
 87 89  0  0  1  0            999 V2000
   31.4878   45.2174  -10.9791 C   0  0  0  0  0  0
   30.4352   44.8183   -9.9334 C   0  0  0  0  0  0
   31.0834   44.2483   -8.6631 C   0  0  0  0  0  0
   29.3967   43.8670  -10.5182 C   0  0  0  0  0  0
   28.0432   44.2640  -10.5789 C   0  0  0  0  0  0
   27.0541   43.4155  -11.1377 C   0  0  0  0  0  0
   27.4610   42.1506  -11.6313 C   0  0  0  0  0  0
   28.8085   41.7514  -11.5793 C   0  0  0  0  0  0
   29.7759   42.6055  -11.0203 C   0  0  0  0  0  0
   25.5878   43.8723  -11.2683 C   0  0  0  0  0  0
   25.2143   44.9906  -10.2596 C   0  0  0  0  0  0
   25.3926   44.4584  -12.6784 C   0  0  0  0  0  0
   24.6452   42.7284  -11.0963 N   0  3  0  0  0  0
   24.6524   42.0663   -9.7691 C   0  0  0  0  0  0
   23.6605   40.8927   -9.6707 C   0  0  1  0  0  0
   23.9743   40.2792   -8.4397 O   0  0  0  0  0  0
   22.1597   41.3024   -9.7581 C   0  0  2  0  0  0
   21.2444   40.7036   -8.6400 C   0  0  0  0  0  0
   21.0702   39.1651   -8.5024 C   0  0  2  0  0  0
   20.7486   38.4169   -9.8059 C   0  0  0  0  0  0
   20.0590   38.8233   -7.3855 C   0  0  0  0  0  0
   18.6115   39.2647   -7.6640 C   0  0  0  0  0  0
   17.6147   38.7184   -6.6391 C   0  0  0  0  0  0
   16.1684   39.1568   -6.9286 C   0  0  0  0  0  0
   15.5203   38.3942   -8.1000 C   0  0  0  0  0  0
   14.8548   39.2528   -9.1905 C   0  0  0  0  0  0
   15.8429   40.0374  -10.0702 C   0  0  0  0  0  0
   16.1737   41.3211   -9.4707 N   0  0  0  0  0  0
   17.3390   42.0286   -9.7952 C   0  0  0  0  0  0
   17.5610   43.3096   -9.2503 C   0  0  0  0  0  0
   18.7442   44.0044   -9.5679 C   0  0  0  0  0  0
   19.6990   43.3952  -10.4025 C   0  0  0  0  0  0
   19.4527   42.0986  -10.9028 C   0  0  0  0  0  0
   18.2760   41.4908  -10.6136 N   0  3  0  0  0  0
   20.4774   41.3446  -11.7008 C   0  0  0  0  0  0
   20.2063   40.9652  -12.8363 O   0  0  0  0  0  0
   21.6666   41.0649  -11.1291 N   0  0  0  0  0  0
   23.8835   40.1506  -10.4405 H   0  0  0  0  0  0
   22.1217   42.3781   -9.6020 H   0  0  0  0  0  0
   22.0166   38.7494   -8.1593 H   0  0  0  0  0  0
   31.0161   45.6692  -11.8525 H   0  0  0  0  0  0
   32.0636   44.3574  -11.3226 H   0  0  0  0  0  0
   32.1936   45.9461  -10.5718 H   0  0  0  0  0  0
   29.9229   45.7365   -9.6379 H   0  0  0  0  0  0
   30.3297   44.0076   -7.9115 H   0  0  0  0  0  0
   31.7651   44.9713   -8.2121 H   0  0  0  0  0  0
   31.6538   43.3417   -8.8727 H   0  0  0  0  0  0
   27.7860   45.2444  -10.2129 H   0  0  0  0  0  0
   26.7425   41.4686  -12.0580 H   0  0  0  0  0  0
   29.0999   40.7876  -11.9752 H   0  0  0  0  0  0
   30.8107   42.2962  -10.9878 H   0  0  0  0  0  0
   25.7216   45.9284  -10.4809 H   0  0  0  0  0  0
   25.4717   44.7288   -9.2326 H   0  0  0  0  0  0
   24.1464   45.2131  -10.2868 H   0  0  0  0  0  0
   26.0129   45.3432  -12.8258 H   0  0  0  0  0  0
   24.3578   44.7522  -12.8568 H   0  0  0  0  0  0
   25.6753   43.7503  -13.4526 H   0  0  0  0  0  0
   23.7115   43.0695  -11.2692 H   0  0  0  0  0  0
   25.6615   41.6964   -9.5682 H   0  0  0  0  0  0
   24.4193   42.7806   -8.9785 H   0  0  0  0  0  0
   24.3131   39.4139   -8.6363 H   0  0  0  0  0  0
   21.6169   41.0699   -7.6841 H   0  0  0  0  0  0
   20.2683   41.1640   -8.6973 H   0  0  0  0  0  0
   19.8661   38.8143  -10.3072 H   0  0  0  0  0  0
   20.5772   37.3578   -9.6147 H   0  0  0  0  0  0
   21.5924   38.4821  -10.4935 H   0  0  0  0  0  0
   20.0728   37.7498   -7.2262 H   0  0  0  0  0  0
   20.3928   39.2585   -6.4421 H   0  0  0  0  0  0
   18.5415   40.3493   -7.6587 H   0  0  0  0  0  0
   18.3094   38.9341   -8.6547 H   0  0  0  0  0  0
   17.6650   37.6316   -6.6211 H   0  0  0  0  0  0
   17.9043   39.0406   -5.6411 H   0  0  0  0  0  0
   15.5704   38.9557   -6.0404 H   0  0  0  0  0  0
   16.1217   40.2359   -7.0550 H   0  0  0  0  0  0
   16.2347   37.7119   -8.5611 H   0  0  0  0  0  0
   14.7543   37.7513   -7.6682 H   0  0  0  0  0  0
   14.3096   38.5694   -9.8402 H   0  0  0  0  0  0
   14.0953   39.9084   -8.7635 H   0  0  0  0  0  0
   16.7326   39.4381  -10.2636 H   0  0  0  0  0  0
   15.3849   40.2392  -11.0377 H   0  0  0  0  0  0
   15.5537   41.6777   -8.7552 H   0  0  0  0  0  0
   16.8358   43.7586   -8.5888 H   0  0  0  0  0  0
   18.9269   44.9865   -9.1589 H   0  0  0  0  0  0
   20.6203   43.9064  -10.6362 H   0  0  0  0  0  0
   22.2955   40.5482  -11.7308 H   0  0  0  0  0  0
   24.8560   42.0323  -11.7988 H   0  0  0  0  0  0
   18.1249   40.5535  -10.9876 H   0  0  0  0  0  0
  1  2  1  0  0  0
  1 41  1  0  0  0
  1 42  1  0  0  0
  1 43  1  0  0  0
  2  3  1  0  0  0
  2  4  1  0  0  0
  2 44  1  0  0  0
  3 45  1  0  0  0
  3 46  1  0  0  0
  3 47  1  0  0  0
  4  9  1  0  0  0
  4  5  2  0  0  0
  5  6  1  0  0  0
  5 48  1  0  0  0
  6  7  2  0  0  0
  6 10  1  0  0  0
  7  8  1  0  0  0
  7 49  1  0  0  0
  8  9  2  0  0  0
  8 50  1  0  0  0
  9 51  1  0  0  0
 10 11  1  0  0  0
 10 12  1  0  0  0
 10 13  1  0  0  0
 11 52  1  0  0  0
 11 53  1  0  0  0
 11 54  1  0  0  0
 12 55  1  0  0  0
 12 56  1  0  0  0
 12 57  1  0  0  0
 13 14  1  0  0  0
 13 58  1  0  0  0
 13 86  1  0  0  0
 14 15  1  0  0  0
 14 59  1  0  0  0
 14 60  1  0  0  0
 15 38  1  0  0  0
 15 16  1  0  0  0
 15 17  1  0  0  0
 16 61  1  0  0  0
 17 39  1  0  0  0
 17 37  1  0  0  0
 17 18  1  0  0  0
 18 19  1  0  0  0
 18 62  1  0  0  0
 18 63  1  0  0  0
 19 40  1  0  0  0
 19 20  1  0  0  0
 19 21  1  0  0  0
 20 64  1  0  0  0
 20 65  1  0  0  0
 20 66  1  0  0  0
 21 22  1  0  0  0
 21 67  1  0  0  0
 21 68  1  0  0  0
 22 23  1  0  0  0
 22 69  1  0  0  0
 22 70  1  0  0  0
 23 24  1  0  0  0
 23 71  1  0  0  0
 23 72  1  0  0  0
 24 25  1  0  0  0
 24 73  1  0  0  0
 24 74  1  0  0  0
 25 26  1  0  0  0
 25 75  1  0  0  0
 25 76  1  0  0  0
 26 27  1  0  0  0
 26 77  1  0  0  0
 26 78  1  0  0  0
 27 28  1  0  0  0
 27 79  1  0  0  0
 27 80  1  0  0  0
 28 29  1  0  0  0
 28 81  1  0  0  0
 29 34  1  0  0  0
 29 30  2  0  0  0
 30 31  1  0  0  0
 30 82  1  0  0  0
 31 32  2  0  0  0
 31 83  1  0  0  0
 32 33  1  0  0  0
 32 84  1  0  0  0
 33 34  2  0  0  0
 33 35  1  0  0  0
 34 87  1  0  0  0
 35 36  2  0  0  0
 35 37  1  0  0  0
 37 85  1  0  0  0
M  CHG  2  13   1  34   1
M  END
> <s_m_source_file>
BACE_70.smi

> <i_m_source_file_index>
1

> <i_lp_mmshare_version>
42013

> <i_f3d_flags>
0

> <s_epik_input>
W0NIM11bQ0hdKFtDSDNdKWMxW2NIXWMoW2NIXVtjSF1bY0hdMSlDKFtDSDNdKShbQ0gzXSlbTkhdW0NIMl1bQ0BASF0oW09IXSlbQ0BASF0oW05IXUMoPU8pYyhuMilbY0hdW2NIXVtjSF1jMjMpW0NIMl1bQ0BIXShbQ0gzXSlbQ0gyXVtDSDJdW0NIMl1bQ0gyXVtDSDJdW0NIMl1bQ0gyXVtOSF0z

> <s_epik_cmdline>
J2VwaWtfcHl0aG9uJywgJy1waCcsICc3LjAnLCAnLXRuJywgJzgnLCAnLW1hJywgJzIwMCcsICctaW1hZScsICc8aW5maWxlLm1hZT4nLCAnLW9tYWUnLCAnPG91dGZpbGUubWFlPic=

> <r_lp_tautomer_probability>
0.999994

> <r_epik_Ionization_Penalty>
  2.2448

> <r_epik_Ionization_Penalty_Charging>
  2.2445

> <r_epik_Ionization_Penalty_Neutral>
  0.0004

> <r_epik_State_Penalty>
  2.3843

> <r_epik_Charging_Adjusted_Penalty>
4.62869

> <i_epik_Tot_Q>
2

> <i_epik_Tot_abs_Q>
2

> <s_lp_Force_Field>
OPLS_2005

> <r_lp_Energy>
49.2874

> <b_lp_Chiralities_Consistent>
1

> <s_lp_Variant>
BACE_70.smi:1-3

> <chiral flag>
1

> <version>
0

> <s_i_glide_gridfile>
second_dock_grid_2

> <i_i_glide_lignum>
141

> <i_i_glide_rotatable_bonds>
7

> <r_i_docking_score>
-1.74905

> <r_i_glide_ligand_efficiency>
-0.0472717

> <r_i_glide_ligand_efficiency_sa>
-0.15752

> <r_i_glide_ligand_efficiency_ln>
-0.379328

> <r_glide_XP_GScore>
-4.13335

> <r_i_glide_gscore>
-4.13335

> <r_i_glide_evdw>
-35.4411

> <r_i_glide_ecoul>
-13.3897

> <r_i_glide_energy>
-48.8308

> <r_i_glide_einternal>
1.79349

> <r_i_glide_emodel>
-69.0767

> <r_glide_XP_HBond>
-1.03171

> <i_i_glide_confnum>
1

> <i_i_glide_posenum>
9

> <r_i_glide_eff_state_penalty>
2.3843

> <i_glide_XP_PoseRank>
1

$$$$
