BACE_95.smi:1
                    3D
 Structure written by MMmdl.
 72 75  0  0  1  0            999 V2000
   14.6560   43.3435  -11.3250 C   0  0  0  0  0  0
   14.5599   44.4249  -10.2356 C   0  0  2  0  0  0
   15.6587   45.5208  -10.2216 C   0  0  0  0  0  0
   16.0697   46.1321  -11.9091 S   0  0  0  0  0  0
   16.8805   45.1097  -12.5862 O   0  0  0  0  0  0
   14.8070   46.5793  -12.5175 O   0  0  0  0  0  0
   17.1122   47.6271  -11.5839 C   0  0  0  0  0  0
   18.6025   47.4427  -11.9439 C   0  0  0  0  0  0
   19.4498   46.6950  -10.8935 C   0  0  0  0  0  0
   20.1372   45.4269  -11.4471 C   0  0  0  0  0  0
   21.0681   44.8436  -10.5353 O   0  0  0  0  0  0
   20.6011   44.1906   -9.4128 C   0  0  0  0  0  0
   21.5521   43.7318   -8.4784 C   0  0  0  0  0  0
   21.1413   43.1225   -7.2762 C   0  0  0  0  0  0
   19.7704   42.9819   -6.9877 C   0  0  0  0  0  0
   18.8067   43.4154   -7.9217 C   0  0  0  0  0  0
   17.3240   43.3528   -7.5942 C   0  0  0  0  0  0
   16.4487   42.5977   -8.6162 C   0  0  2  0  0  0
   15.0481   42.8844   -8.3101 N   0  0  0  0  0  0
   14.2701   43.8463   -8.8390 C   0  0  0  0  0  0
   13.2923   44.2690   -8.2225 O   0  0  0  0  0  0
   16.7422   41.0794   -8.6692 C   0  0  2  0  0  0
   16.3946   40.6738   -9.9822 O   0  0  0  0  0  0
   16.0265   40.1633   -7.6310 C   0  0  0  0  0  0
   16.7592   38.9126   -7.2692 N   0  3  0  0  0  0
   17.5825   38.2463   -8.3215 C   0  0  0  0  0  0
   17.2687   36.7766   -8.5495 C   0  0  0  0  0  0
   16.7774   37.7953   -9.5268 C   0  0  0  0  0  0
   19.0141   38.7313   -8.3912 C   0  0  0  0  0  0
   19.6239   39.0387   -9.6317 C   0  0  0  0  0  0
   20.9510   39.5076   -9.6902 C   0  0  0  0  0  0
   21.6812   39.7003   -8.5039 C   0  0  0  0  0  0
   21.0852   39.4158   -7.2627 C   0  0  0  0  0  0
   22.0509   39.7501   -5.6570 Br  0  0  0  0  0  0
   19.7688   38.9155   -7.2081 C   0  0  0  0  0  0
   19.2304   43.9823   -9.1400 C   0  0  0  0  0  0
   13.6394   44.9489  -10.4949 H   0  0  0  0  0  0
   16.7071   43.0031   -9.5878 H   0  0  0  0  0  0
   17.8212   40.9783   -8.5782 H   0  0  0  0  0  0
   15.6704   42.9759  -11.4692 H   0  0  0  0  0  0
   14.3237   43.7498  -12.2820 H   0  0  0  0  0  0
   14.0147   42.4872  -11.1073 H   0  0  0  0  0  0
   15.2829   46.3650   -9.6459 H   0  0  0  0  0  0
   16.5766   45.2019   -9.7461 H   0  0  0  0  0  0
   16.7030   48.4209  -12.2097 H   0  0  0  0  0  0
   16.9762   47.9488  -10.5511 H   0  0  0  0  0  0
   19.0378   48.4361  -12.0701 H   0  0  0  0  0  0
   18.6911   46.9729  -12.9255 H   0  0  0  0  0  0
   20.2279   47.3696  -10.5326 H   0  0  0  0  0  0
   18.8435   46.4724  -10.0173 H   0  0  0  0  0  0
   20.7192   45.7119  -12.3225 H   0  0  0  0  0  0
   19.4166   44.6894  -11.8025 H   0  0  0  0  0  0
   22.6052   43.8697   -8.6766 H   0  0  0  0  0  0
   21.8799   42.7864   -6.5617 H   0  0  0  0  0  0
   19.4693   42.5540   -6.0415 H   0  0  0  0  0  0
   16.9837   44.3849   -7.5127 H   0  0  0  0  0  0
   17.1875   42.9352   -6.5974 H   0  0  0  0  0  0
   14.7452   42.5479   -7.4030 H   0  0  0  0  0  0
   15.4574   40.7713  -10.0818 H   0  0  0  0  0  0
   15.0242   39.9048   -7.9773 H   0  0  0  0  0  0
   15.8855   40.7091   -6.6953 H   0  0  0  0  0  0
   16.1021   38.2356   -6.8909 H   0  0  0  0  0  0
   18.0630   36.1243   -8.9028 H   0  0  0  0  0  0
   16.4591   36.2700   -8.0400 H   0  0  0  0  0  0
   15.7019   37.9611   -9.5408 H   0  0  0  0  0  0
   17.2540   37.7953  -10.4980 H   0  0  0  0  0  0
   19.0830   38.9286  -10.5590 H   0  0  0  0  0  0
   21.4053   39.7325  -10.6443 H   0  0  0  0  0  0
   22.6918   40.0786   -8.5468 H   0  0  0  0  0  0
   19.3388   38.6956   -6.2429 H   0  0  0  0  0  0
   18.4869   44.2903   -9.8516 H   0  0  0  0  0  0
   17.3855   39.1493   -6.5141 H   0  0  0  0  0  0
  1  2  1  0  0  0
  1 40  1  0  0  0
  1 41  1  0  0  0
  1 42  1  0  0  0
  2 37  1  0  0  0
  2 20  1  0  0  0
  2  3  1  0  0  0
  3  4  1  0  0  0
  3 43  1  0  0  0
  3 44  1  0  0  0
  4  5  2  0  0  0
  4  6  2  0  0  0
  4  7  1  0  0  0
  7  8  1  0  0  0
  7 45  1  0  0  0
  7 46  1  0  0  0
  8  9  1  0  0  0
  8 47  1  0  0  0
  8 48  1  0  0  0
  9 10  1  0  0  0
  9 49  1  0  0  0
  9 50  1  0  0  0
 10 11  1  0  0  0
 10 51  1  0  0  0
 10 52  1  0  0  0
 11 12  1  0  0  0
 12 36  1  0  0  0
 12 13  2  0  0  0
 13 14  1  0  0  0
 13 53  1  0  0  0
 14 15  2  0  0  0
 14 54  1  0  0  0
 15 16  1  0  0  0
 15 55  1  0  0  0
 16 17  1  0  0  0
 16 36  2  0  0  0
 17 18  1  0  0  0
 17 56  1  0  0  0
 17 57  1  0  0  0
 18 38  1  0  0  0
 18 19  1  0  0  0
 18 22  1  0  0  0
 19 20  1  0  0  0
 19 58  1  0  0  0
 20 21  2  0  0  0
 22 39  1  0  0  0
 22 23  1  0  0  0
 22 24  1  0  0  0
 23 59  1  0  0  0
 24 25  1  0  0  0
 24 60  1  0  0  0
 24 61  1  0  0  0
 25 26  1  0  0  0
 25 62  1  0  0  0
 25 72  1  0  0  0
 26 28  1  0  0  0
 26 27  1  0  0  0
 26 29  1  0  0  0
 27 28  1  0  0  0
 27 63  1  0  0  0
 27 64  1  0  0  0
 28 65  1  0  0  0
 28 66  1  0  0  0
 29 35  1  0  0  0
 29 30  2  0  0  0
 30 31  1  0  0  0
 30 67  1  0  0  0
 31 32  2  0  0  0
 31 68  1  0  0  0
 32 33  1  0  0  0
 32 69  1  0  0  0
 33 34  1  0  0  0
 33 35  2  0  0  0
 35 70  1  0  0  0
 36 71  1  0  0  0
M  CHG  1  25   1
M  END
> <s_m_source_file>
BACE_95.smi

> <i_m_source_file_index>
1

> <i_lp_mmshare_version>
42013

> <i_f3d_flags>
0

> <s_epik_input>
TzFbQ0gyXVtDSDJdW0NIMl1bQ0gyXVMoPU8pKD1PKVtDSDJdW0NAQEhdKFtDSDNdKUMoPU8pW05IXVtDQEBIXShbQ0gyXWMoW2NIXTIpW2NIXVtjSF1bY0hdYzEyKVtDQEhdKFtPSF0pW0NIMl1bTkhdQzMoW0NIMl1bQ0gyXTMpYzRbY0hdW2NIXVtjSF1jKEJyKVtjSF00

> <s_epik_cmdline>
J2VwaWtfcHl0aG9uJywgJy1waCcsICc3LjAnLCAnLXRuJywgJzgnLCAnLW1hJywgJzIwMCcsICctaW1hZScsICc8aW5maWxlLm1hZT4nLCAnLW9tYWUnLCAnPG91dGZpbGUubWFlPic=

> <r_lp_tautomer_probability>
1

> <r_epik_Ionization_Penalty>
  0.6203

> <r_epik_Ionization_Penalty_Charging>
  0.6203

> <r_epik_Ionization_Penalty_Neutral>
  0.0000

> <r_epik_State_Penalty>
  0.6362

> <r_epik_Charging_Adjusted_Penalty>
1.25653

> <i_epik_Tot_Q>
1

> <i_epik_Tot_abs_Q>
1

> <s_lp_Force_Field>
OPLS_2005

> <r_lp_Energy>
45.6633

> <b_lp_Chiralities_Consistent>
1

> <s_lp_Variant>
BACE_95.smi:1-2

> <chiral flag>
1

> <version>
0

> <s_i_glide_gridfile>
second_dock_grid_2

> <i_i_glide_lignum>
193

> <i_i_glide_rotatable_bonds>
6

> <r_i_docking_score>
-4.86181

> <r_i_glide_ligand_efficiency>
-0.13505

> <r_i_glide_ligand_efficiency_sa>
-0.445926

> <r_i_glide_ligand_efficiency_ln>
-1.06072

> <r_glide_XP_GScore>
-5.49801

> <r_i_glide_gscore>
-5.49801

> <r_i_glide_evdw>
-38.63

> <r_i_glide_ecoul>
-19.0382

> <r_i_glide_energy>
-57.6682

> <r_i_glide_einternal>
3.9842

> <r_i_glide_emodel>
-74.2448

> <r_glide_XP_HBond>
0

> <i_i_glide_confnum>
1

> <i_i_glide_posenum>
9

> <r_i_glide_eff_state_penalty>
0.6362

> <i_glide_XP_PoseRank>
1

$$$$
BACE_96.smi:1
                    3D
 Structure written by MMmdl.
 84 87  0  0  1  0            999 V2000
   23.0909   48.1132   -6.6332 C   0  0  0  0  0  0
   23.4605   46.8136   -5.8950 C   0  0  0  0  0  0
   24.9964   46.7295   -5.7931 C   0  0  0  0  0  0
   22.8680   46.8727   -4.4745 C   0  0  0  0  0  0
   22.9155   45.6068   -6.7130 C   0  0  0  0  0  0
   22.6559   44.3267   -5.9765 C   0  0  0  0  0  0
   21.5890   43.4707   -5.9407 C   0  0  0  0  0  0
   22.0750   42.3511   -5.2019 C   0  0  0  0  0  0
   23.2632   42.6028   -4.6902 N   0  0  0  0  0  0
   23.6723   43.8191   -5.2399 O   0  0  0  0  0  0
   21.3607   41.0537   -4.8871 C   0  0  0  0  0  0
   22.3432   39.9155   -4.4857 C   0  0  0  0  0  0
   20.4585   41.3108   -3.6722 C   0  0  0  0  0  0
   20.5206   40.7241   -6.0828 N   0  3  0  0  0  0
   20.9004   39.6114   -7.0038 C   0  0  0  0  0  0
   22.1499   39.8204   -7.9270 C   0  0  1  0  0  0
   22.4597   38.5494   -8.4380 O   0  0  0  0  0  0
   22.0957   40.7441   -9.1833 C   0  0  2  0  0  0
   22.9617   42.0028   -8.9583 C   0  0  0  0  0  0
   22.8034   43.1289   -9.9630 C   0  0  0  0  0  0
   21.8839   44.1718   -9.7249 C   0  0  0  0  0  0
   21.7657   45.2409  -10.6325 C   0  0  0  0  0  0
   22.6057   45.2820  -11.7682 C   0  0  0  0  0  0
   23.5217   44.2412  -12.0126 C   0  0  0  0  0  0
   23.6158   43.1631  -11.1136 C   0  0  0  0  0  0
   20.7960   46.1871  -10.4043 O   0  0  0  0  0  0
   19.8567   46.3636  -11.4644 C   0  0  0  0  0  0
   19.1091   45.0447  -11.7293 C   0  0  0  0  0  0
   18.0305   45.1142  -12.8142 C   0  0  0  0  0  0
   17.4564   43.7248  -13.1302 C   0  0  0  0  0  0
   16.5893   43.2963  -12.0826 O   0  0  0  0  0  0
   16.9268   42.1618  -11.3746 C   0  0  0  0  0  0
   15.8778   41.3835  -10.8407 C   0  0  0  0  0  0
   16.1512   40.1772  -10.1673 C   0  0  0  0  0  0
   14.8601   39.2144   -9.5552 Cl  0  0  0  0  0  0
   17.4799   39.7539   -9.9904 C   0  0  0  0  0  0
   18.5403   40.5531  -10.4615 C   0  0  0  0  0  0
   18.2618   41.7447  -11.1568 C   0  0  0  0  0  0
   19.9505   40.1202  -10.2420 C   0  0  0  0  0  0
   20.3016   38.9762  -10.5242 O   0  0  0  0  0  0
   20.7341   41.0291   -9.6320 N   0  0  0  0  0  0
   23.0152   40.0971   -7.3314 H   0  0  0  0  0  0
   22.5806   40.2543  -10.0325 H   0  0  0  0  0  0
   23.4960   48.9896   -6.1245 H   0  0  0  0  0  0
   22.0085   48.2449   -6.6975 H   0  0  0  0  0  0
   23.4847   48.1165   -7.6530 H   0  0  0  0  0  0
   25.4644   46.6995   -6.7765 H   0  0  0  0  0  0
   25.3125   45.8351   -5.2542 H   0  0  0  0  0  0
   25.4097   47.5869   -5.2608 H   0  0  0  0  0  0
   23.1772   47.7804   -3.9564 H   0  0  0  0  0  0
   23.2052   46.0311   -3.8682 H   0  0  0  0  0  0
   21.7780   46.8699   -4.5073 H   0  0  0  0  0  0
   21.9688   45.9013   -7.1661 H   0  0  0  0  0  0
   23.5753   45.4047   -7.5584 H   0  0  0  0  0  0
   20.6398   43.6035   -6.4363 H   0  0  0  0  0  0
   22.8653   40.1630   -3.5596 H   0  0  0  0  0  0
   23.1174   39.7518   -5.2241 H   0  0  0  0  0  0
   21.8508   38.9594   -4.3081 H   0  0  0  0  0  0
   21.0449   41.5827   -2.7947 H   0  0  0  0  0  0
   19.8781   40.4246   -3.4145 H   0  0  0  0  0  0
   19.7613   42.1325   -3.8546 H   0  0  0  0  0  0
   19.5931   40.5081   -5.7240 H   0  0  0  0  0  0
   21.0324   38.7052   -6.4133 H   0  0  0  0  0  0
   20.0224   39.3864   -7.6083 H   0  0  0  0  0  0
   23.2813   38.5654   -8.9175 H   0  0  0  0  0  0
   22.7745   42.4094   -7.9752 H   0  0  0  0  0  0
   24.0147   41.7126   -8.9399 H   0  0  0  0  0  0
   21.2496   44.1484   -8.8528 H   0  0  0  0  0  0
   22.5407   46.1002  -12.4701 H   0  0  0  0  0  0
   24.1531   44.2643  -12.8889 H   0  0  0  0  0  0
   24.3249   42.3683  -11.3034 H   0  0  0  0  0  0
   19.1455   47.1333  -11.1599 H   0  0  0  0  0  0
   20.3396   46.7323  -12.3703 H   0  0  0  0  0  0
   19.8321   44.2930  -12.0391 H   0  0  0  0  0  0
   18.6646   44.6924  -10.7982 H   0  0  0  0  0  0
   17.2278   45.7895  -12.5131 H   0  0  0  0  0  0
   18.4606   45.5390  -13.7198 H   0  0  0  0  0  0
   16.8617   43.7631  -14.0376 H   0  0  0  0  0  0
   18.2483   43.0192  -13.3812 H   0  0  0  0  0  0
   14.8532   41.6971  -10.9685 H   0  0  0  0  0  0
   17.6826   38.8272   -9.4696 H   0  0  0  0  0  0
   19.0921   42.3180  -11.5299 H   0  0  0  0  0  0
   20.3600   41.9526   -9.4653 H   0  0  0  0  0  0
   20.4248   41.5682   -6.6280 H   0  0  0  0  0  0
  1  2  1  0  0  0
  1 44  1  0  0  0
  1 45  1  0  0  0
  1 46  1  0  0  0
  2  3  1  0  0  0
  2  4  1  0  0  0
  2  5  1  0  0  0
  3 47  1  0  0  0
  3 48  1  0  0  0
  3 49  1  0  0  0
  4 50  1  0  0  0
  4 51  1  0  0  0
  4 52  1  0  0  0
  5  6  1  0  0  0
  5 53  1  0  0  0
  5 54  1  0  0  0
  6 10  1  0  0  0
  6  7  2  0  0  0
  7  8  1  0  0  0
  7 55  1  0  0  0
  8  9  2  0  0  0
  8 11  1  0  0  0
  9 10  1  0  0  0
 11 12  1  0  0  0
 11 13  1  0  0  0
 11 14  1  0  0  0
 12 56  1  0  0  0
 12 57  1  0  0  0
 12 58  1  0  0  0
 13 59  1  0  0  0
 13 60  1  0  0  0
 13 61  1  0  0  0
 14 15  1  0  0  0
 14 62  1  0  0  0
 14 84  1  0  0  0
 15 16  1  0  0  0
 15 63  1  0  0  0
 15 64  1  0  0  0
 16 42  1  0  0  0
 16 17  1  0  0  0
 16 18  1  0  0  0
 17 65  1  0  0  0
 18 43  1  0  0  0
 18 41  1  0  0  0
 18 19  1  0  0  0
 19 20  1  0  0  0
 19 66  1  0  0  0
 19 67  1  0  0  0
 20 25  1  0  0  0
 20 21  2  0  0  0
 21 22  1  0  0  0
 21 68  1  0  0  0
 22 23  2  0  0  0
 22 26  1  0  0  0
 23 24  1  0  0  0
 23 69  1  0  0  0
 24 25  2  0  0  0
 24 70  1  0  0  0
 25 71  1  0  0  0
 26 27  1  0  0  0
 27 28  1  0  0  0
 27 72  1  0  0  0
 27 73  1  0  0  0
 28 29  1  0  0  0
 28 74  1  0  0  0
 28 75  1  0  0  0
 29 30  1  0  0  0
 29 76  1  0  0  0
 29 77  1  0  0  0
 30 31  1  0  0  0
 30 78  1  0  0  0
 30 79  1  0  0  0
 31 32  1  0  0  0
 32 38  1  0  0  0
 32 33  2  0  0  0
 33 34  1  0  0  0
 33 80  1  0  0  0
 34 35  1  0  0  0
 34 36  2  0  0  0
 36 37  1  0  0  0
 36 81  1  0  0  0
 37 38  2  0  0  0
 37 39  1  0  0  0
 38 82  1  0  0  0
 39 40  2  0  0  0
 39 41  1  0  0  0
 41 83  1  0  0  0
M  CHG  1  14   1
M  END
> <s_m_source_file>
BACE_96.smi

> <i_m_source_file_index>
1

> <i_lp_mmshare_version>
42013

> <i_f3d_flags>
0

> <s_epik_input>
W0NIM11DKFtDSDNdKShbQ0gzXSlbQ0gyXWMxW2NIXWMobm8xKUMoW0NIM10pKFtDSDNdKVtOSF1bQ0gyXVtDQEBIXShbT0hdKVtDQEhdKFtDSDJdMilbTkhdQyg9TyljKFtjSF0zKVtjSF1jKENsKVtjSF1jM09bQ0gyXVtDSDJdW0NIMl1bQ0gyXU9jKFtjSF1jMjQpW2NIXVtjSF1bY0hdNA==

> <s_epik_cmdline>
J2VwaWtfcHl0aG9uJywgJy1waCcsICc3LjAnLCAnLXRuJywgJzgnLCAnLW1hJywgJzIwMCcsICctaW1hZScsICc8aW5maWxlLm1hZT4nLCAnLW9tYWUnLCAnPG91dGZpbGUubWFlPic=

> <r_lp_tautomer_probability>
1

> <r_epik_Ionization_Penalty>
  0.2386

> <r_epik_Ionization_Penalty_Charging>
  0.2386

> <r_epik_Ionization_Penalty_Neutral>
  0.0000

> <r_epik_State_Penalty>
  0.2295

> <r_epik_Charging_Adjusted_Penalty>
0.468086

> <i_epik_Tot_Q>
1

> <i_epik_Tot_abs_Q>
1

> <s_lp_Force_Field>
OPLS_2005

> <r_lp_Energy>
37.3862

> <b_lp_Chiralities_Consistent>
1

> <s_lp_Variant>
BACE_96.smi:1-1

> <chiral flag>
1

> <version>
0

> <s_i_glide_gridfile>
second_dock_grid_2

> <i_i_glide_lignum>
194

> <i_i_glide_rotatable_bonds>
8

> <r_i_docking_score>
-5.65934

> <r_i_glide_ligand_efficiency>
-0.138033

> <r_i_glide_ligand_efficiency_sa>
-0.475966

> <r_i_glide_ligand_efficiency_ln>
-1.20065

> <r_glide_XP_GScore>
-5.88884

> <r_i_glide_gscore>
-5.88884

> <r_i_glide_evdw>
-38.0812

> <r_i_glide_ecoul>
-7.84024

> <r_i_glide_energy>
-45.9215

> <r_i_glide_einternal>
7.16765

> <r_i_glide_emodel>
-63.0381

> <r_glide_XP_HBond>
-1.15964

> <i_i_glide_confnum>
1

> <i_i_glide_posenum>
1

> <r_i_glide_eff_state_penalty>
0.2295

> <i_glide_XP_PoseRank>
1

$$$$
BACE_96.smi:1
                    3D
 Structure written by MMmdl.
 83 86  0  0  1  0            999 V2000
   15.2423   44.3225  -11.3524 C   0  0  0  0  0  0
   16.4958   45.2182  -11.2410 C   0  0  0  0  0  0
   17.0006   45.5351  -12.6622 C   0  0  0  0  0  0
   16.1069   46.5421  -10.5535 C   0  0  0  0  0  0
   17.6381   44.5263  -10.4451 C   0  0  0  0  0  0
   17.2484   43.3058   -9.6725 C   0  0  0  0  0  0
   17.5149   41.9767   -9.8389 C   0  0  0  0  0  0
   16.8084   41.3469   -8.7740 C   0  0  0  0  0  0
   16.1867   42.2439   -8.0189 N   0  0  0  0  0  0
   16.4636   43.4927   -8.5825 O   0  0  0  0  0  0
   16.6946   39.8676   -8.4423 C   0  0  0  0  0  0
   15.7750   39.6446   -7.2198 C   0  0  0  0  0  0
   16.0725   39.1403   -9.6488 C   0  0  0  0  0  0
   18.0246   39.2814   -8.1995 N   0  0  0  0  0  0
   18.9437   39.2532   -9.3416 C   0  0  0  0  0  0
   20.2811   38.5907   -8.9641 C   0  0  1  0  0  0
   21.0622   38.5496  -10.1430 O   0  0  0  0  0  0
   21.0210   39.3824   -7.8549 C   0  0  2  0  0  0
   20.1074   40.1008   -6.8174 C   0  0  0  0  0  0
   20.8619   41.0033   -5.8501 C   0  0  0  0  0  0
   20.7450   42.4080   -5.9479 C   0  0  0  0  0  0
   21.5233   43.2575   -5.1213 C   0  0  0  0  0  0
   22.3707   42.6708   -4.1592 C   0  0  0  0  0  0
   22.4611   41.2720   -4.0307 C   0  0  0  0  0  0
   21.7129   40.4379   -4.8802 C   0  0  0  0  0  0
   21.5403   44.6355   -5.1930 O   0  0  0  0  0  0
   20.7797   45.3134   -6.1885 C   0  0  0  0  0  0
   21.4671   46.6490   -6.5293 C   0  0  0  0  0  0
   22.6020   46.5211   -7.5665 C   0  0  0  0  0  0
   23.8757   45.8289   -7.0404 C   0  0  0  0  0  0
   24.7485   45.4425   -8.1008 O   0  0  0  0  0  0
   24.5584   44.2059   -8.6869 C   0  0  0  0  0  0
   25.6191   43.6707   -9.4465 C   0  0  0  0  0  0
   25.5112   42.3949  -10.0367 C   0  0  0  0  0  0
   26.8298   41.7523  -10.9448 Cl  0  0  0  0  0  0
   24.3315   41.6407   -9.8836 C   0  0  0  0  0  0
   23.2508   42.1740   -9.1523 C   0  0  0  0  0  0
   23.3687   43.4482   -8.5631 C   0  0  0  0  0  0
   21.9730   41.4153   -8.9879 C   0  0  0  0  0  0
   20.8966   41.9292   -9.2903 O   0  0  0  0  0  0
   22.1016   40.2174   -8.3939 N   0  0  0  0  0  0
   20.1004   37.5720   -8.6169 H   0  0  0  0  0  0
   21.5852   38.6440   -7.2840 H   0  0  0  0  0  0
   14.4822   44.7840  -11.9838 H   0  0  0  0  0  0
   14.7800   44.1420  -10.3810 H   0  0  0  0  0  0
   15.4860   43.3535  -11.7891 H   0  0  0  0  0  0
   17.2644   44.6265  -13.2046 H   0  0  0  0  0  0
   17.8863   46.1707  -12.6353 H   0  0  0  0  0  0
   16.2420   46.0554  -13.2482 H   0  0  0  0  0  0
   15.3321   47.0672  -11.1129 H   0  0  0  0  0  0
   16.9611   47.2149  -10.4703 H   0  0  0  0  0  0
   15.7222   46.3749   -9.5473 H   0  0  0  0  0  0
   18.4191   44.2243  -11.1441 H   0  0  0  0  0  0
   18.1206   45.2416   -9.7780 H   0  0  0  0  0  0
   18.1100   41.5252  -10.6183 H   0  0  0  0  0  0
   14.7551   39.9710   -7.4274 H   0  0  0  0  0  0
   16.1127   40.1972   -6.3426 H   0  0  0  0  0  0
   15.7263   38.5898   -6.9469 H   0  0  0  0  0  0
   15.0856   39.5390   -9.8870 H   0  0  0  0  0  0
   15.9565   38.0736   -9.4534 H   0  0  0  0  0  0
   16.6901   39.2420  -10.5423 H   0  0  0  0  0  0
   17.9091   38.3383   -7.8411 H   0  0  0  0  0  0
   18.5017   38.7339  -10.1929 H   0  0  0  0  0  0
   19.1324   40.2752   -9.6698 H   0  0  0  0  0  0
   21.9140   38.2009   -9.9259 H   0  0  0  0  0  0
   19.3534   40.7009   -7.3271 H   0  0  0  0  0  0
   19.5524   39.3613   -6.2394 H   0  0  0  0  0  0
   20.0739   42.8061   -6.6919 H   0  0  0  0  0  0
   22.9671   43.3021   -3.5169 H   0  0  0  0  0  0
   23.1184   40.8393   -3.2911 H   0  0  0  0  0  0
   21.8044   39.3650   -4.7962 H   0  0  0  0  0  0
   20.6542   44.7553   -7.1141 H   0  0  0  0  0  0
   19.7837   45.4964   -5.7840 H   0  0  0  0  0  0
   20.7126   47.3136   -6.9510 H   0  0  0  0  0  0
   21.8234   47.1392   -5.6226 H   0  0  0  0  0  0
   22.2177   46.0042   -8.4453 H   0  0  0  0  0  0
   22.8764   47.5154   -7.9199 H   0  0  0  0  0  0
   24.4162   46.5255   -6.3994 H   0  0  0  0  0  0
   23.6580   44.9712   -6.4059 H   0  0  0  0  0  0
   26.5314   44.2376   -9.5616 H   0  0  0  0  0  0
   24.2543   40.6641  -10.3401 H   0  0  0  0  0  0
   22.5299   43.8204   -7.9990 H   0  0  0  0  0  0
   23.0408   39.9080   -8.1898 H   0  0  0  0  0  0
  1  2  1  0  0  0
  1 44  1  0  0  0
  1 45  1  0  0  0
  1 46  1  0  0  0
  2  3  1  0  0  0
  2  4  1  0  0  0
  2  5  1  0  0  0
  3 47  1  0  0  0
  3 48  1  0  0  0
  3 49  1  0  0  0
  4 50  1  0  0  0
  4 51  1  0  0  0
  4 52  1  0  0  0
  5  6  1  0  0  0
  5 53  1  0  0  0
  5 54  1  0  0  0
  6 10  1  0  0  0
  6  7  2  0  0  0
  7  8  1  0  0  0
  7 55  1  0  0  0
  8  9  2  0  0  0
  8 11  1  0  0  0
  9 10  1  0  0  0
 11 12  1  0  0  0
 11 13  1  0  0  0
 11 14  1  0  0  0
 12 56  1  0  0  0
 12 57  1  0  0  0
 12 58  1  0  0  0
 13 59  1  0  0  0
 13 60  1  0  0  0
 13 61  1  0  0  0
 14 15  1  0  0  0
 14 62  1  0  0  0
 15 16  1  0  0  0
 15 63  1  0  0  0
 15 64  1  0  0  0
 16 42  1  0  0  0
 16 17  1  0  0  0
 16 18  1  0  0  0
 17 65  1  0  0  0
 18 43  1  0  0  0
 18 41  1  0  0  0
 18 19  1  0  0  0
 19 20  1  0  0  0
 19 66  1  0  0  0
 19 67  1  0  0  0
 20 25  1  0  0  0
 20 21  2  0  0  0
 21 22  1  0  0  0
 21 68  1  0  0  0
 22 23  2  0  0  0
 22 26  1  0  0  0
 23 24  1  0  0  0
 23 69  1  0  0  0
 24 25  2  0  0  0
 24 70  1  0  0  0
 25 71  1  0  0  0
 26 27  1  0  0  0
 27 28  1  0  0  0
 27 72  1  0  0  0
 27 73  1  0  0  0
 28 29  1  0  0  0
 28 74  1  0  0  0
 28 75  1  0  0  0
 29 30  1  0  0  0
 29 76  1  0  0  0
 29 77  1  0  0  0
 30 31  1  0  0  0
 30 78  1  0  0  0
 30 79  1  0  0  0
 31 32  1  0  0  0
 32 38  1  0  0  0
 32 33  2  0  0  0
 33 34  1  0  0  0
 33 80  1  0  0  0
 34 35  1  0  0  0
 34 36  2  0  0  0
 36 37  1  0  0  0
 36 81  1  0  0  0
 37 38  2  0  0  0
 37 39  1  0  0  0
 38 82  1  0  0  0
 39 40  2  0  0  0
 39 41  1  0  0  0
 41 83  1  0  0  0
M  END
> <s_m_source_file>
BACE_96.smi

> <i_m_source_file_index>
1

> <i_lp_mmshare_version>
42013

> <i_f3d_flags>
0

> <s_epik_input>
W0NIM11DKFtDSDNdKShbQ0gzXSlbQ0gyXWMxW2NIXWMobm8xKUMoW0NIM10pKFtDSDNdKVtOSF1bQ0gyXVtDQEBIXShbT0hdKVtDQEhdKFtDSDJdMilbTkhdQyg9TyljKFtjSF0zKVtjSF1jKENsKVtjSF1jM09bQ0gyXVtDSDJdW0NIMl1bQ0gyXU9jKFtjSF1jMjQpW2NIXVtjSF1bY0hdNA==

> <s_epik_cmdline>
J2VwaWtfcHl0aG9uJywgJy1waCcsICc3LjAnLCAnLXRuJywgJzgnLCAnLW1hJywgJzIwMCcsICctaW1hZScsICc8aW5maWxlLm1hZT4nLCAnLW9tYWUnLCAnPG91dGZpbGUubWFlPic=

> <r_lp_tautomer_probability>
1

> <r_epik_Ionization_Penalty>
  0.6542

> <r_epik_Ionization_Penalty_Charging>
  0.0000

> <r_epik_Ionization_Penalty_Neutral>
  0.6542

> <r_epik_State_Penalty>
  0.6730

> <r_epik_Charging_Adjusted_Penalty>
0.67299

> <i_epik_Tot_Q>
0

> <i_epik_Tot_abs_Q>
0

> <s_lp_Force_Field>
OPLS_2005

> <r_lp_Energy>
41.8767

> <b_lp_Chiralities_Consistent>
1

> <s_lp_Variant>
BACE_96.smi:1-2

> <chiral flag>
1

> <version>
0

> <s_i_glide_gridfile>
second_dock_grid_2

> <i_i_glide_lignum>
195

> <i_i_glide_rotatable_bonds>
8

> <r_i_docking_score>
-2.67868

> <r_i_glide_ligand_efficiency>
-0.0653336

> <r_i_glide_ligand_efficiency_sa>
-0.225284

> <r_i_glide_ligand_efficiency_ln>
-0.56829

> <r_glide_XP_GScore>
-3.35168

> <r_i_glide_gscore>
-3.35168

> <r_i_glide_evdw>
-43.7961

> <r_i_glide_ecoul>
0.215171

> <r_i_glide_energy>
-43.581

> <r_i_glide_einternal>
11.3995

> <r_i_glide_emodel>
-55.9587

> <r_glide_XP_HBond>
0

> <i_i_glide_confnum>
1

> <i_i_glide_posenum>
12

> <r_i_glide_eff_state_penalty>
0.673

> <i_glide_XP_PoseRank>
1

$$$$
BACE_97.smi:1
                    3D
 Structure written by MMmdl.
 80 83  0  0  1  0            999 V2000
   20.1711   46.9549  -11.7232 C   0  0  0  0  0  0
   20.2341   45.4733  -11.4196 C   0  0  0  0  0  0
   19.1225   44.6399  -11.6365 C   0  0  0  0  0  0
   19.2320   43.2700  -11.3176 C   0  0  0  0  0  0
   20.4673   42.7910  -10.8251 C   0  0  0  0  0  0
   21.5297   43.7063  -10.6628 C   0  0  0  0  0  0
   22.7839   43.3390  -10.1710 N   0  0  0  0  0  0
   23.3703   42.0568  -10.5427 C   0  0  0  0  0  0
   23.8595   41.2879   -9.3030 C   0  0  0  0  0  0
   22.7304   40.6040   -8.5119 C   0  0  0  0  0  0
   22.2123   39.2961   -9.1446 C   0  0  0  0  0  0
   20.7853   38.9787   -8.7340 C   0  0  0  0  0  0
   20.4944   38.5512   -7.4236 C   0  0  0  0  0  0
   19.1598   38.3256   -7.0285 C   0  0  0  0  0  0
   18.1126   38.4875   -7.9513 C   0  0  0  0  0  0
   18.3956   38.8982   -9.2685 C   0  0  0  0  0  0
   17.2686   39.0943  -10.2681 C   0  0  0  0  0  0
   16.7395   40.5431  -10.3564 C   0  0  2  0  0  0
   17.8611   41.4790  -10.4992 N   0  0  0  0  0  0
   18.0416   42.3761  -11.4855 C   0  0  0  0  0  0
   17.2596   42.5503  -12.4190 O   0  0  0  0  0  0
   15.7731   40.8796   -9.1690 C   0  0  2  0  0  0
   14.4605   40.6417   -9.6393 O   0  0  0  0  0  0
   15.8034   42.3252   -8.6154 C   0  0  0  0  0  0
   16.8973   42.5549   -7.6397 N   0  3  0  0  0  0
   17.7378   43.7323   -7.9533 C   0  0  0  0  0  0
   18.8678   43.9921   -6.9700 C   0  0  0  0  0  0
   19.6603   42.9520   -6.4291 C   0  0  0  0  0  0
   20.6601   43.2790   -5.4767 C   0  0  0  0  0  0
   20.8968   44.6468   -5.2429 C   0  0  0  0  0  0
   20.0987   45.6117   -5.8781 C   0  0  0  0  0  0
   19.0766   45.2954   -6.6957 N   0  0  0  0  0  0
   21.4503   42.2315   -4.6700 C   0  0  0  0  0  0
   22.9659   42.4423   -4.8670 C   0  0  0  0  0  0
   21.1117   40.7925   -5.0815 C   0  0  0  0  0  0
   21.1111   42.3735   -3.1716 C   0  0  0  0  0  0
   19.7330   39.1281   -9.6585 C   0  0  0  0  0  0
   21.4091   45.0208  -10.9394 N   0  0  0  0  0  0
   16.1581   40.5922  -11.2780 H   0  0  0  0  0  0
   15.9316   40.1922   -8.3393 H   0  0  0  0  0  0
   19.2168   47.2258  -12.1767 H   0  0  0  0  0  0
   20.9665   47.2367  -12.4147 H   0  0  0  0  0  0
   20.2925   47.5326  -10.8068 H   0  0  0  0  0  0
   18.1986   45.0455  -12.0215 H   0  0  0  0  0  0
   20.5967   41.7497  -10.5698 H   0  0  0  0  0  0
   23.4352   44.1057  -10.0924 H   0  0  0  0  0  0
   22.7023   41.4444  -11.1497 H   0  0  0  0  0  0
   24.2262   42.2741  -11.1842 H   0  0  0  0  0  0
   24.6012   40.5510   -9.6032 H   0  0  0  0  0  0
   24.3959   41.9739   -8.6453 H   0  0  0  0  0  0
   23.0785   40.3831   -7.5019 H   0  0  0  0  0  0
   21.9116   41.3178   -8.3986 H   0  0  0  0  0  0
   22.2621   39.3537  -10.2305 H   0  0  0  0  0  0
   22.8577   38.4687   -8.8513 H   0  0  0  0  0  0
   21.2939   38.4032   -6.7126 H   0  0  0  0  0  0
   18.9372   38.0040   -6.0215 H   0  0  0  0  0  0
   17.0979   38.2863   -7.6355 H   0  0  0  0  0  0
   17.6607   38.8047  -11.2399 H   0  0  0  0  0  0
   16.4516   38.4013  -10.0553 H   0  0  0  0  0  0
   18.6043   41.3937   -9.8190 H   0  0  0  0  0  0
   13.8551   40.5504   -8.9100 H   0  0  0  0  0  0
   15.8264   43.0484   -9.4337 H   0  0  0  0  0  0
   14.8797   42.5240   -8.0693 H   0  0  0  0  0  0
   16.4691   42.7003   -6.7293 H   0  0  0  0  0  0
   18.1860   43.6289   -8.9358 H   0  0  0  0  0  0
   17.0907   44.6115   -8.0027 H   0  0  0  0  0  0
   19.4455   41.9249   -6.6846 H   0  0  0  0  0  0
   21.6659   44.9556   -4.5510 H   0  0  0  0  0  0
   20.2569   46.6619   -5.6893 H   0  0  0  0  0  0
   23.5406   41.6748   -4.3448 H   0  0  0  0  0  0
   23.3062   43.4033   -4.4809 H   0  0  0  0  0  0
   23.2418   42.3990   -5.9233 H   0  0  0  0  0  0
   21.3131   40.6540   -6.1383 H   0  0  0  0  0  0
   20.0618   40.5527   -4.8998 H   0  0  0  0  0  0
   21.7075   40.0637   -4.5308 H   0  0  0  0  0  0
   21.6344   41.6254   -2.5744 H   0  0  0  0  0  0
   20.0421   42.2471   -2.9971 H   0  0  0  0  0  0
   21.3947   43.3486   -2.7775 H   0  0  0  0  0  0
   19.9476   39.4384  -10.6711 H   0  0  0  0  0  0
   17.4800   41.7312   -7.5664 H   0  0  0  0  0  0
  1  2  1  0  0  0
  1 41  1  0  0  0
  1 42  1  0  0  0
  1 43  1  0  0  0
  2 38  1  0  0  0
  2  3  2  0  0  0
  3  4  1  0  0  0
  3 44  1  0  0  0
  4 20  1  0  0  0
  4  5  2  0  0  0
  5  6  1  0  0  0
  5 45  1  0  0  0
  6  7  1  0  0  0
  6 38  2  0  0  0
  7  8  1  0  0  0
  7 46  1  0  0  0
  8  9  1  0  0  0
  8 47  1  0  0  0
  8 48  1  0  0  0
  9 10  1  0  0  0
  9 49  1  0  0  0
  9 50  1  0  0  0
 10 11  1  0  0  0
 10 51  1  0  0  0
 10 52  1  0  0  0
 11 12  1  0  0  0
 11 53  1  0  0  0
 11 54  1  0  0  0
 12 37  1  0  0  0
 12 13  2  0  0  0
 13 14  1  0  0  0
 13 55  1  0  0  0
 14 15  2  0  0  0
 14 56  1  0  0  0
 15 16  1  0  0  0
 15 57  1  0  0  0
 16 17  1  0  0  0
 16 37  2  0  0  0
 17 18  1  0  0  0
 17 58  1  0  0  0
 17 59  1  0  0  0
 18 39  1  0  0  0
 18 19  1  0  0  0
 18 22  1  0  0  0
 19 20  1  0  0  0
 19 60  1  0  0  0
 20 21  2  0  0  0
 22 40  1  0  0  0
 22 23  1  0  0  0
 22 24  1  0  0  0
 23 61  1  0  0  0
 24 25  1  0  0  0
 24 62  1  0  0  0
 24 63  1  0  0  0
 25 26  1  0  0  0
 25 64  1  0  0  0
 25 80  1  0  0  0
 26 27  1  0  0  0
 26 65  1  0  0  0
 26 66  1  0  0  0
 27 32  1  0  0  0
 27 28  2  0  0  0
 28 29  1  0  0  0
 28 67  1  0  0  0
 29 30  2  0  0  0
 29 33  1  0  0  0
 30 31  1  0  0  0
 30 68  1  0  0  0
 31 32  2  0  0  0
 31 69  1  0  0  0
 33 34  1  0  0  0
 33 35  1  0  0  0
 33 36  1  0  0  0
 34 70  1  0  0  0
 34 71  1  0  0  0
 34 72  1  0  0  0
 35 73  1  0  0  0
 35 74  1  0  0  0
 35 75  1  0  0  0
 36 76  1  0  0  0
 36 77  1  0  0  0
 36 78  1  0  0  0
 37 79  1  0  0  0
M  CHG  1  25   1
M  END
> <s_m_source_file>
BACE_97.smi

> <i_m_source_file_index>
1

> <i_lp_mmshare_version>
42013

> <i_f3d_flags>
0

> <s_epik_input>
YzEyW2NIXWMoW0NIM10pbmMoW2NIXTEpW05IXVtDSDJdW0NIMl1bQ0gyXVtDSDJdYzNbY0hdW2NIXVtjSF1jKFtjSF0zKVtDSDJdW0NASF0oW05IXUMyPU8pW0NASF0oW09IXSlbQ0gyXVtOSF1bQ0gyXWM0W2NIXWMoW2NIXVtjSF1uNClDKFtDSDNdKShbQ0gzXSlbQ0gzXQ==

> <s_epik_cmdline>
J2VwaWtfcHl0aG9uJywgJy1waCcsICc3LjAnLCAnLXRuJywgJzgnLCAnLW1hJywgJzIwMCcsICctaW1hZScsICc8aW5maWxlLm1hZT4nLCAnLW9tYWUnLCAnPG91dGZpbGUubWFlPic=

> <r_lp_tautomer_probability>
1

> <r_epik_Ionization_Penalty>
  0.0511

> <r_epik_Ionization_Penalty_Charging>
  0.0397

> <r_epik_Ionization_Penalty_Neutral>
  0.0114

> <r_epik_State_Penalty>
  0.0415

> <r_epik_Charging_Adjusted_Penalty>
0.0812228

> <i_epik_Tot_Q>
1

> <i_epik_Tot_abs_Q>
1

> <s_lp_Force_Field>
OPLS_2005

> <r_lp_Energy>
21.8652

> <b_lp_Chiralities_Consistent>
1

> <s_lp_Variant>
BACE_97.smi:1-1

> <chiral flag>
1

> <version>
0

> <s_i_glide_gridfile>
second_dock_grid_2

> <i_i_glide_lignum>
196

> <i_i_glide_rotatable_bonds>
7

> <r_i_docking_score>
-6.36294

> <r_i_glide_ligand_efficiency>
-0.167446

> <r_i_glide_ligand_efficiency_sa>
-0.562949

> <r_i_glide_ligand_efficiency_ln>
-1.37204

> <r_glide_XP_GScore>
-6.40444

> <r_i_glide_gscore>
-6.40444

> <r_i_glide_evdw>
-38.2438

> <r_i_glide_ecoul>
-16.4879

> <r_i_glide_energy>
-54.7317

> <r_i_glide_einternal>
7.23014

> <r_i_glide_emodel>
-73.6906

> <r_glide_XP_HBond>
-0.954837

> <i_i_glide_confnum>
1

> <i_i_glide_posenum>
1

> <r_i_glide_eff_state_penalty>
0.0415

> <i_glide_XP_PoseRank>
1

$$$$
BACE_97.smi:1
                    3D
 Structure written by MMmdl.
 79 82  0  0  1  0            999 V2000
   21.6971   45.5732  -11.2671 C   0  0  0  0  0  0
   20.8997   44.2974  -11.1008 C   0  0  0  0  0  0
   19.5572   44.2232  -11.5131 C   0  0  0  0  0  0
   18.8584   43.0158  -11.3150 C   0  0  0  0  0  0
   19.5482   41.9275  -10.7392 C   0  0  0  0  0  0
   20.9045   42.0956  -10.3819 C   0  0  0  0  0  0
   21.6708   41.0715   -9.8189 N   0  0  0  0  0  0
   21.5444   39.7256  -10.3593 C   0  0  0  0  0  0
   21.2698   38.6836   -9.2596 C   0  0  0  0  0  0
   19.8268   38.7128   -8.7364 C   0  0  0  0  0  0
   18.8131   38.0953   -9.7163 C   0  0  0  0  0  0
   17.3976   38.5485   -9.4291 C   0  0  0  0  0  0
   16.7538   38.1501   -8.2431 C   0  0  0  0  0  0
   15.4377   38.5651   -7.9734 C   0  0  0  0  0  0
   14.7727   39.4178   -8.8707 C   0  0  0  0  0  0
   15.4213   39.8523  -10.0433 C   0  0  0  0  0  0
   14.7427   40.8416  -10.9743 C   0  0  0  0  0  0
   15.1654   42.3119  -10.7381 C   0  0  2  0  0  0
   16.6238   42.3952  -10.7441 N   0  0  0  0  0  0
   17.4137   42.9182  -11.6923 C   0  0  0  0  0  0
   17.0036   43.3548  -12.7653 O   0  0  0  0  0  0
   14.5676   42.9232   -9.4315 C   0  0  2  0  0  0
   13.1656   42.9503   -9.6396 O   0  0  0  0  0  0
   14.9670   44.3974   -9.1197 C   0  0  0  0  0  0
   15.9539   44.5855   -8.0403 N   0  0  0  0  0  0
   17.2978   44.1174   -8.3504 C   0  0  0  0  0  0
   18.3634   44.5273   -7.3594 C   0  0  0  0  0  0
   19.2210   43.5470   -6.8264 C   0  0  0  0  0  0
   20.2391   43.9319   -5.9285 C   0  0  0  0  0  0
   20.3490   45.3110   -5.6395 C   0  0  0  0  0  0
   19.4598   46.2185   -6.2432 C   0  0  0  0  0  0
   18.4732   45.8431   -7.0797 N   0  0  0  0  0  0
   21.1534   42.9039   -5.2374 C   0  0  0  0  0  0
   22.6289   43.3443   -5.3236 C   0  0  0  0  0  0
   21.0585   41.4923   -5.8645 C   0  0  0  0  0  0
   20.7357   42.7988   -3.7587 C   0  0  0  0  0  0
   16.7218   39.3901  -10.3322 C   0  0  0  0  0  0
   21.5598   43.2605  -10.5483 N   0  0  0  0  0  0
   14.7791   42.9048  -11.5679 H   0  0  0  0  0  0
   14.7691   42.2921   -8.5651 H   0  0  0  0  0  0
   21.0692   46.3874  -11.6259 H   0  0  0  0  0  0
   22.5051   45.4195  -11.9850 H   0  0  0  0  0  0
   22.1342   45.8721  -10.3132 H   0  0  0  0  0  0
   19.0643   45.0806  -11.9485 H   0  0  0  0  0  0
   19.0506   40.9864  -10.5693 H   0  0  0  0  0  0
   22.6202   41.3396   -9.6068 H   0  0  0  0  0  0
   20.8031   39.6676  -11.1573 H   0  0  0  0  0  0
   22.4906   39.4908  -10.8394 H   0  0  0  0  0  0
   21.4919   37.6870   -9.6332 H   0  0  0  0  0  0
   21.9620   38.8487   -8.4303 H   0  0  0  0  0  0
   19.7632   38.1880   -7.7827 H   0  0  0  0  0  0
   19.5540   39.7475   -8.5185 H   0  0  0  0  0  0
   19.0573   38.3593  -10.7450 H   0  0  0  0  0  0
   18.8566   37.0067   -9.6663 H   0  0  0  0  0  0
   17.2654   37.5061   -7.5410 H   0  0  0  0  0  0
   14.9468   38.2367   -7.0650 H   0  0  0  0  0  0
   13.7684   39.7491   -8.6466 H   0  0  0  0  0  0
   14.9873   40.5484  -11.9965 H   0  0  0  0  0  0
   13.6611   40.7249  -10.8910 H   0  0  0  0  0  0
   17.0891   42.0242   -9.9278 H   0  0  0  0  0  0
   12.7848   42.1796   -9.2263 H   0  0  0  0  0  0
   15.3070   44.8918  -10.0314 H   0  0  0  0  0  0
   14.0730   44.9467   -8.8236 H   0  0  0  0  0  0
   15.6474   44.1285   -7.1754 H   0  0  0  0  0  0
   17.3025   43.0302   -8.4061 H   0  0  0  0  0  0
   17.6101   44.5096   -9.3172 H   0  0  0  0  0  0
   19.0630   42.5140   -7.0950 H   0  0  0  0  0  0
   21.0938   45.6813   -4.9540 H   0  0  0  0  0  0
   19.5298   47.2749   -6.0295 H   0  0  0  0  0  0
   23.2904   42.6076   -4.8660 H   0  0  0  0  0  0
   22.8132   44.2868   -4.8089 H   0  0  0  0  0  0
   22.9387   43.4646   -6.3616 H   0  0  0  0  0  0
   21.3039   41.5096   -6.9262 H   0  0  0  0  0  0
   20.0607   41.0614   -5.7573 H   0  0  0  0  0  0
   21.7495   40.7987   -5.3860 H   0  0  0  0  0  0
   21.3321   42.0560   -3.2249 H   0  0  0  0  0  0
   19.6867   42.5150   -3.6637 H   0  0  0  0  0  0
   20.8546   43.7488   -3.2397 H   0  0  0  0  0  0
   17.2140   39.7060  -11.2417 H   0  0  0  0  0  0
  1  2  1  0  0  0
  1 41  1  0  0  0
  1 42  1  0  0  0
  1 43  1  0  0  0
  2 38  1  0  0  0
  2  3  2  0  0  0
  3  4  1  0  0  0
  3 44  1  0  0  0
  4 20  1  0  0  0
  4  5  2  0  0  0
  5  6  1  0  0  0
  5 45  1  0  0  0
  6  7  1  0  0  0
  6 38  2  0  0  0
  7  8  1  0  0  0
  7 46  1  0  0  0
  8  9  1  0  0  0
  8 47  1  0  0  0
  8 48  1  0  0  0
  9 10  1  0  0  0
  9 49  1  0  0  0
  9 50  1  0  0  0
 10 11  1  0  0  0
 10 51  1  0  0  0
 10 52  1  0  0  0
 11 12  1  0  0  0
 11 53  1  0  0  0
 11 54  1  0  0  0
 12 37  1  0  0  0
 12 13  2  0  0  0
 13 14  1  0  0  0
 13 55  1  0  0  0
 14 15  2  0  0  0
 14 56  1  0  0  0
 15 16  1  0  0  0
 15 57  1  0  0  0
 16 17  1  0  0  0
 16 37  2  0  0  0
 17 18  1  0  0  0
 17 58  1  0  0  0
 17 59  1  0  0  0
 18 39  1  0  0  0
 18 19  1  0  0  0
 18 22  1  0  0  0
 19 20  1  0  0  0
 19 60  1  0  0  0
 20 21  2  0  0  0
 22 40  1  0  0  0
 22 23  1  0  0  0
 22 24  1  0  0  0
 23 61  1  0  0  0
 24 25  1  0  0  0
 24 62  1  0  0  0
 24 63  1  0  0  0
 25 26  1  0  0  0
 25 64  1  0  0  0
 26 27  1  0  0  0
 26 65  1  0  0  0
 26 66  1  0  0  0
 27 32  1  0  0  0
 27 28  2  0  0  0
 28 29  1  0  0  0
 28 67  1  0  0  0
 29 30  2  0  0  0
 29 33  1  0  0  0
 30 31  1  0  0  0
 30 68  1  0  0  0
 31 32  2  0  0  0
 31 69  1  0  0  0
 33 34  1  0  0  0
 33 35  1  0  0  0
 33 36  1  0  0  0
 34 70  1  0  0  0
 34 71  1  0  0  0
 34 72  1  0  0  0
 35 73  1  0  0  0
 35 74  1  0  0  0
 35 75  1  0  0  0
 36 76  1  0  0  0
 36 77  1  0  0  0
 36 78  1  0  0  0
 37 79  1  0  0  0
M  END
> <s_m_source_file>
BACE_97.smi

> <i_m_source_file_index>
1

> <i_lp_mmshare_version>
42013

> <i_f3d_flags>
0

> <s_epik_input>
YzEyW2NIXWMoW0NIM10pbmMoW2NIXTEpW05IXVtDSDJdW0NIMl1bQ0gyXVtDSDJdYzNbY0hdW2NIXVtjSF1jKFtjSF0zKVtDSDJdW0NASF0oW05IXUMyPU8pW0NASF0oW09IXSlbQ0gyXVtOSF1bQ0gyXWM0W2NIXWMoW2NIXVtjSF1uNClDKFtDSDNdKShbQ0gzXSlbQ0gzXQ==

> <s_epik_cmdline>
J2VwaWtfcHl0aG9uJywgJy1waCcsICc3LjAnLCAnLXRuJywgJzgnLCAnLW1hJywgJzIwMCcsICctaW1hZScsICc8aW5maWxlLm1hZT4nLCAnLW9tYWUnLCAnPG91dGZpbGUubWFlPic=

> <r_lp_tautomer_probability>
1

> <r_epik_Ionization_Penalty>
  1.6406

> <r_epik_Ionization_Penalty_Charging>
  0.0000

> <r_epik_Ionization_Penalty_Neutral>
  1.6406

> <r_epik_State_Penalty>
  1.7289

> <r_epik_Charging_Adjusted_Penalty>
1.72887

> <i_epik_Tot_Q>
0

> <i_epik_Tot_abs_Q>
0

> <s_lp_Force_Field>
OPLS_2005

> <r_lp_Energy>
35.3464

> <b_lp_Chiralities_Consistent>
1

> <s_lp_Variant>
BACE_97.smi:1-2

> <chiral flag>
1

> <version>
0

> <s_i_glide_gridfile>
second_dock_grid_2

> <i_i_glide_lignum>
197

> <i_i_glide_rotatable_bonds>
7

> <r_i_docking_score>
-2.65402

> <r_i_glide_ligand_efficiency>
-0.0698426

> <r_i_glide_ligand_efficiency_sa>
-0.234809

> <r_i_glide_ligand_efficiency_ln>
-0.572285

> <r_glide_XP_GScore>
-4.38292

> <r_i_glide_gscore>
-4.38292

> <r_i_glide_evdw>
-38.7324

> <r_i_glide_ecoul>
-15.8264

> <r_i_glide_energy>
-54.5588

> <r_i_glide_einternal>
10.2638

> <r_i_glide_emodel>
-67.3268

> <r_glide_XP_HBond>
-1.33

> <i_i_glide_confnum>
1

> <i_i_glide_posenum>
6

> <r_i_glide_eff_state_penalty>
1.7289

> <i_glide_XP_PoseRank>
1

$$$$
BACE_97.smi:1
                    3D
 Structure written by MMmdl.
 81 84  0  0  1  0            999 V2000
   19.3624   46.8702   -6.4541 C   0  0  0  0  0  0
   18.8947   45.5160   -6.9432 C   0  0  0  0  0  0
   19.6978   44.3651   -6.8434 C   0  0  0  0  0  0
   19.2017   43.1319   -7.3188 C   0  0  0  0  0  0
   17.8893   43.0784   -7.8460 C   0  0  0  0  0  0
   17.1239   44.2633   -7.9282 C   0  0  0  0  0  0
   15.8199   44.3353   -8.4398 N   0  0  0  0  0  0
   15.0479   43.1377   -8.7417 C   0  0  0  0  0  0
   15.1949   42.7130  -10.2152 C   0  0  0  0  0  0
   14.3212   41.4990  -10.5915 C   0  0  0  0  0  0
   15.0891   40.1706  -10.7394 C   0  0  0  0  0  0
   15.8869   39.7572   -9.5154 C   0  0  0  0  0  0
   15.2798   39.7121   -8.2417 C   0  0  0  0  0  0
   16.0352   39.3492   -7.1125 C   0  0  0  0  0  0
   17.3867   38.9796   -7.2548 C   0  0  0  0  0  0
   17.9942   38.9924   -8.5283 C   0  0  0  0  0  0
   19.4554   38.5934   -8.6907 C   0  0  0  0  0  0
   20.4921   39.6764   -8.2820 C   0  0  2  0  0  0
   19.8656   40.9977   -8.2105 N   0  0  0  0  0  0
   20.0600   41.9045   -7.2394 C   0  0  0  0  0  0
   20.9324   41.7995   -6.3786 O   0  0  0  0  0  0
   21.7517   39.6612   -9.1978 C   0  0  2  0  0  0
   22.4599   38.4891   -8.8397 O   0  0  0  0  0  0
   22.6994   40.8707   -9.0284 C   0  0  0  0  0  0
   23.7434   40.9255  -10.0770 N   0  3  0  0  0  0
   24.8430   41.8694   -9.8076 C   0  0  0  0  0  0
   24.3921   43.3169   -9.8022 C   0  0  0  0  0  0
   24.4867   44.1034  -10.9662 C   0  0  0  0  0  0
   24.0791   45.4571  -10.9155 C   0  0  0  0  0  0
   23.5855   45.9387   -9.6807 C   0  0  0  0  0  0
   23.5229   45.0694   -8.5770 C   0  0  0  0  0  0
   23.9137   43.7816   -8.6306 N   0  0  0  0  0  0
   24.1541   46.3940  -12.1320 C   0  0  0  0  0  0
   24.6815   45.6879  -13.4008 C   0  0  0  0  0  0
   25.1010   47.5694  -11.8200 C   0  0  0  0  0  0
   22.7447   46.9438  -12.4367 C   0  0  0  0  0  0
   17.2419   39.3899   -9.6539 C   0  0  0  0  0  0
   17.6639   45.4238   -7.4905 N   0  3  0  0  0  0
   20.8014   39.4289   -7.2630 H   0  0  0  0  0  0
   21.4462   39.5978  -10.2436 H   0  0  0  0  0  0
   20.2261   46.7671   -5.7964 H   0  0  0  0  0  0
   18.5723   47.3743   -5.8966 H   0  0  0  0  0  0
   19.6489   47.5002   -7.2971 H   0  0  0  0  0  0
   20.6892   44.4232   -6.4145 H   0  0  0  0  0  0
   17.4756   42.1344   -8.1702 H   0  0  0  0  0  0
   15.3235   45.2090   -8.3853 H   0  0  0  0  0  0
   15.3119   42.3326   -8.0579 H   0  0  0  0  0  0
   14.0008   43.3598   -8.5352 H   0  0  0  0  0  0
   14.9010   43.5551  -10.8429 H   0  0  0  0  0  0
   16.2402   42.5141  -10.4555 H   0  0  0  0  0  0
   13.5099   41.3811   -9.8721 H   0  0  0  0  0  0
   13.8236   41.7025  -11.5392 H   0  0  0  0  0  0
   14.3899   39.3652  -10.9605 H   0  0  0  0  0  0
   15.7578   40.2360  -11.5990 H   0  0  0  0  0  0
   14.2364   39.9641   -8.1207 H   0  0  0  0  0  0
   15.5673   39.3223   -6.1363 H   0  0  0  0  0  0
   17.9478   38.6803   -6.3812 H   0  0  0  0  0  0
   19.6363   37.6885   -8.1126 H   0  0  0  0  0  0
   19.6051   38.3016   -9.7319 H   0  0  0  0  0  0
   19.1304   41.1721   -8.8788 H   0  0  0  0  0  0
   23.3054   38.4299   -9.2774 H   0  0  0  0  0  0
   22.1419   41.8015   -9.1148 H   0  0  0  0  0  0
   23.1483   40.8560   -8.0332 H   0  0  0  0  0  0
   24.1661   40.0067  -10.1324 H   0  0  0  0  0  0
   25.2642   41.6203   -8.8400 H   0  0  0  0  0  0
   25.6285   41.7264  -10.5504 H   0  0  0  0  0  0
   24.8812   43.6611  -11.8676 H   0  0  0  0  0  0
   23.2611   46.9619   -9.5704 H   0  0  0  0  0  0
   23.1480   45.4175   -7.6261 H   0  0  0  0  0  0
   24.6965   46.3669  -14.2528 H   0  0  0  0  0  0
   24.0601   44.8383  -13.6804 H   0  0  0  0  0  0
   25.7012   45.3253  -13.2655 H   0  0  0  0  0  0
   26.1045   47.2143  -11.5837 H   0  0  0  0  0  0
   24.7552   48.1579  -10.9710 H   0  0  0  0  0  0
   25.1869   48.2503  -12.6674 H   0  0  0  0  0  0
   22.7363   47.5524  -13.3420 H   0  0  0  0  0  0
   22.3660   47.5705  -11.6297 H   0  0  0  0  0  0
   22.0308   46.1319  -12.5721 H   0  0  0  0  0  0
   17.7040   39.4018  -10.6306 H   0  0  0  0  0  0
   23.3318   41.1403  -10.9765 H   0  0  0  0  0  0
   17.1126   46.2776   -7.5607 H   0  0  0  0  0  0
  1  2  1  0  0  0
  1 41  1  0  0  0
  1 42  1  0  0  0
  1 43  1  0  0  0
  2 38  1  0  0  0
  2  3  2  0  0  0
  3  4  1  0  0  0
  3 44  1  0  0  0
  4 20  1  0  0  0
  4  5  2  0  0  0
  5  6  1  0  0  0
  5 45  1  0  0  0
  6  7  1  0  0  0
  6 38  2  0  0  0
  7  8  1  0  0  0
  7 46  1  0  0  0
  8  9  1  0  0  0
  8 47  1  0  0  0
  8 48  1  0  0  0
  9 10  1  0  0  0
  9 49  1  0  0  0
  9 50  1  0  0  0
 10 11  1  0  0  0
 10 51  1  0  0  0
 10 52  1  0  0  0
 11 12  1  0  0  0
 11 53  1  0  0  0
 11 54  1  0  0  0
 12 37  1  0  0  0
 12 13  2  0  0  0
 13 14  1  0  0  0
 13 55  1  0  0  0
 14 15  2  0  0  0
 14 56  1  0  0  0
 15 16  1  0  0  0
 15 57  1  0  0  0
 16 17  1  0  0  0
 16 37  2  0  0  0
 17 18  1  0  0  0
 17 58  1  0  0  0
 17 59  1  0  0  0
 18 39  1  0  0  0
 18 19  1  0  0  0
 18 22  1  0  0  0
 19 20  1  0  0  0
 19 60  1  0  0  0
 20 21  2  0  0  0
 22 40  1  0  0  0
 22 23  1  0  0  0
 22 24  1  0  0  0
 23 61  1  0  0  0
 24 25  1  0  0  0
 24 62  1  0  0  0
 24 63  1  0  0  0
 25 26  1  0  0  0
 25 64  1  0  0  0
 25 80  1  0  0  0
 26 27  1  0  0  0
 26 65  1  0  0  0
 26 66  1  0  0  0
 27 32  1  0  0  0
 27 28  2  0  0  0
 28 29  1  0  0  0
 28 67  1  0  0  0
 29 30  2  0  0  0
 29 33  1  0  0  0
 30 31  1  0  0  0
 30 68  1  0  0  0
 31 32  2  0  0  0
 31 69  1  0  0  0
 33 34  1  0  0  0
 33 35  1  0  0  0
 33 36  1  0  0  0
 34 70  1  0  0  0
 34 71  1  0  0  0
 34 72  1  0  0  0
 35 73  1  0  0  0
 35 74  1  0  0  0
 35 75  1  0  0  0
 36 76  1  0  0  0
 36 77  1  0  0  0
 36 78  1  0  0  0
 37 79  1  0  0  0
 38 81  1  0  0  0
M  CHG  2  25   1  38   1
M  END
> <s_m_source_file>
BACE_97.smi

> <i_m_source_file_index>
1

> <i_lp_mmshare_version>
42013

> <i_f3d_flags>
0

> <s_epik_input>
YzEyW2NIXWMoW0NIM10pbmMoW2NIXTEpW05IXVtDSDJdW0NIMl1bQ0gyXVtDSDJdYzNbY0hdW2NIXVtjSF1jKFtjSF0zKVtDSDJdW0NASF0oW05IXUMyPU8pW0NASF0oW09IXSlbQ0gyXVtOSF1bQ0gyXWM0W2NIXWMoW2NIXVtjSF1uNClDKFtDSDNdKShbQ0gzXSlbQ0gzXQ==

> <s_epik_cmdline>
J2VwaWtfcHl0aG9uJywgJy1waCcsICc3LjAnLCAnLXRuJywgJzgnLCAnLW1hJywgJzIwMCcsICctaW1hZScsICc8aW5maWxlLm1hZT4nLCAnLW9tYWUnLCAnPG91dGZpbGUubWFlPic=

> <r_lp_tautomer_probability>
0.999994

> <r_epik_Ionization_Penalty>
  2.4014

> <r_epik_Ionization_Penalty_Charging>
  2.4011

> <r_epik_Ionization_Penalty_Neutral>
  0.0002

> <r_epik_State_Penalty>
  2.5455

> <r_epik_Charging_Adjusted_Penalty>
4.94664

> <i_epik_Tot_Q>
2

> <i_epik_Tot_abs_Q>
2

> <s_lp_Force_Field>
OPLS_2005

> <r_lp_Energy>
28.5298

> <b_lp_Chiralities_Consistent>
1

> <s_lp_Variant>
BACE_97.smi:1-3

> <chiral flag>
1

> <version>
0

> <s_i_glide_gridfile>
second_dock_grid_2

> <i_i_glide_lignum>
198

> <i_i_glide_rotatable_bonds>
7

> <r_i_docking_score>
-0.230537

> <r_i_glide_ligand_efficiency>
-0.00606678

> <r_i_glide_ligand_efficiency_sa>
-0.0203964

> <r_i_glide_ligand_efficiency_ln>
-0.0497107

> <r_glide_XP_GScore>
-2.77604

> <r_i_glide_gscore>
-2.77604

> <r_i_glide_evdw>
-33.5889

> <r_i_glide_ecoul>
-12.449

> <r_i_glide_energy>
-46.0379

> <r_i_glide_einternal>
9.1324

> <r_i_glide_emodel>
-63.9862

> <r_glide_XP_HBond>
-0.629154

> <i_i_glide_confnum>
1

> <i_i_glide_posenum>
1

> <r_i_glide_eff_state_penalty>
2.5455

> <i_glide_XP_PoseRank>
1

$$$$
BACE_98.smi:1
                    3D
 Structure written by MMmdl.
 77 81  0  0  1  0            999 V2000
   22.4596   41.7772   -3.3875 C   0  0  0  0  0  0
   21.6051   42.1647   -4.6031 C   0  0  0  0  0  0
   20.2821   42.8172   -4.1776 C   0  0  0  0  0  0
   22.3858   43.0425   -5.5737 C   0  0  0  0  0  0
   22.7527   44.3598   -5.2375 C   0  0  0  0  0  0
   23.4849   45.1158   -6.1715 C   0  0  0  0  0  0
   23.8636   44.6466   -7.3776 N   0  0  0  0  0  0
   23.5344   43.3729   -7.6902 C   0  0  0  0  0  0
   22.7818   42.5474   -6.8297 C   0  0  0  0  0  0
   24.0282   42.8718   -9.0185 C   0  0  0  0  0  0
   25.5088   42.9261   -9.3113 C   0  0  0  0  0  0
   24.8559   41.5960   -9.0177 C   0  0  0  0  0  0
   23.0329   43.1178  -10.0664 N   0  0  0  0  0  0
   23.0154   42.2337  -11.2324 C   0  0  0  0  0  0
   21.5920   42.1184  -11.7857 C   0  0  1  0  0  0
   21.6600   41.3460  -12.9647 O   0  0  0  0  0  0
   20.6350   41.4279  -10.7756 C   0  0  2  0  0  0
   20.8291   39.8979  -10.6369 C   0  0  0  0  0  0
   20.0888   39.3395   -9.4372 C   0  0  0  0  0  0
   20.6848   39.3757   -8.1594 C   0  0  0  0  0  0
   19.9630   38.9475   -7.0292 C   0  0  0  0  0  0
   18.6501   38.4621   -7.1743 C   0  0  0  0  0  0
   18.0638   38.3971   -8.4561 C   0  0  0  0  0  0
   16.6495   37.8877   -8.6216 C   0  0  0  0  0  0
   15.6034   38.8523   -8.0372 C   0  0  0  0  0  0
   14.3197   38.8845   -8.8730 C   0  0  0  0  0  0
   14.4493   39.7437  -10.1389 C   0  0  0  0  0  0
   14.1751   41.1463   -9.8770 N   0  0  0  0  0  0
   15.0038   42.1211  -10.4286 C   0  0  0  0  0  0
   16.4047   41.9803  -10.4174 C   0  0  0  0  0  0
   17.1950   43.0262  -10.9363 C   0  0  0  0  0  0
   16.5425   44.1611  -11.4583 C   0  0  0  0  0  0
   15.1364   44.2137  -11.4192 C   0  0  0  0  0  0
   14.3359   45.6042  -12.0522 Cl  0  0  0  0  0  0
   14.3816   43.2128  -10.9176 N   0  0  0  0  0  0
   18.6890   42.9791  -10.8495 C   0  0  0  0  0  0
   19.3370   44.0054  -10.6517 O   0  0  0  0  0  0
   19.2344   41.7650  -11.0176 N   0  0  0  0  0  0
   18.7846   38.8299   -9.5863 C   0  0  0  0  0  0
   21.2483   43.1205  -12.0392 H   0  0  0  0  0  0
   20.8409   41.8458   -9.7890 H   0  0  0  0  0  0
   23.3602   41.2487   -3.6943 H   0  0  0  0  0  0
   21.9077   41.1193   -2.7151 H   0  0  0  0  0  0
   22.7655   42.6543   -2.8166 H   0  0  0  0  0  0
   21.3493   41.2432   -5.1265 H   0  0  0  0  0  0
   19.6610   43.0348   -5.0463 H   0  0  0  0  0  0
   20.4401   43.7493   -3.6396 H   0  0  0  0  0  0
   19.7126   42.1575   -3.5232 H   0  0  0  0  0  0
   22.4911   44.7807   -4.2791 H   0  0  0  0  0  0
   23.7802   46.1279   -5.9392 H   0  0  0  0  0  0
   22.5385   41.5403   -7.1254 H   0  0  0  0  0  0
   25.8201   43.1028  -10.3385 H   0  0  0  0  0  0
   26.1627   43.3504   -8.5527 H   0  0  0  0  0  0
   24.8600   41.1279   -8.0400 H   0  0  0  0  0  0
   24.9217   40.8924   -9.8456 H   0  0  0  0  0  0
   23.1408   44.0754  -10.3876 H   0  0  0  0  0  0
   23.7103   42.5981  -11.9899 H   0  0  0  0  0  0
   23.3169   41.2223  -10.9865 H   0  0  0  0  0  0
   22.5414   40.9810  -13.0371 H   0  0  0  0  0  0
   20.4973   39.3831  -11.5398 H   0  0  0  0  0  0
   21.8837   39.6479  -10.5228 H   0  0  0  0  0  0
   21.6910   39.7469   -8.0449 H   0  0  0  0  0  0
   20.4141   38.9901   -6.0499 H   0  0  0  0  0  0
   18.0905   38.1355   -6.3092 H   0  0  0  0  0  0
   16.5620   36.9119   -8.1438 H   0  0  0  0  0  0
   16.4641   37.7141   -9.6818 H   0  0  0  0  0  0
   15.3828   38.5548   -7.0098 H   0  0  0  0  0  0
   16.0016   39.8649   -7.9683 H   0  0  0  0  0  0
   13.4918   39.2452   -8.2635 H   0  0  0  0  0  0
   14.0579   37.8649   -9.1552 H   0  0  0  0  0  0
   15.4019   39.5762  -10.6422 H   0  0  0  0  0  0
   13.6871   39.4272  -10.8395 H   0  0  0  0  0  0
   13.2008   41.3732   -9.7175 H   0  0  0  0  0  0
   16.8636   41.1151   -9.9579 H   0  0  0  0  0  0
   17.1102   44.9918  -11.8535 H   0  0  0  0  0  0
   18.6081   40.9923  -11.1955 H   0  0  0  0  0  0
   18.3292   38.7940  -10.5654 H   0  0  0  0  0  0
  1  2  1  0  0  0
  1 42  1  0  0  0
  1 43  1  0  0  0
  1 44  1  0  0  0
  2  3  1  0  0  0
  2  4  1  0  0  0
  2 45  1  0  0  0
  3 46  1  0  0  0
  3 47  1  0  0  0
  3 48  1  0  0  0
  4  9  1  0  0  0
  4  5  2  0  0  0
  5  6  1  0  0  0
  5 49  1  0  0  0
  6  7  2  0  0  0
  6 50  1  0  0  0
  7  8  1  0  0  0
  8  9  2  0  0  0
  8 10  1  0  0  0
  9 51  1  0  0  0
 10 12  1  0  0  0
 10 11  1  0  0  0
 10 13  1  0  0  0
 11 12  1  0  0  0
 11 52  1  0  0  0
 11 53  1  0  0  0
 12 54  1  0  0  0
 12 55  1  0  0  0
 13 14  1  0  0  0
 13 56  1  0  0  0
 14 15  1  0  0  0
 14 57  1  0  0  0
 14 58  1  0  0  0
 15 40  1  0  0  0
 15 16  1  0  0  0
 15 17  1  0  0  0
 16 59  1  0  0  0
 17 41  1  0  0  0
 17 38  1  0  0  0
 17 18  1  0  0  0
 18 19  1  0  0  0
 18 60  1  0  0  0
 18 61  1  0  0  0
 19 39  1  0  0  0
 19 20  2  0  0  0
 20 21  1  0  0  0
 20 62  1  0  0  0
 21 22  2  0  0  0
 21 63  1  0  0  0
 22 23  1  0  0  0
 22 64  1  0  0  0
 23 24  1  0  0  0
 23 39  2  0  0  0
 24 25  1  0  0  0
 24 65  1  0  0  0
 24 66  1  0  0  0
 25 26  1  0  0  0
 25 67  1  0  0  0
 25 68  1  0  0  0
 26 27  1  0  0  0
 26 69  1  0  0  0
 26 70  1  0  0  0
 27 28  1  0  0  0
 27 71  1  0  0  0
 27 72  1  0  0  0
 28 29  1  0  0  0
 28 73  1  0  0  0
 29 35  1  0  0  0
 29 30  2  0  0  0
 30 31  1  0  0  0
 30 74  1  0  0  0
 31 32  2  0  0  0
 31 36  1  0  0  0
 32 33  1  0  0  0
 32 75  1  0  0  0
 33 34  1  0  0  0
 33 35  2  0  0  0
 36 37  2  0  0  0
 36 38  1  0  0  0
 38 76  1  0  0  0
 39 77  1  0  0  0
M  END
> <s_m_source_file>
BACE_98.smi

> <i_m_source_file_index>
1

> <i_lp_mmshare_version>
42013

> <i_f3d_flags>
0

> <s_epik_input>
W0NIM11bQ0hdKFtDSDNdKWMxW2NIXVtjSF1uYyhbY0hdMSlDMihbQ0gyXVtDSDJdMilbTkhdW0NIMl1bQ0BASF0oW09IXSlbQ0BIXShbQ0gyXTMpW05IXUMoPU8pYyhbY0hdYyhDbCluNClbY0hdYzRbTkhdW0NIMl1bQ0gyXVtDSDJdW0NIMl1jKFtjSF01KVtjSF1bY0hdW2NIXWMzNQ==

> <s_epik_cmdline>
J2VwaWtfcHl0aG9uJywgJy1waCcsICc3LjAnLCAnLXRuJywgJzgnLCAnLW1hJywgJzIwMCcsICctaW1hZScsICc8aW5maWxlLm1hZT4nLCAnLW9tYWUnLCAnPG91dGZpbGUubWFlPic=

> <r_lp_tautomer_probability>
1

> <r_epik_Ionization_Penalty>
  0.1842

> <r_epik_Ionization_Penalty_Charging>
  0.0000

> <r_epik_Ionization_Penalty_Neutral>
  0.1842

> <r_epik_State_Penalty>
  0.0776

> <r_epik_Charging_Adjusted_Penalty>
0.0775933

> <i_epik_Tot_Q>
0

> <i_epik_Tot_abs_Q>
0

> <s_lp_Force_Field>
OPLS_2005

> <r_lp_Energy>
27.1838

> <b_lp_Chiralities_Consistent>
1

> <s_lp_Variant>
BACE_98.smi:1-1

> <chiral flag>
1

> <version>
0

> <s_i_glide_gridfile>
second_dock_grid_2

> <i_i_glide_lignum>
199

> <i_i_glide_rotatable_bonds>
7

> <r_i_docking_score>
-4.16016

> <r_i_glide_ligand_efficiency>
-0.106671

> <r_i_glide_ligand_efficiency_sa>
-0.361743

> <r_i_glide_ligand_efficiency_ln>
-0.892057

> <r_glide_XP_GScore>
-4.23776

> <r_i_glide_gscore>
-4.23776

> <r_i_glide_evdw>
-39.0219

> <r_i_glide_ecoul>
-12.4504

> <r_i_glide_energy>
-51.4722

> <r_i_glide_einternal>
9.49655

> <r_i_glide_emodel>
-63.4006

> <r_glide_XP_HBond>
-0.964973

> <i_i_glide_confnum>
1

> <i_i_glide_posenum>
3

> <r_i_glide_eff_state_penalty>
0.0776

> <i_glide_XP_PoseRank>
1

$$$$
BACE_98.smi:1
                    3D
 Structure written by MMmdl.
 78 82  0  0  1  0            999 V2000
   16.9240   48.1801  -10.7920 C   0  0  0  0  0  0
   16.6449   47.7368  -12.2338 C   0  0  0  0  0  0
   17.8652   47.0574  -12.8694 C   0  0  0  0  0  0
   15.4018   46.8597  -12.3401 C   0  0  0  0  0  0
   14.3937   47.1878  -13.2697 C   0  0  0  0  0  0
   13.2597   46.3630  -13.3772 C   0  0  0  0  0  0
   13.1450   45.2797  -12.5802 N   0  3  0  0  0  0
   14.0544   44.9263  -11.6424 C   0  0  0  0  0  0
   15.2220   45.7212  -11.5187 C   0  0  0  0  0  0
   13.7250   43.7084  -10.7908 C   0  0  0  0  0  0
   12.2788   43.3796  -10.4736 C   0  0  0  0  0  0
   13.0568   42.4940  -11.4188 C   0  0  0  0  0  0
   14.6470   43.5523   -9.6494 N   0  0  0  0  0  0
   15.3238   42.2509   -9.4746 C   0  0  0  0  0  0
   16.3020   41.8331  -10.6171 C   0  0  1  0  0  0
   16.4209   42.7970  -11.6414 O   0  0  0  0  0  0
   17.7559   41.5053  -10.1775 C   0  0  2  0  0  0
   17.9078   40.0505   -9.6858 C   0  0  0  0  0  0
   19.3497   39.7299   -9.3307 C   0  0  0  0  0  0
   20.3057   39.6110  -10.3607 C   0  0  0  0  0  0
   21.6593   39.3999  -10.0447 C   0  0  0  0  0  0
   22.0588   39.2836   -8.7010 C   0  0  0  0  0  0
   21.1079   39.3867   -7.6652 C   0  0  0  0  0  0
   21.5526   39.2440   -6.2208 C   0  0  0  0  0  0
   22.2060   40.5118   -5.6467 C   0  0  0  0  0  0
   21.1878   41.5406   -5.1240 C   0  0  0  0  0  0
   21.7532   42.9732   -5.1361 C   0  0  0  0  0  0
   20.7478   43.9853   -4.8401 N   0  0  0  0  0  0
   19.9898   44.5378   -5.8831 C   0  0  0  0  0  0
   19.7227   43.8526   -7.0884 C   0  0  0  0  0  0
   18.8542   44.4447   -8.0279 C   0  0  0  0  0  0
   18.3410   45.7262   -7.7549 C   0  0  0  0  0  0
   18.6995   46.3562   -6.5547 C   0  0  0  0  0  0
   18.0608   47.9196   -6.2082 Cl  0  0  0  0  0  0
   19.4917   45.7666   -5.6401 N   0  0  0  0  0  0
   18.4714   43.7353   -9.2886 C   0  0  0  0  0  0
   18.2867   44.3579  -10.3362 O   0  0  0  0  0  0
   18.2561   42.4198   -9.1492 N   0  0  0  0  0  0
   19.7510   39.6103   -7.9820 C   0  0  0  0  0  0
   15.8808   40.9551  -11.1083 H   0  0  0  0  0  0
   18.4133   41.6012  -11.0453 H   0  0  0  0  0  0
   16.0601   48.6817  -10.3572 H   0  0  0  0  0  0
   17.7657   48.8715  -10.7486 H   0  0  0  0  0  0
   17.1686   47.3317  -10.1591 H   0  0  0  0  0  0
   16.4547   48.6466  -12.8059 H   0  0  0  0  0  0
   17.7038   46.8937  -13.9345 H   0  0  0  0  0  0
   18.0767   46.0931  -12.4065 H   0  0  0  0  0  0
   18.7607   47.6723  -12.7688 H   0  0  0  0  0  0
   14.4999   48.0455  -13.9218 H   0  0  0  0  0  0
   12.4568   46.5250  -14.0838 H   0  0  0  0  0  0
   15.9752   45.4608  -10.7898 H   0  0  0  0  0  0
   12.0459   42.9529   -9.4989 H   0  0  0  0  0  0
   11.4870   43.9871  -10.9053 H   0  0  0  0  0  0
   12.7878   42.5407  -12.4715 H   0  0  0  0  0  0
   13.2690   41.4930  -11.0545 H   0  0  0  0  0  0
   14.1178   43.7054   -8.7962 H   0  0  0  0  0  0
   15.8503   42.2707   -8.5211 H   0  0  0  0  0  0
   14.5865   41.4616   -9.3259 H   0  0  0  0  0  0
   16.9460   43.5063  -11.2799 H   0  0  0  0  0  0
   17.5803   39.3561  -10.4621 H   0  0  0  0  0  0
   17.2655   39.8707   -8.8221 H   0  0  0  0  0  0
   20.0075   39.7091  -11.3943 H   0  0  0  0  0  0
   22.3930   39.3428  -10.8359 H   0  0  0  0  0  0
   23.1010   39.1162   -8.4655 H   0  0  0  0  0  0
   20.6958   38.9505   -5.6201 H   0  0  0  0  0  0
   22.2627   38.4204   -6.1764 H   0  0  0  0  0  0
   22.8583   40.2326   -4.8186 H   0  0  0  0  0  0
   22.8578   40.9517   -6.4027 H   0  0  0  0  0  0
   20.2813   41.4807   -5.7224 H   0  0  0  0  0  0
   20.8747   41.2723   -4.1138 H   0  0  0  0  0  0
   22.5538   43.0548   -4.4006 H   0  0  0  0  0  0
   22.2058   43.1966   -6.1032 H   0  0  0  0  0  0
   20.8585   44.5282   -3.9863 H   0  0  0  0  0  0
   20.1429   42.8812   -7.2937 H   0  0  0  0  0  0
   17.6672   46.2091   -8.4404 H   0  0  0  0  0  0
   18.4273   42.0216   -8.2363 H   0  0  0  0  0  0
   19.0214   39.7038   -7.1897 H   0  0  0  0  0  0
   12.3277   44.6799  -12.6964 H   0  0  0  0  0  0
  1  2  1  0  0  0
  1 42  1  0  0  0
  1 43  1  0  0  0
  1 44  1  0  0  0
  2  3  1  0  0  0
  2  4  1  0  0  0
  2 45  1  0  0  0
  3 46  1  0  0  0
  3 47  1  0  0  0
  3 48  1  0  0  0
  4  9  1  0  0  0
  4  5  2  0  0  0
  5  6  1  0  0  0
  5 49  1  0  0  0
  6  7  2  0  0  0
  6 50  1  0  0  0
  7  8  1  0  0  0
  7 78  1  0  0  0
  8  9  2  0  0  0
  8 10  1  0  0  0
  9 51  1  0  0  0
 10 12  1  0  0  0
 10 11  1  0  0  0
 10 13  1  0  0  0
 11 12  1  0  0  0
 11 52  1  0  0  0
 11 53  1  0  0  0
 12 54  1  0  0  0
 12 55  1  0  0  0
 13 14  1  0  0  0
 13 56  1  0  0  0
 14 15  1  0  0  0
 14 57  1  0  0  0
 14 58  1  0  0  0
 15 40  1  0  0  0
 15 16  1  0  0  0
 15 17  1  0  0  0
 16 59  1  0  0  0
 17 41  1  0  0  0
 17 38  1  0  0  0
 17 18  1  0  0  0
 18 19  1  0  0  0
 18 60  1  0  0  0
 18 61  1  0  0  0
 19 39  1  0  0  0
 19 20  2  0  0  0
 20 21  1  0  0  0
 20 62  1  0  0  0
 21 22  2  0  0  0
 21 63  1  0  0  0
 22 23  1  0  0  0
 22 64  1  0  0  0
 23 24  1  0  0  0
 23 39  2  0  0  0
 24 25  1  0  0  0
 24 65  1  0  0  0
 24 66  1  0  0  0
 25 26  1  0  0  0
 25 67  1  0  0  0
 25 68  1  0  0  0
 26 27  1  0  0  0
 26 69  1  0  0  0
 26 70  1  0  0  0
 27 28  1  0  0  0
 27 71  1  0  0  0
 27 72  1  0  0  0
 28 29  1  0  0  0
 28 73  1  0  0  0
 29 35  1  0  0  0
 29 30  2  0  0  0
 30 31  1  0  0  0
 30 74  1  0  0  0
 31 32  2  0  0  0
 31 36  1  0  0  0
 32 33  1  0  0  0
 32 75  1  0  0  0
 33 34  1  0  0  0
 33 35  2  0  0  0
 36 37  2  0  0  0
 36 38  1  0  0  0
 38 76  1  0  0  0
 39 77  1  0  0  0
M  CHG  1   7   1
M  END
> <s_m_source_file>
BACE_98.smi

> <i_m_source_file_index>
1

> <i_lp_mmshare_version>
42013

> <i_f3d_flags>
0

> <s_epik_input>
W0NIM11bQ0hdKFtDSDNdKWMxW2NIXVtjSF1uYyhbY0hdMSlDMihbQ0gyXVtDSDJdMilbTkhdW0NIMl1bQ0BASF0oW09IXSlbQ0BIXShbQ0gyXTMpW05IXUMoPU8pYyhbY0hdYyhDbCluNClbY0hdYzRbTkhdW0NIMl1bQ0gyXVtDSDJdW0NIMl1jKFtjSF01KVtjSF1bY0hdW2NIXWMzNQ==

> <s_epik_cmdline>
J2VwaWtfcHl0aG9uJywgJy1waCcsICc3LjAnLCAnLXRuJywgJzgnLCAnLW1hJywgJzIwMCcsICctaW1hZScsICc8aW5maWxlLm1hZT4nLCAnLW9tYWUnLCAnPG91dGZpbGUubWFlPic=

> <r_epik_Ionization_Penalty>
  2.3716

> <r_epik_Ionization_Penalty_Charging>
  2.3716

> <r_epik_Ionization_Penalty_Neutral>
  0.0000

> <r_epik_State_Penalty>
  1.5055

> <r_epik_Charging_Adjusted_Penalty>
3.87712

> <i_epik_Tot_Q>
1

> <i_epik_Tot_abs_Q>
1

> <s_lp_Force_Field>
OPLS_2005

> <r_lp_Energy>
30.9301

> <b_lp_Chiralities_Consistent>
1

> <s_lp_Variant>
BACE_98.smi:1-2

> <chiral flag>
1

> <version>
0

> <s_i_glide_gridfile>
second_dock_grid_2

> <i_i_glide_lignum>
200

> <i_i_glide_rotatable_bonds>
7

> <r_i_docking_score>
2.82753

> <r_i_glide_ligand_efficiency>
0.0725007

> <r_i_glide_ligand_efficiency_sa>
0.245865

> <r_i_glide_ligand_efficiency_ln>
0.606302

> <r_glide_XP_GScore>
1.32203

> <r_i_glide_gscore>
1.32203

> <r_i_glide_evdw>
-39.178

> <r_i_glide_ecoul>
-13.5765

> <r_i_glide_energy>
-52.7545

> <r_i_glide_einternal>
3.63983

> <r_i_glide_emodel>
-78.8491

> <r_glide_XP_HBond>
0

> <i_i_glide_confnum>
1

> <i_i_glide_posenum>
1

> <r_i_glide_eff_state_penalty>
1.5055

> <i_glide_XP_PoseRank>
2

$$$$
BACE_98.smi:1
                    3D
 Structure written by MMmdl.
 78 82  0  0  1  0            999 V2000
   20.6706   41.9290   -4.4397 C   0  0  0  0  0  0
   21.9951   41.4459   -5.0321 C   0  0  0  0  0  0
   22.7159   40.5223   -4.0398 C   0  0  0  0  0  0
   21.7959   40.7833   -6.3892 C   0  0  0  0  0  0
   21.2361   39.4942   -6.5057 C   0  0  0  0  0  0
   21.1262   38.9152   -7.7822 C   0  0  0  0  0  0
   21.5426   39.5278   -8.9094 N   0  0  0  0  0  0
   22.0380   40.7778   -8.8030 C   0  0  0  0  0  0
   22.1840   41.4471   -7.5713 C   0  0  0  0  0  0
   22.5206   41.3669  -10.0903 C   0  0  0  0  0  0
   22.0851   42.7202  -10.6147 C   0  0  0  0  0  0
   21.6070   41.4596  -11.2927 C   0  0  0  0  0  0
   23.8933   40.9502  -10.4399 N   0  3  0  0  0  0
   24.9790   41.5415   -9.6270 C   0  0  0  0  0  0
   25.6128   42.8200  -10.2353 C   0  0  1  0  0  0
   26.4095   43.4202   -9.2400 O   0  0  0  0  0  0
   26.4907   42.5870  -11.4963 C   0  0  2  0  0  0
   27.6884   41.6142  -11.2779 C   0  0  0  0  0  0
   29.0821   42.2249  -11.2742 C   0  0  0  0  0  0
   29.5597   42.9057  -10.1335 C   0  0  0  0  0  0
   30.8605   43.4422  -10.1224 C   0  0  0  0  0  0
   31.6941   43.2907  -11.2456 C   0  0  0  0  0  0
   31.2357   42.5898  -12.3793 C   0  0  0  0  0  0
   32.1387   42.4169  -13.5884 C   0  0  0  0  0  0
   31.5991   43.1069  -14.8500 C   0  0  0  0  0  0
   31.3226   44.6121  -14.6795 C   0  0  0  0  0  0
   30.4657   45.1507  -15.8323 C   0  0  0  0  0  0
   29.8979   46.4619  -15.5491 N   0  0  0  0  0  0
   28.6390   46.5716  -14.9466 C   0  0  0  0  0  0
   28.0599   45.5328  -14.1842 C   0  0  0  0  0  0
   26.7817   45.7330  -13.6189 C   0  0  0  0  0  0
   26.1321   46.9594  -13.8598 C   0  0  0  0  0  0
   26.7849   47.9343  -14.6339 C   0  0  0  0  0  0
   25.9846   49.4303  -14.9360 Cl  0  0  0  0  0  0
   28.0082   47.7393  -15.1724 N   0  0  0  0  0  0
   26.0949   44.6493  -12.8408 C   0  0  0  0  0  0
   24.8687   44.5405  -12.8574 O   0  0  0  0  0  0
   26.9002   43.8373  -12.1361 N   0  0  0  0  0  0
   29.9278   42.0618  -12.3915 C   0  0  0  0  0  0
   24.8221   43.5347  -10.4514 H   0  0  0  0  0  0
   25.8277   42.1353  -12.2282 H   0  0  0  0  0  0
   20.1110   42.5457   -5.1428 H   0  0  0  0  0  0
   20.8287   42.5104   -3.5311 H   0  0  0  0  0  0
   20.0599   41.0693   -4.1762 H   0  0  0  0  0  0
   22.6278   42.3207   -5.1846 H   0  0  0  0  0  0
   23.6749   40.1969   -4.4369 H   0  0  0  0  0  0
   22.1319   39.6293   -3.8152 H   0  0  0  0  0  0
   22.8833   41.0397   -3.0962 H   0  0  0  0  0  0
   20.8927   38.9508   -5.6399 H   0  0  0  0  0  0
   20.7022   37.9305   -7.9017 H   0  0  0  0  0  0
   22.6140   42.4372   -7.5334 H   0  0  0  0  0  0
   21.3530   43.2761  -10.0314 H   0  0  0  0  0  0
   22.7664   43.3279  -11.2049 H   0  0  0  0  0  0
   22.0158   41.2507  -12.2801 H   0  0  0  0  0  0
   20.5580   41.1963  -11.1605 H   0  0  0  0  0  0
   23.9195   39.9525  -10.2561 H   0  0  0  0  0  0
   24.6190   41.7519   -8.6215 H   0  0  0  0  0  0
   25.7181   40.7579   -9.4933 H   0  0  0  0  0  0
   26.7735   44.2207   -9.5893 H   0  0  0  0  0  0
   27.6569   40.8406  -12.0434 H   0  0  0  0  0  0
   27.5984   41.0691  -10.3453 H   0  0  0  0  0  0
   28.9430   43.0093   -9.2519 H   0  0  0  0  0  0
   31.2230   43.9649   -9.2498 H   0  0  0  0  0  0
   32.6905   43.7077  -11.2282 H   0  0  0  0  0  0
   33.1396   42.7867  -13.3607 H   0  0  0  0  0  0
   32.2392   41.3500  -13.7860 H   0  0  0  0  0  0
   32.2945   42.9543  -15.6762 H   0  0  0  0  0  0
   30.6786   42.6004  -15.1439 H   0  0  0  0  0  0
   30.8067   44.7914  -13.7361 H   0  0  0  0  0  0
   32.2604   45.1650  -14.6103 H   0  0  0  0  0  0
   29.6600   44.4490  -16.0399 H   0  0  0  0  0  0
   31.0631   45.2119  -16.7436 H   0  0  0  0  0  0
   30.2383   47.2564  -16.0703 H   0  0  0  0  0  0
   28.5760   44.5956  -14.0385 H   0  0  0  0  0  0
   25.1466   47.1526  -13.4589 H   0  0  0  0  0  0
   27.8942   44.0227  -12.1647 H   0  0  0  0  0  0
   29.5807   41.5197  -13.2595 H   0  0  0  0  0  0
   24.0593   41.0765  -11.4328 H   0  0  0  0  0  0
  1  2  1  0  0  0
  1 42  1  0  0  0
  1 43  1  0  0  0
  1 44  1  0  0  0
  2  3  1  0  0  0
  2  4  1  0  0  0
  2 45  1  0  0  0
  3 46  1  0  0  0
  3 47  1  0  0  0
  3 48  1  0  0  0
  4  9  1  0  0  0
  4  5  2  0  0  0
  5  6  1  0  0  0
  5 49  1  0  0  0
  6  7  2  0  0  0
  6 50  1  0  0  0
  7  8  1  0  0  0
  8  9  2  0  0  0
  8 10  1  0  0  0
  9 51  1  0  0  0
 10 12  1  0  0  0
 10 11  1  0  0  0
 10 13  1  0  0  0
 11 12  1  0  0  0
 11 52  1  0  0  0
 11 53  1  0  0  0
 12 54  1  0  0  0
 12 55  1  0  0  0
 13 14  1  0  0  0
 13 56  1  0  0  0
 13 78  1  0  0  0
 14 15  1  0  0  0
 14 57  1  0  0  0
 14 58  1  0  0  0
 15 40  1  0  0  0
 15 16  1  0  0  0
 15 17  1  0  0  0
 16 59  1  0  0  0
 17 41  1  0  0  0
 17 38  1  0  0  0
 17 18  1  0  0  0
 18 19  1  0  0  0
 18 60  1  0  0  0
 18 61  1  0  0  0
 19 39  1  0  0  0
 19 20  2  0  0  0
 20 21  1  0  0  0
 20 62  1  0  0  0
 21 22  2  0  0  0
 21 63  1  0  0  0
 22 23  1  0  0  0
 22 64  1  0  0  0
 23 24  1  0  0  0
 23 39  2  0  0  0
 24 25  1  0  0  0
 24 65  1  0  0  0
 24 66  1  0  0  0
 25 26  1  0  0  0
 25 67  1  0  0  0
 25 68  1  0  0  0
 26 27  1  0  0  0
 26 69  1  0  0  0
 26 70  1  0  0  0
 27 28  1  0  0  0
 27 71  1  0  0  0
 27 72  1  0  0  0
 28 29  1  0  0  0
 28 73  1  0  0  0
 29 35  1  0  0  0
 29 30  2  0  0  0
 30 31  1  0  0  0
 30 74  1  0  0  0
 31 32  2  0  0  0
 31 36  1  0  0  0
 32 33  1  0  0  0
 32 75  1  0  0  0
 33 34  1  0  0  0
 33 35  2  0  0  0
 36 37  2  0  0  0
 36 38  1  0  0  0
 38 76  1  0  0  0
 39 77  1  0  0  0
M  CHG  1  13   1
M  END
> <s_m_source_file>
BACE_98.smi

> <i_m_source_file_index>
1

> <i_lp_mmshare_version>
42013

> <i_f3d_flags>
0

> <s_epik_input>
W0NIM11bQ0hdKFtDSDNdKWMxW2NIXVtjSF1uYyhbY0hdMSlDMihbQ0gyXVtDSDJdMilbTkhdW0NIMl1bQ0BASF0oW09IXSlbQ0BIXShbQ0gyXTMpW05IXUMoPU8pYyhbY0hdYyhDbCluNClbY0hdYzRbTkhdW0NIMl1bQ0gyXVtDSDJdW0NIMl1jKFtjSF01KVtjSF1bY0hdW2NIXWMzNQ==

> <s_epik_cmdline>
J2VwaWtfcHl0aG9uJywgJy1waCcsICc3LjAnLCAnLXRuJywgJzgnLCAnLW1hJywgJzIwMCcsICctaW1hZScsICc8aW5maWxlLm1hZT4nLCAnLW9tYWUnLCAnPG91dGZpbGUubWFlPic=

> <r_lp_tautomer_probability>
1

> <r_epik_Ionization_Penalty>
  0.8144

> <r_epik_Ionization_Penalty_Charging>
  0.8130

> <r_epik_Ionization_Penalty_Neutral>
  0.0014

> <r_epik_State_Penalty>
  1.8513

> <r_epik_Charging_Adjusted_Penalty>
2.66425

> <i_epik_Tot_Q>
1

> <i_epik_Tot_abs_Q>
1

> <s_lp_Force_Field>
OPLS_2005

> <r_lp_Energy>
26.2909

> <b_lp_Chiralities_Consistent>
1

> <s_lp_Variant>
BACE_98.smi:1-3

> <chiral flag>
1

> <version>
0

> <s_i_glide_gridfile>
second_dock_grid_2

> <i_i_glide_lignum>
201

> <i_i_glide_rotatable_bonds>
7

> <r_i_docking_score>
-2.60675

> <r_i_glide_ligand_efficiency>
-0.0668397

> <r_i_glide_ligand_efficiency_sa>
-0.226668

> <r_i_glide_ligand_efficiency_ln>
-0.558961

> <r_glide_XP_GScore>
-4.45805

> <r_i_glide_gscore>
-4.45805

> <r_i_glide_evdw>
-36.9688

> <r_i_glide_ecoul>
-9.45013

> <r_i_glide_energy>
-46.4189

> <r_i_glide_einternal>
0.876913

> <r_i_glide_emodel>
-65.8198

> <r_glide_XP_HBond>
-0.48

> <i_i_glide_confnum>
1

> <i_i_glide_posenum>
5

> <r_i_glide_eff_state_penalty>
1.8513

> <i_glide_XP_PoseRank>
1

$$$$
BACE_99.smi:1
                    3D
 Structure written by MMmdl.
 82 85  0  0  1  0            999 V2000
   17.9985   46.6517  -12.7031 C   0  0  0  0  0  0
   17.1097   45.5721  -12.4361 O   0  0  0  0  0  0
   17.6495   44.3916  -11.9701 C   0  0  0  0  0  0
   16.7822   43.3218  -11.7004 C   0  0  0  0  0  0
   17.3172   42.1122  -11.2143 C   0  0  0  0  0  0
   18.7158   42.0243  -11.0346 C   0  0  0  0  0  0
   19.5233   43.1441  -11.3476 C   0  0  0  0  0  0
   18.9855   44.3017  -11.7996 N   0  0  0  0  0  0
   20.9324   43.1054  -11.2394 N   0  0  0  0  0  0
   21.7125   44.3342  -11.3658 C   0  0  0  0  0  0
   21.6428   41.8355  -11.1673 C   0  0  0  0  0  0
   22.0544   41.4996   -9.7284 C   0  0  0  0  0  0
   22.7858   40.1540   -9.6269 C   0  0  0  0  0  0
   21.8836   38.9205   -9.8477 C   0  0  0  0  0  0
   20.6859   38.8190   -8.9142 C   0  0  0  0  0  0
   20.8087   39.1216   -7.5408 C   0  0  0  0  0  0
   19.6979   38.9999   -6.6877 C   0  0  0  0  0  0
   18.4657   38.5496   -7.1903 C   0  0  0  0  0  0
   18.3304   38.2471   -8.5590 C   0  0  0  0  0  0
   16.9985   37.7581   -9.1062 C   0  0  0  0  0  0
   16.0372   38.8665   -9.6107 C   0  0  2  0  0  0
   16.7562   40.0984   -9.9850 N   0  0  0  0  0  0
   16.4025   40.9466  -10.9702 C   0  0  0  0  0  0
   15.3682   40.8417  -11.6316 O   0  0  0  0  0  0
   14.8181   39.0889   -8.6606 C   0  0  2  0  0  0
   13.8095   39.7500   -9.3886 O   0  0  0  0  0  0
   15.0242   39.7253   -7.2571 C   0  0  0  0  0  0
   15.7980   40.9851   -7.2420 N   0  3  0  0  0  0
   15.1368   42.1563   -7.8632 C   0  0  0  0  0  0
   16.0423   43.3691   -8.0614 C   0  0  0  0  0  0
   15.5624   44.4457   -8.8368 C   0  0  0  0  0  0
   16.3363   45.6100   -9.0053 C   0  0  0  0  0  0
   17.5993   45.7073   -8.3927 C   0  0  0  0  0  0
   18.0885   44.6459   -7.6036 C   0  0  0  0  0  0
   17.3125   43.4748   -7.4562 C   0  0  0  0  0  0
   19.4351   44.7543   -6.8999 C   0  0  0  0  0  0
   19.5059   45.9900   -5.9842 C   0  0  0  0  0  0
   20.5912   44.7301   -7.9058 C   0  0  0  0  0  0
   19.4412   38.3826   -9.4195 C   0  0  0  0  0  0
   15.6061   38.4601  -10.5258 H   0  0  0  0  0  0
   14.3835   38.1076   -8.4725 H   0  0  0  0  0  0
   17.4291   47.5060  -13.0682 H   0  0  0  0  0  0
   18.7263   46.3871  -13.4710 H   0  0  0  0  0  0
   18.5257   46.9651  -11.8014 H   0  0  0  0  0  0
   15.7192   43.4466  -11.8350 H   0  0  0  0  0  0
   19.1539   41.1063  -10.6709 H   0  0  0  0  0  0
   21.2393   45.1623  -10.8404 H   0  0  0  0  0  0
   21.8308   44.6079  -12.4145 H   0  0  0  0  0  0
   22.7081   44.1992  -10.9444 H   0  0  0  0  0  0
   21.0580   41.0332  -11.6153 H   0  0  0  0  0  0
   22.5386   41.9094  -11.7865 H   0  0  0  0  0  0
   22.7159   42.2838   -9.3592 H   0  0  0  0  0  0
   21.1812   41.5108   -9.0745 H   0  0  0  0  0  0
   23.6015   40.1500  -10.3521 H   0  0  0  0  0  0
   23.2679   40.0823   -8.6523 H   0  0  0  0  0  0
   21.5349   38.9148  -10.8799 H   0  0  0  0  0  0
   22.4638   38.0067   -9.7247 H   0  0  0  0  0  0
   21.7534   39.4441   -7.1295 H   0  0  0  0  0  0
   19.7959   39.2373   -5.6401 H   0  0  0  0  0  0
   17.6364   38.4186   -6.5108 H   0  0  0  0  0  0
   17.2202   37.0864   -9.9367 H   0  0  0  0  0  0
   16.5119   37.1289   -8.3619 H   0  0  0  0  0  0
   17.6543   40.2457   -9.5487 H   0  0  0  0  0  0
   13.0328   39.8792   -8.8511 H   0  0  0  0  0  0
   14.0609   39.8850   -6.7686 H   0  0  0  0  0  0
   15.5439   39.0099   -6.6191 H   0  0  0  0  0  0
   15.9737   41.2272   -6.2719 H   0  0  0  0  0  0
   14.7444   41.9116   -8.8458 H   0  0  0  0  0  0
   14.2770   42.4355   -7.2522 H   0  0  0  0  0  0
   14.5920   44.3819   -9.3063 H   0  0  0  0  0  0
   15.9674   46.4236   -9.6085 H   0  0  0  0  0  0
   18.1890   46.6000   -8.5335 H   0  0  0  0  0  0
   17.6983   42.6736   -6.8401 H   0  0  0  0  0  0
   19.5474   43.8782   -6.2581 H   0  0  0  0  0  0
   18.6809   46.0021   -5.2754 H   0  0  0  0  0  0
   19.4636   46.9167   -6.5570 H   0  0  0  0  0  0
   20.4354   45.9980   -5.4143 H   0  0  0  0  0  0
   20.5623   43.8192   -8.5026 H   0  0  0  0  0  0
   21.5558   44.7610   -7.4000 H   0  0  0  0  0  0
   20.5449   45.5794   -8.5891 H   0  0  0  0  0  0
   19.3418   38.1376  -10.4684 H   0  0  0  0  0  0
   16.6814   40.8225   -7.6983 H   0  0  0  0  0  0
  1  2  1  0  0  0
  1 42  1  0  0  0
  1 43  1  0  0  0
  1 44  1  0  0  0
  2  3  1  0  0  0
  3  8  1  0  0  0
  3  4  2  0  0  0
  4  5  1  0  0  0
  4 45  1  0  0  0
  5 23  1  0  0  0
  5  6  2  0  0  0
  6  7  1  0  0  0
  6 46  1  0  0  0
  7  8  2  0  0  0
  7  9  1  0  0  0
  9 10  1  0  0  0
  9 11  1  0  0  0
 10 47  1  0  0  0
 10 48  1  0  0  0
 10 49  1  0  0  0
 11 12  1  0  0  0
 11 50  1  0  0  0
 11 51  1  0  0  0
 12 13  1  0  0  0
 12 52  1  0  0  0
 12 53  1  0  0  0
 13 14  1  0  0  0
 13 54  1  0  0  0
 13 55  1  0  0  0
 14 15  1  0  0  0
 14 56  1  0  0  0
 14 57  1  0  0  0
 15 39  1  0  0  0
 15 16  2  0  0  0
 16 17  1  0  0  0
 16 58  1  0  0  0
 17 18  2  0  0  0
 17 59  1  0  0  0
 18 19  1  0  0  0
 18 60  1  0  0  0
 19 20  1  0  0  0
 19 39  2  0  0  0
 20 21  1  0  0  0
 20 61  1  0  0  0
 20 62  1  0  0  0
 21 40  1  0  0  0
 21 22  1  0  0  0
 21 25  1  0  0  0
 22 23  1  0  0  0
 22 63  1  0  0  0
 23 24  2  0  0  0
 25 41  1  0  0  0
 25 26  1  0  0  0
 25 27  1  0  0  0
 26 64  1  0  0  0
 27 28  1  0  0  0
 27 65  1  0  0  0
 27 66  1  0  0  0
 28 29  1  0  0  0
 28 67  1  0  0  0
 28 82  1  0  0  0
 29 30  1  0  0  0
 29 68  1  0  0  0
 29 69  1  0  0  0
 30 35  1  0  0  0
 30 31  2  0  0  0
 31 32  1  0  0  0
 31 70  1  0  0  0
 32 33  2  0  0  0
 32 71  1  0  0  0
 33 34  1  0  0  0
 33 72  1  0  0  0
 34 35  2  0  0  0
 34 36  1  0  0  0
 35 73  1  0  0  0
 36 37  1  0  0  0
 36 38  1  0  0  0
 36 74  1  0  0  0
 37 75  1  0  0  0
 37 76  1  0  0  0
 37 77  1  0  0  0
 38 78  1  0  0  0
 38 79  1  0  0  0
 38 80  1  0  0  0
 39 81  1  0  0  0
M  CHG  1  28   1
M  END
> <s_m_source_file>
BACE_99.smi

> <i_m_source_file_index>
1

> <i_lp_mmshare_version>
42013

> <i_f3d_flags>
0

> <s_epik_input>
W0NIM11PYyhbY0hdYzEyKW5jKFtjSF0xKU4oW0NIM10pW0NIMl1bQ0gyXVtDSDJdW0NIMl1jM1tjSF1bY0hdW2NIXWMoW2NIXTMpW0NIMl1bQ0BIXShbTkhdQzI9TylbQ0BIXShbT0hdKVtDSDJdW05IXVtDSDJdYzRbY0hdW2NIXVtjSF1jKFtjSF00KVtDSF0oW0NIM10pW0NIM10=

> <s_epik_cmdline>
J2VwaWtfcHl0aG9uJywgJy1waCcsICc3LjAnLCAnLXRuJywgJzgnLCAnLW1hJywgJzIwMCcsICctaW1hZScsICc8aW5maWxlLm1hZT4nLCAnLW9tYWUnLCAnPG91dGZpbGUubWFlPic=

> <r_lp_tautomer_probability>
1

> <r_epik_Ionization_Penalty>
  0.0201

> <r_epik_Ionization_Penalty_Charging>
  0.0201

> <r_epik_Ionization_Penalty_Neutral>
  0.0000

> <r_epik_State_Penalty>
  0.0161

> <r_epik_Charging_Adjusted_Penalty>
0.0361071

> <i_epik_Tot_Q>
1

> <i_epik_Tot_abs_Q>
1

> <s_lp_Force_Field>
OPLS_2005

> <r_lp_Energy>
26.5224

> <b_lp_Chiralities_Consistent>
1

> <s_lp_Variant>
BACE_99.smi:1-1

> <chiral flag>
1

> <version>
0

> <s_i_glide_gridfile>
second_dock_grid_2

> <i_i_glide_lignum>
202

> <i_i_glide_rotatable_bonds>
8

> <r_i_docking_score>
-5.77002

> <r_i_glide_ligand_efficiency>
-0.147949

> <r_i_glide_ligand_efficiency_sa>
-0.501727

> <r_i_glide_ligand_efficiency_ln>
-1.23726

> <r_glide_XP_GScore>
-5.78612

> <r_i_glide_gscore>
-5.78612

> <r_i_glide_evdw>
-38.5589

> <r_i_glide_ecoul>
-18.4982

> <r_i_glide_energy>
-57.0571

> <r_i_glide_einternal>
3.93816

> <r_i_glide_emodel>
-74.1385

> <r_glide_XP_HBond>
-1.10405

> <i_i_glide_confnum>
1

> <i_i_glide_posenum>
2

> <r_i_glide_eff_state_penalty>
0.0161

> <i_glide_XP_PoseRank>
1

$$$$
BACE_99.smi:1
                    3D
 Structure written by MMmdl.
 81 84  0  0  1  0            999 V2000
   16.7607   47.6638   -9.3121 C   0  0  0  0  0  0
   16.0633   46.4240   -9.3099 O   0  0  0  0  0  0
   16.6753   45.3540   -8.6921 C   0  0  0  0  0  0
   17.8391   45.4563   -7.9032 C   0  0  0  0  0  0
   18.3881   44.2838   -7.3516 C   0  0  0  0  0  0
   17.7446   43.0558   -7.6185 C   0  0  0  0  0  0
   16.5503   43.0432   -8.3769 C   0  0  0  0  0  0
   16.0439   44.1831   -8.9077 N   0  0  0  0  0  0
   15.8320   41.8488   -8.6038 N   0  0  0  0  0  0
   14.7012   41.8537   -9.5293 C   0  0  0  0  0  0
   16.1931   40.6008   -7.9295 C   0  0  0  0  0  0
   17.2330   39.7939   -8.7331 C   0  0  0  0  0  0
   17.5876   38.4393   -8.0922 C   0  0  0  0  0  0
   18.4536   38.5242   -6.8173 C   0  0  0  0  0  0
   19.8529   39.1000   -7.0267 C   0  0  0  0  0  0
   20.7143   38.5889   -8.0205 C   0  0  0  0  0  0
   22.0126   39.1146   -8.1751 C   0  0  0  0  0  0
   22.4588   40.1518   -7.3365 C   0  0  0  0  0  0
   21.6101   40.6787   -6.3405 C   0  0  0  0  0  0
   22.0849   41.7839   -5.3994 C   0  0  0  0  0  0
   21.7122   43.2414   -5.7981 C   0  0  2  0  0  0
   20.4409   43.3289   -6.5152 N   0  0  0  0  0  0
   19.5904   44.3659   -6.4558 C   0  0  0  0  0  0
   19.7771   45.3676   -5.7625 O   0  0  0  0  0  0
   22.8157   44.0270   -6.5609 C   0  0  2  0  0  0
   23.4241   43.1884   -7.5188 O   0  0  0  0  0  0
   23.9437   44.5343   -5.6378 C   0  0  0  0  0  0
   23.5878   45.7443   -4.8869 N   0  0  0  0  0  0
   23.6002   46.9650   -5.6890 C   0  0  0  0  0  0
   23.2444   48.1904   -4.8699 C   0  0  0  0  0  0
   22.0843   48.9285   -5.1730 C   0  0  0  0  0  0
   21.7562   50.0658   -4.4140 C   0  0  0  0  0  0
   22.5731   50.4601   -3.3378 C   0  0  0  0  0  0
   23.7418   49.7273   -3.0241 C   0  0  0  0  0  0
   24.0740   48.5973   -3.8018 C   0  0  0  0  0  0
   24.6378   50.0969   -1.8443 C   0  0  0  0  0  0
   24.2827   49.2533   -0.6133 C   0  0  0  0  0  0
   24.6359   51.5972   -1.5069 C   0  0  0  0  0  0
   20.3166   40.1366   -6.1900 C   0  0  0  0  0  0
   21.5762   43.7700   -4.8538 H   0  0  0  0  0  0
   22.3838   44.8624   -7.1100 H   0  0  0  0  0  0
   16.2082   48.3828   -9.9188 H   0  0  0  0  0  0
   17.7559   47.5595   -9.7492 H   0  0  0  0  0  0
   16.8535   48.0740   -8.3039 H   0  0  0  0  0  0
   18.3172   46.4062   -7.7094 H   0  0  0  0  0  0
   18.1463   42.1491   -7.1921 H   0  0  0  0  0  0
   15.0140   42.1996  -10.5141 H   0  0  0  0  0  0
   13.9154   42.5137   -9.1613 H   0  0  0  0  0  0
   14.2748   40.8564   -9.6390 H   0  0  0  0  0  0
   16.5338   40.7990   -6.9116 H   0  0  0  0  0  0
   15.2890   39.9999   -7.8092 H   0  0  0  0  0  0
   16.8282   39.6021   -9.7283 H   0  0  0  0  0  0
   18.1409   40.3815   -8.8846 H   0  0  0  0  0  0
   16.6633   37.9094   -7.8499 H   0  0  0  0  0  0
   18.0914   37.8146   -8.8298 H   0  0  0  0  0  0
   17.9276   39.1070   -6.0605 H   0  0  0  0  0  0
   18.5570   37.5277   -6.3904 H   0  0  0  0  0  0
   20.3914   37.7796   -8.6620 H   0  0  0  0  0  0
   22.6715   38.7117   -8.9316 H   0  0  0  0  0  0
   23.4602   40.5334   -7.4584 H   0  0  0  0  0  0
   21.6355   41.5740   -4.4280 H   0  0  0  0  0  0
   23.1581   41.6893   -5.2306 H   0  0  0  0  0  0
   20.1866   42.5407   -7.0960 H   0  0  0  0  0  0
   22.7447   42.8090   -8.0578 H   0  0  0  0  0  0
   24.2185   43.7440   -4.9392 H   0  0  0  0  0  0
   24.8441   44.7325   -6.2212 H   0  0  0  0  0  0
   24.2694   45.8392   -4.1365 H   0  0  0  0  0  0
   24.5880   47.1242   -6.1262 H   0  0  0  0  0  0
   22.9006   46.8919   -6.5220 H   0  0  0  0  0  0
   21.4383   48.6197   -5.9835 H   0  0  0  0  0  0
   20.8597   50.6223   -4.6382 H   0  0  0  0  0  0
   22.2753   51.3180   -2.7552 H   0  0  0  0  0  0
   24.9613   48.0267   -3.5682 H   0  0  0  0  0  0
   25.6601   49.8423   -2.1306 H   0  0  0  0  0  0
   24.3730   48.1877   -0.8248 H   0  0  0  0  0  0
   23.2585   49.4456   -0.3037 H   0  0  0  0  0  0
   24.9384   49.4819    0.2278 H   0  0  0  0  0  0
   24.9465   52.1880   -2.3684 H   0  0  0  0  0  0
   25.3250   51.8122   -0.6901 H   0  0  0  0  0  0
   23.6540   51.9438   -1.1890 H   0  0  0  0  0  0
   19.6723   40.5143   -5.4147 H   0  0  0  0  0  0
  1  2  1  0  0  0
  1 42  1  0  0  0
  1 43  1  0  0  0
  1 44  1  0  0  0
  2  3  1  0  0  0
  3  8  1  0  0  0
  3  4  2  0  0  0
  4  5  1  0  0  0
  4 45  1  0  0  0
  5 23  1  0  0  0
  5  6  2  0  0  0
  6  7  1  0  0  0
  6 46  1  0  0  0
  7  8  2  0  0  0
  7  9  1  0  0  0
  9 10  1  0  0  0
  9 11  1  0  0  0
 10 47  1  0  0  0
 10 48  1  0  0  0
 10 49  1  0  0  0
 11 12  1  0  0  0
 11 50  1  0  0  0
 11 51  1  0  0  0
 12 13  1  0  0  0
 12 52  1  0  0  0
 12 53  1  0  0  0
 13 14  1  0  0  0
 13 54  1  0  0  0
 13 55  1  0  0  0
 14 15  1  0  0  0
 14 56  1  0  0  0
 14 57  1  0  0  0
 15 39  1  0  0  0
 15 16  2  0  0  0
 16 17  1  0  0  0
 16 58  1  0  0  0
 17 18  2  0  0  0
 17 59  1  0  0  0
 18 19  1  0  0  0
 18 60  1  0  0  0
 19 20  1  0  0  0
 19 39  2  0  0  0
 20 21  1  0  0  0
 20 61  1  0  0  0
 20 62  1  0  0  0
 21 40  1  0  0  0
 21 22  1  0  0  0
 21 25  1  0  0  0
 22 23  1  0  0  0
 22 63  1  0  0  0
 23 24  2  0  0  0
 25 41  1  0  0  0
 25 26  1  0  0  0
 25 27  1  0  0  0
 26 64  1  0  0  0
 27 28  1  0  0  0
 27 65  1  0  0  0
 27 66  1  0  0  0
 28 29  1  0  0  0
 28 67  1  0  0  0
 29 30  1  0  0  0
 29 68  1  0  0  0
 29 69  1  0  0  0
 30 35  1  0  0  0
 30 31  2  0  0  0
 31 32  1  0  0  0
 31 70  1  0  0  0
 32 33  2  0  0  0
 32 71  1  0  0  0
 33 34  1  0  0  0
 33 72  1  0  0  0
 34 35  2  0  0  0
 34 36  1  0  0  0
 35 73  1  0  0  0
 36 37  1  0  0  0
 36 38  1  0  0  0
 36 74  1  0  0  0
 37 75  1  0  0  0
 37 76  1  0  0  0
 37 77  1  0  0  0
 38 78  1  0  0  0
 38 79  1  0  0  0
 38 80  1  0  0  0
 39 81  1  0  0  0
M  END
> <s_m_source_file>
BACE_99.smi

> <i_m_source_file_index>
1

> <i_lp_mmshare_version>
42013

> <i_f3d_flags>
0

> <s_epik_input>
W0NIM11PYyhbY0hdYzEyKW5jKFtjSF0xKU4oW0NIM10pW0NIMl1bQ0gyXVtDSDJdW0NIMl1jM1tjSF1bY0hdW2NIXWMoW2NIXTMpW0NIMl1bQ0BIXShbTkhdQzI9TylbQ0BIXShbT0hdKVtDSDJdW05IXVtDSDJdYzRbY0hdW2NIXVtjSF1jKFtjSF00KVtDSF0oW0NIM10pW0NIM10=

> <s_epik_cmdline>
J2VwaWtfcHl0aG9uJywgJy1waCcsICc3LjAnLCAnLXRuJywgJzgnLCAnLW1hJywgJzIwMCcsICctaW1hZScsICc8aW5maWxlLm1hZT4nLCAnLW9tYWUnLCAnPG91dGZpbGUubWFlPic=

> <r_lp_tautomer_probability>
1

> <r_epik_Ionization_Penalty>
  2.0161

> <r_epik_Ionization_Penalty_Charging>
  0.0000

> <r_epik_Ionization_Penalty_Neutral>
  2.0161

> <r_epik_State_Penalty>
  2.1460

> <r_epik_Charging_Adjusted_Penalty>
2.14597

> <i_epik_Tot_Q>
0

> <i_epik_Tot_abs_Q>
0

> <s_lp_Force_Field>
OPLS_2005

> <r_lp_Energy>
30.0569

> <b_lp_Chiralities_Consistent>
1

> <s_lp_Variant>
BACE_99.smi:1-2

> <chiral flag>
1

> <version>
0

> <s_i_glide_gridfile>
second_dock_grid_2

> <i_i_glide_lignum>
203

> <i_i_glide_rotatable_bonds>
8

> <r_i_docking_score>
-1.9008

> <r_i_glide_ligand_efficiency>
-0.0487383

> <r_i_glide_ligand_efficiency_sa>
-0.165282

> <r_i_glide_ligand_efficiency_ln>
-0.407584

> <r_glide_XP_GScore>
-4.0468

> <r_i_glide_gscore>
-4.0468

> <r_i_glide_evdw>
-44.1001

> <r_i_glide_ecoul>
-7.6556

> <r_i_glide_energy>
-51.7557

> <r_i_glide_einternal>
5.46227

> <r_i_glide_emodel>
-67.7469

> <r_glide_XP_HBond>
-0.787033

> <i_i_glide_confnum>
1

> <i_i_glide_posenum>
1

> <r_i_glide_eff_state_penalty>
2.146

> <i_glide_XP_PoseRank>
1

$$$$
BACE_100.smi:1
                    3D
 Structure written by MMmdl.
 80 83  0  0  1  0            999 V2000
   21.2013   39.5367  -12.6953 C   0  0  0  0  0  0
   21.1439   40.9377  -12.8613 O   0  0  0  0  0  0
   20.2297   41.6484  -12.1258 C   0  0  0  0  0  0
   18.8694   41.2817  -12.0376 C   0  0  0  0  0  0
   17.9437   42.1526  -11.4444 C   0  0  0  0  0  0
   18.3699   43.3875  -10.9220 C   0  0  0  0  0  0
   17.3810   44.3203  -10.2336 C   0  0  0  0  0  0
   17.1665   43.9846   -8.7405 C   0  0  2  0  0  0
   18.4408   43.6202   -8.1132 N   0  0  0  0  0  0
   19.0101   44.1776   -7.0349 C   0  0  0  0  0  0
   18.5506   45.1552   -6.4402 O   0  0  0  0  0  0
   20.2212   43.4466   -6.5304 C   0  0  0  0  0  0
   20.4602   43.3246   -5.1480 C   0  0  0  0  0  0
   21.5858   42.6008   -4.7140 C   0  0  0  0  0  0
   21.8636   42.4310   -3.0208 Cl  0  0  0  0  0  0
   22.4588   42.0274   -5.5697 N   0  0  0  0  0  0
   22.2564   42.1638   -6.8953 C   0  0  0  0  0  0
   21.1511   42.8688   -7.4246 C   0  0  0  0  0  0
   23.2236   41.5521   -7.7017 N   0  0  0  0  0  0
   23.4153   41.9484   -9.0901 C   0  0  0  0  0  0
   24.0359   43.3546   -9.2080 C   0  0  0  0  0  0
   24.0227   43.9403  -10.6309 C   0  0  0  0  0  0
   22.6072   44.2845  -11.1234 C   0  0  0  0  0  0
   22.0297   43.0931  -11.6398 O   0  0  0  0  0  0
   20.6743   42.8605  -11.5598 C   0  0  0  0  0  0
   19.7322   43.7419  -10.9811 C   0  0  0  0  0  0
   16.0890   42.8698   -8.5576 C   0  0  2  0  0  0
   14.8276   43.4943   -8.4400 O   0  0  0  0  0  0
   16.3239   41.9431   -7.3482 C   0  0  0  0  0  0
   15.2598   40.9226   -7.1748 N   0  3  0  0  0  0
   15.6910   39.6145   -6.6374 C   0  0  0  0  0  0
   16.7104   38.9412   -7.5462 C   0  0  0  0  0  0
   18.0928   39.1379   -7.3398 C   0  0  0  0  0  0
   19.0479   38.6354   -8.2483 C   0  0  0  0  0  0
   18.5952   37.8229   -9.3173 C   0  0  0  0  0  0
   17.2219   37.5722   -9.4887 C   0  0  0  0  0  0
   16.2762   38.1449   -8.6211 C   0  0  0  0  0  0
   20.5147   39.0476   -8.0863 C   0  0  0  0  0  0
   21.4711   38.4432   -9.1228 C   0  0  0  0  0  0
   21.0508   38.7798   -6.6749 C   0  0  0  0  0  0
   16.7901   44.8874   -8.2552 H   0  0  0  0  0  0
   16.0474   42.2383   -9.4400 H   0  0  0  0  0  0
   21.5089   39.0643  -13.6273 H   0  0  0  0  0  0
   20.2713   39.0717  -12.3656 H   0  0  0  0  0  0
   21.9688   39.3497  -11.9500 H   0  0  0  0  0  0
   18.5120   40.3504  -12.4437 H   0  0  0  0  0  0
   16.9042   41.8654  -11.4072 H   0  0  0  0  0  0
   17.7675   45.3380  -10.3167 H   0  0  0  0  0  0
   16.4336   44.3198  -10.7742 H   0  0  0  0  0  0
   18.9264   42.8293   -8.5105 H   0  0  0  0  0  0
   19.7825   43.7519   -4.4249 H   0  0  0  0  0  0
   21.0116   42.9616   -8.4893 H   0  0  0  0  0  0
   23.9925   41.0880   -7.2391 H   0  0  0  0  0  0
   24.0709   41.2220   -9.5715 H   0  0  0  0  0  0
   22.4645   41.8716   -9.6107 H   0  0  0  0  0  0
   23.5217   44.0525   -8.5452 H   0  0  0  0  0  0
   25.0654   43.3107   -8.8480 H   0  0  0  0  0  0
   24.6149   44.8559  -10.6218 H   0  0  0  0  0  0
   24.5195   43.2675  -11.3315 H   0  0  0  0  0  0
   22.0628   44.7395  -10.2984 H   0  0  0  0  0  0
   22.6541   45.0174  -11.9293 H   0  0  0  0  0  0
   20.0230   44.6918  -10.5657 H   0  0  0  0  0  0
   14.7936   43.8700   -7.5705 H   0  0  0  0  0  0
   17.2786   41.4649   -7.5136 H   0  0  0  0  0  0
   16.4625   42.5158   -6.4400 H   0  0  0  0  0  0
   14.5776   41.2992   -6.5183 H   0  0  0  0  0  0
   16.0924   39.7500   -5.6402 H   0  0  0  0  0  0
   14.8212   38.9651   -6.5217 H   0  0  0  0  0  0
   18.4149   39.7467   -6.5089 H   0  0  0  0  0  0
   19.2854   37.3965  -10.0279 H   0  0  0  0  0  0
   16.8863   36.9521  -10.3075 H   0  0  0  0  0  0
   15.2221   37.9688   -8.7787 H   0  0  0  0  0  0
   20.5294   40.1251   -8.2430 H   0  0  0  0  0  0
   21.1356   38.6759  -10.1280 H   0  0  0  0  0  0
   21.5404   37.3625   -9.0368 H   0  0  0  0  0  0
   22.4783   38.8479   -9.0139 H   0  0  0  0  0  0
   20.5198   39.3505   -5.9145 H   0  0  0  0  0  0
   22.1050   39.0429   -6.5932 H   0  0  0  0  0  0
   20.9545   37.7268   -6.4401 H   0  0  0  0  0  0
   14.8011   40.7623   -8.0591 H   0  0  0  0  0  0
  1  2  1  0  0  0
  1 43  1  0  0  0
  1 44  1  0  0  0
  1 45  1  0  0  0
  2  3  1  0  0  0
  3 25  1  0  0  0
  3  4  2  0  0  0
  4  5  1  0  0  0
  4 46  1  0  0  0
  5  6  2  0  0  0
  5 47  1  0  0  0
  6 26  1  0  0  0
  6  7  1  0  0  0
  7  8  1  0  0  0
  7 48  1  0  0  0
  7 49  1  0  0  0
  8 41  1  0  0  0
  8  9  1  0  0  0
  8 27  1  0  0  0
  9 10  1  0  0  0
  9 50  1  0  0  0
 10 11  2  0  0  0
 10 12  1  0  0  0
 12 18  1  0  0  0
 12 13  2  0  0  0
 13 14  1  0  0  0
 13 51  1  0  0  0
 14 15  1  0  0  0
 14 16  2  0  0  0
 16 17  1  0  0  0
 17 18  2  0  0  0
 17 19  1  0  0  0
 18 52  1  0  0  0
 19 20  1  0  0  0
 19 53  1  0  0  0
 20 21  1  0  0  0
 20 54  1  0  0  0
 20 55  1  0  0  0
 21 22  1  0  0  0
 21 56  1  0  0  0
 21 57  1  0  0  0
 22 23  1  0  0  0
 22 58  1  0  0  0
 22 59  1  0  0  0
 23 24  1  0  0  0
 23 60  1  0  0  0
 23 61  1  0  0  0
 24 25  1  0  0  0
 25 26  2  0  0  0
 26 62  1  0  0  0
 27 42  1  0  0  0
 27 28  1  0  0  0
 27 29  1  0  0  0
 28 63  1  0  0  0
 29 30  1  0  0  0
 29 64  1  0  0  0
 29 65  1  0  0  0
 30 31  1  0  0  0
 30 66  1  0  0  0
 30 80  1  0  0  0
 31 32  1  0  0  0
 31 67  1  0  0  0
 31 68  1  0  0  0
 32 37  1  0  0  0
 32 33  2  0  0  0
 33 34  1  0  0  0
 33 69  1  0  0  0
 34 35  2  0  0  0
 34 38  1  0  0  0
 35 36  1  0  0  0
 35 70  1  0  0  0
 36 37  2  0  0  0
 36 71  1  0  0  0
 37 72  1  0  0  0
 38 39  1  0  0  0
 38 40  1  0  0  0
 38 73  1  0  0  0
 39 74  1  0  0  0
 39 75  1  0  0  0
 39 76  1  0  0  0
 40 77  1  0  0  0
 40 78  1  0  0  0
 40 79  1  0  0  0
M  CHG  1  30   1
M  END
> <s_m_source_file>
BACE_100.smi

> <i_m_source_file_index>
1

> <i_lp_mmshare_version>
42013

> <i_f3d_flags>
0

> <s_epik_input>
YzEyW2NIXVtjSF1jKE9bQ0gzXSljKFtjSF0yKU9bQ0gyXVtDSDJdW0NIMl1bQ0gyXVtOSF1jM25jKENsKVtjSF1jKFtjSF0zKUMoPU8pW05IXVtDQEBIXShbQ0gyXTEpW0NASF0oW09IXSlbQ0gyXVtOSF1bQ0gyXWM0W2NIXWMoW0NIXShbQ0gzXSlbQ0gzXSlbY0hdW2NIXVtjSF00

> <s_epik_cmdline>
J2VwaWtfcHl0aG9uJywgJy1waCcsICc3LjAnLCAnLXRuJywgJzgnLCAnLW1hJywgJzIwMCcsICctaW1hZScsICc8aW5maWxlLm1hZT4nLCAnLW9tYWUnLCAnPG91dGZpbGUubWFlPic=

> <r_lp_tautomer_probability>
1

> <r_epik_Ionization_Penalty>
  0.0201

> <r_epik_Ionization_Penalty_Charging>
  0.0201

> <r_epik_Ionization_Penalty_Neutral>
  0.0000

> <r_epik_State_Penalty>
  0.0161

> <r_epik_Charging_Adjusted_Penalty>
0.0361071

> <i_epik_Tot_Q>
1

> <i_epik_Tot_abs_Q>
1

> <s_lp_Force_Field>
OPLS_2005

> <r_lp_Energy>
27.5194

> <b_lp_Chiralities_Consistent>
1

> <s_lp_Variant>
BACE_100.smi:1-1

> <chiral flag>
1

> <version>
0

> <s_i_glide_gridfile>
second_dock_grid_2

> <i_i_glide_lignum>
204

> <i_i_glide_rotatable_bonds>
8

> <r_i_docking_score>
-7.24097

> <r_i_glide_ligand_efficiency>
-0.181024

> <r_i_glide_ligand_efficiency_sa>
-0.619094

> <r_i_glide_ligand_efficiency_ln>
-1.54429

> <r_glide_XP_GScore>
-7.25707

> <r_i_glide_gscore>
-7.25707

> <r_i_glide_evdw>
-44.5369

> <r_i_glide_ecoul>
-13.3055

> <r_i_glide_energy>
-57.8424

> <r_i_glide_einternal>
12.8736

> <r_i_glide_emodel>
-68.4147

> <r_glide_XP_HBond>
-1.64366

> <i_i_glide_confnum>
1

> <i_i_glide_posenum>
3

> <r_i_glide_eff_state_penalty>
0.0161

> <i_glide_XP_PoseRank>
1

$$$$
BACE_100.smi:1
                    3D
 Structure written by MMmdl.
 79 82  0  0  1  0            999 V2000
   31.1342   42.9141  -11.0801 C   0  0  0  0  0  0
   30.1395   42.1788  -10.3822 O   0  0  0  0  0  0
   28.8217   42.5654  -10.5184 C   0  0  0  0  0  0
   27.8708   41.8444  -11.2810 C   0  0  0  0  0  0
   26.5473   42.3027  -11.3884 C   0  0  0  0  0  0
   26.1445   43.4793  -10.7284 C   0  0  0  0  0  0
   24.7132   43.9790  -10.8884 C   0  0  0  0  0  0
   23.7290   43.5966   -9.7513 C   0  0  2  0  0  0
   23.8799   44.5258   -8.6317 N   0  0  0  0  0  0
   23.2081   45.6801   -8.4727 C   0  0  0  0  0  0
   22.3777   46.1010   -9.2786 O   0  0  0  0  0  0
   23.4881   46.4253   -7.1976 C   0  0  0  0  0  0
   22.5479   47.3370   -6.6724 C   0  0  0  0  0  0
   22.8675   48.0451   -5.4964 C   0  0  0  0  0  0
   21.7147   49.1558   -4.8545 Cl  0  0  0  0  0  0
   24.0444   47.8964   -4.8497 N   0  0  0  0  0  0
   24.9554   47.0323   -5.3452 C   0  0  0  0  0  0
   24.7133   46.2722   -6.5144 C   0  0  0  0  0  0
   26.1604   46.9516   -4.6287 N   0  0  0  0  0  0
   27.1789   45.9747   -4.9912 C   0  0  0  0  0  0
   27.9734   46.3870   -6.2454 C   0  0  0  0  0  0
   28.4790   45.1714   -7.0325 C   0  0  0  0  0  0
   29.1027   45.5625   -8.3812 C   0  0  0  0  0  0
   29.4192   44.4047   -9.1444 O   0  0  0  0  0  0
   28.4289   43.7498   -9.8531 C   0  0  0  0  0  0
   27.0838   44.1968   -9.9577 C   0  0  0  0  0  0
   23.8410   42.1312   -9.2542 C   0  0  2  0  0  0
   23.4543   41.2796  -10.3158 O   0  0  0  0  0  0
   22.9132   41.8094   -8.0629 C   0  0  0  0  0  0
   22.9898   40.3957   -7.6993 N   0  0  0  0  0  0
   22.0227   39.9840   -6.6847 C   0  0  0  0  0  0
   21.4748   41.1486   -5.8805 C   0  0  0  0  0  0
   21.5219   41.1211   -4.4706 C   0  0  0  0  0  0
   21.0099   42.1982   -3.7154 C   0  0  0  0  0  0
   20.4526   43.3095   -4.3857 C   0  0  0  0  0  0
   20.4055   43.3408   -5.7926 C   0  0  0  0  0  0
   20.9152   42.2622   -6.5397 C   0  0  0  0  0  0
   21.0620   42.1546   -2.1934 C   0  0  0  0  0  0
   19.7087   42.5263   -1.5670 C   0  0  0  0  0  0
   22.2008   43.0262   -1.6420 C   0  0  0  0  0  0
   22.7183   43.7253  -10.1445 H   0  0  0  0  0  0
   24.8737   41.9153   -8.9770 H   0  0  0  0  0  0
   32.1140   42.4898  -10.8614 H   0  0  0  0  0  0
   31.1514   43.9590  -10.7675 H   0  0  0  0  0  0
   30.9862   42.8609  -12.1595 H   0  0  0  0  0  0
   28.1333   40.9368  -11.8024 H   0  0  0  0  0  0
   25.8403   41.7446  -11.9849 H   0  0  0  0  0  0
   24.7290   45.0604  -11.0313 H   0  0  0  0  0  0
   24.3274   43.5785  -11.8268 H   0  0  0  0  0  0
   24.5327   44.2610   -7.9085 H   0  0  0  0  0  0
   21.5965   47.4980   -7.1589 H   0  0  0  0  0  0
   25.4562   45.5924   -6.9005 H   0  0  0  0  0  0
   26.2819   47.5008   -3.7896 H   0  0  0  0  0  0
   27.8599   45.8437   -4.1501 H   0  0  0  0  0  0
   26.6957   45.0074   -5.1339 H   0  0  0  0  0  0
   27.3489   46.9841   -6.9105 H   0  0  0  0  0  0
   28.8041   47.0346   -5.9634 H   0  0  0  0  0  0
   29.2033   44.6144   -6.4370 H   0  0  0  0  0  0
   27.6439   44.4929   -7.2061 H   0  0  0  0  0  0
   28.4777   46.2573   -8.9426 H   0  0  0  0  0  0
   30.0339   46.0983   -8.1962 H   0  0  0  0  0  0
   26.7489   45.0955   -9.4634 H   0  0  0  0  0  0
   24.0618   41.3956  -11.0301 H   0  0  0  0  0  0
   23.2063   42.3977   -7.1938 H   0  0  0  0  0  0
   21.8866   42.0987   -8.2912 H   0  0  0  0  0  0
   22.8990   39.8130   -8.5251 H   0  0  0  0  0  0
   21.1757   39.5004   -7.1718 H   0  0  0  0  0  0
   22.4590   39.2361   -6.0211 H   0  0  0  0  0  0
   21.9520   40.2657   -3.9702 H   0  0  0  0  0  0
   20.0579   44.1430   -3.8236 H   0  0  0  0  0  0
   19.9770   44.1933   -6.2987 H   0  0  0  0  0  0
   20.8735   42.2917   -7.6186 H   0  0  0  0  0  0
   21.2765   41.1264   -1.8992 H   0  0  0  0  0  0
   18.9170   41.8695   -1.9281 H   0  0  0  0  0  0
   19.4233   43.5523   -1.8006 H   0  0  0  0  0  0
   19.7421   42.4341   -0.4813 H   0  0  0  0  0  0
   23.1636   42.7136   -2.0475 H   0  0  0  0  0  0
   22.2611   42.9499   -0.5563 H   0  0  0  0  0  0
   22.0593   44.0781   -1.8910 H   0  0  0  0  0  0
  1  2  1  0  0  0
  1 43  1  0  0  0
  1 44  1  0  0  0
  1 45  1  0  0  0
  2  3  1  0  0  0
  3 25  1  0  0  0
  3  4  2  0  0  0
  4  5  1  0  0  0
  4 46  1  0  0  0
  5  6  2  0  0  0
  5 47  1  0  0  0
  6 26  1  0  0  0
  6  7  1  0  0  0
  7  8  1  0  0  0
  7 48  1  0  0  0
  7 49  1  0  0  0
  8 41  1  0  0  0
  8  9  1  0  0  0
  8 27  1  0  0  0
  9 10  1  0  0  0
  9 50  1  0  0  0
 10 11  2  0  0  0
 10 12  1  0  0  0
 12 18  1  0  0  0
 12 13  2  0  0  0
 13 14  1  0  0  0
 13 51  1  0  0  0
 14 15  1  0  0  0
 14 16  2  0  0  0
 16 17  1  0  0  0
 17 18  2  0  0  0
 17 19  1  0  0  0
 18 52  1  0  0  0
 19 20  1  0  0  0
 19 53  1  0  0  0
 20 21  1  0  0  0
 20 54  1  0  0  0
 20 55  1  0  0  0
 21 22  1  0  0  0
 21 56  1  0  0  0
 21 57  1  0  0  0
 22 23  1  0  0  0
 22 58  1  0  0  0
 22 59  1  0  0  0
 23 24  1  0  0  0
 23 60  1  0  0  0
 23 61  1  0  0  0
 24 25  1  0  0  0
 25 26  2  0  0  0
 26 62  1  0  0  0
 27 42  1  0  0  0
 27 28  1  0  0  0
 27 29  1  0  0  0
 28 63  1  0  0  0
 29 30  1  0  0  0
 29 64  1  0  0  0
 29 65  1  0  0  0
 30 31  1  0  0  0
 30 66  1  0  0  0
 31 32  1  0  0  0
 31 67  1  0  0  0
 31 68  1  0  0  0
 32 37  1  0  0  0
 32 33  2  0  0  0
 33 34  1  0  0  0
 33 69  1  0  0  0
 34 35  2  0  0  0
 34 38  1  0  0  0
 35 36  1  0  0  0
 35 70  1  0  0  0
 36 37  2  0  0  0
 36 71  1  0  0  0
 37 72  1  0  0  0
 38 39  1  0  0  0
 38 40  1  0  0  0
 38 73  1  0  0  0
 39 74  1  0  0  0
 39 75  1  0  0  0
 39 76  1  0  0  0
 40 77  1  0  0  0
 40 78  1  0  0  0
 40 79  1  0  0  0
M  END
> <s_m_source_file>
BACE_100.smi

> <i_m_source_file_index>
1

> <i_lp_mmshare_version>
42013

> <i_f3d_flags>
0

> <s_epik_input>
YzEyW2NIXVtjSF1jKE9bQ0gzXSljKFtjSF0yKU9bQ0gyXVtDSDJdW0NIMl1bQ0gyXVtOSF1jM25jKENsKVtjSF1jKFtjSF0zKUMoPU8pW05IXVtDQEBIXShbQ0gyXTEpW0NASF0oW09IXSlbQ0gyXVtOSF1bQ0gyXWM0W2NIXWMoW0NIXShbQ0gzXSlbQ0gzXSlbY0hdW2NIXVtjSF00

> <s_epik_cmdline>
J2VwaWtfcHl0aG9uJywgJy1waCcsICc3LjAnLCAnLXRuJywgJzgnLCAnLW1hJywgJzIwMCcsICctaW1hZScsICc8aW5maWxlLm1hZT4nLCAnLW9tYWUnLCAnPG91dGZpbGUubWFlPic=

> <r_lp_tautomer_probability>
1

> <r_epik_Ionization_Penalty>
  2.0161

> <r_epik_Ionization_Penalty_Charging>
  0.0000

> <r_epik_Ionization_Penalty_Neutral>
  2.0161

> <r_epik_State_Penalty>
  2.1460

> <r_epik_Charging_Adjusted_Penalty>
2.14597

> <i_epik_Tot_Q>
0

> <i_epik_Tot_abs_Q>
0

> <s_lp_Force_Field>
OPLS_2005

> <r_lp_Energy>
35.4655

> <b_lp_Chiralities_Consistent>
1

> <s_lp_Variant>
BACE_100.smi:1-2

> <chiral flag>
1

> <version>
0

> <s_i_glide_gridfile>
second_dock_grid_2

> <i_i_glide_lignum>
205

> <i_i_glide_rotatable_bonds>
8

> <r_i_docking_score>
-0.823403

> <r_i_glide_ligand_efficiency>
-0.0205851

> <r_i_glide_ligand_efficiency_sa>
-0.0703999

> <r_i_glide_ligand_efficiency_ln>
-0.175608

> <r_glide_XP_GScore>
-2.9694

> <r_i_glide_gscore>
-2.9694

> <r_i_glide_evdw>
-38.2428

> <r_i_glide_ecoul>
-2.93841

> <r_i_glide_energy>
-41.1812

> <r_i_glide_einternal>
11.4569

> <r_i_glide_emodel>
-52.539

> <r_glide_XP_HBond>
-0.7

> <i_i_glide_confnum>
1

> <i_i_glide_posenum>
2

> <r_i_glide_eff_state_penalty>
2.146

> <i_glide_XP_PoseRank>
1

$$$$
BACE_101.smi:1
                    3D
 Structure written by MMmdl.
 83 86  0  0  1  0            999 V2000
   21.5765   40.8917  -10.9407 C   0  0  0  0  0  0
   21.1868   39.5237  -10.3468 C   0  0  0  0  0  0
   20.0251   38.9266  -11.1640 C   0  0  0  0  0  0
   20.9224   39.5999   -8.8394 C   0  0  0  0  0  0
   19.7729   39.0357   -8.2329 C   0  0  0  0  0  0
   19.6122   39.1522   -6.8343 C   0  0  0  0  0  0
   18.4444   38.5104   -6.1017 C   0  0  0  0  0  0
   17.1707   38.5498   -6.8410 N   0  3  0  0  0  0
   16.4586   39.8304   -6.9346 C   0  0  0  0  0  0
   15.7923   39.8946   -8.3233 C   0  0  1  0  0  0
   14.7526   38.9349   -8.3629 O   0  0  0  0  0  0
   15.2454   41.2739   -8.7642 C   0  0  2  0  0  0
   14.9328   41.2905  -10.2789 C   0  0  0  0  0  0
   14.2406   42.5559  -10.7491 C   0  0  0  0  0  0
   14.9919   43.6623  -11.2028 C   0  0  0  0  0  0
   14.3383   44.8434  -11.6367 C   0  0  0  0  0  0
   12.9283   44.8683  -11.6530 C   0  0  0  0  0  0
   12.1787   43.7663  -11.1984 C   0  0  0  0  0  0
   12.8341   42.6162  -10.7350 C   0  0  0  0  0  0
   14.9697   45.9984  -12.0497 O   0  0  0  0  0  0
   16.3923   46.0853  -12.0508 C   0  0  0  0  0  0
   16.7673   47.5446  -11.7451 C   0  0  0  0  0  0
   16.7469   47.8581  -10.2362 C   0  0  0  0  0  0
   18.1158   47.6083   -9.5601 C   0  0  0  0  0  0
   18.0424   47.3731   -8.1026 N   0  0  0  0  0  0
   17.7914   48.3607   -7.2057 C   0  0  0  0  0  0
   17.6078   49.8006   -7.6902 C   0  0  0  0  0  0
   17.6632   48.1504   -5.9986 O   0  0  0  0  0  0
   18.3699   46.0580   -7.6568 C   0  0  0  0  0  0
   17.6831   44.9883   -8.2730 C   0  0  0  0  0  0
   18.0823   43.6664   -8.0046 C   0  0  0  0  0  0
   19.1373   43.4423   -7.1027 C   0  0  0  0  0  0
   19.7225   44.5573   -6.4784 C   0  0  0  0  0  0
   20.8232   44.3695   -5.4571 C   0  0  0  0  0  0
   19.3565   45.8295   -6.7519 N   0  0  0  0  0  0
   17.4117   42.5252   -8.6848 C   0  0  0  0  0  0
   18.0357   41.7700   -9.4280 O   0  0  0  0  0  0
   16.1153   42.3812   -8.3664 N   0  0  0  0  0  0
   20.5148   39.7671   -6.0420 N   0  0  0  0  0  0
   21.6200   40.2820   -6.6139 C   0  0  0  0  0  0
   21.8698   40.2172   -7.9938 C   0  0  0  0  0  0
   16.5328   39.5867   -9.0635 H   0  0  0  0  0  0
   14.3202   41.4538   -8.2237 H   0  0  0  0  0  0
   22.4941   41.2807  -10.4994 H   0  0  0  0  0  0
   20.7911   41.6312  -10.7789 H   0  0  0  0  0  0
   21.7594   40.8183  -12.0150 H   0  0  0  0  0  0
   22.0400   38.8535  -10.4642 H   0  0  0  0  0  0
   19.8160   37.8981  -10.8663 H   0  0  0  0  0  0
   20.2666   38.9127  -12.2270 H   0  0  0  0  0  0
   19.1088   39.5111  -11.0491 H   0  0  0  0  0  0
   19.0371   38.5112   -8.8201 H   0  0  0  0  0  0
   18.6849   37.4592   -5.9572 H   0  0  0  0  0  0
   18.3312   38.9511   -5.1183 H   0  0  0  0  0  0
   17.3614   38.2397   -7.7799 H   0  0  0  0  0  0
   15.7506   39.9476   -6.1091 H   0  0  0  0  0  0
   17.1979   40.6140   -6.8398 H   0  0  0  0  0  0
   14.0125   39.2478   -7.8590 H   0  0  0  0  0  0
   15.8425   41.1460  -10.8618 H   0  0  0  0  0  0
   14.2909   40.4437  -10.5247 H   0  0  0  0  0  0
   16.0661   43.5699  -11.1985 H   0  0  0  0  0  0
   12.4189   45.7454  -12.0236 H   0  0  0  0  0  0
   11.1014   43.7965  -11.2053 H   0  0  0  0  0  0
   12.2644   41.7728  -10.3701 H   0  0  0  0  0  0
   16.8989   45.4450  -11.3285 H   0  0  0  0  0  0
   16.7457   45.7997  -13.0424 H   0  0  0  0  0  0
   17.7558   47.7603  -12.1495 H   0  0  0  0  0  0
   16.0793   48.2077  -12.2705 H   0  0  0  0  0  0
   16.4744   48.9046  -10.1176 H   0  0  0  0  0  0
   15.9571   47.2827   -9.7491 H   0  0  0  0  0  0
   18.5916   46.7472  -10.0322 H   0  0  0  0  0  0
   18.7991   48.4287   -9.7803 H   0  0  0  0  0  0
   18.4142   50.1097   -8.3528 H   0  0  0  0  0  0
   17.6107   50.4749   -6.8411 H   0  0  0  0  0  0
   16.6556   49.9330   -8.1956 H   0  0  0  0  0  0
   16.8894   45.1752   -8.9823 H   0  0  0  0  0  0
   19.4611   42.4371   -6.8648 H   0  0  0  0  0  0
   20.5617   43.5684   -4.7657 H   0  0  0  0  0  0
   20.9869   45.2793   -4.8768 H   0  0  0  0  0  0
   21.7572   44.0994   -5.9565 H   0  0  0  0  0  0
   15.7387   43.0158   -7.6718 H   0  0  0  0  0  0
   22.3281   40.7548   -5.9499 H   0  0  0  0  0  0
   22.7871   40.6352   -8.3846 H   0  0  0  0  0  0
   16.5281   37.8638   -6.4410 H   0  0  0  0  0  0
  1  2  1  0  0  0
  1 44  1  0  0  0
  1 45  1  0  0  0
  1 46  1  0  0  0
  2  3  1  0  0  0
  2  4  1  0  0  0
  2 47  1  0  0  0
  3 48  1  0  0  0
  3 49  1  0  0  0
  3 50  1  0  0  0
  4 41  1  0  0  0
  4  5  2  0  0  0
  5  6  1  0  0  0
  5 51  1  0  0  0
  6  7  1  0  0  0
  6 39  2  0  0  0
  7  8  1  0  0  0
  7 52  1  0  0  0
  7 53  1  0  0  0
  8  9  1  0  0  0
  8 54  1  0  0  0
  8 83  1  0  0  0
  9 10  1  0  0  0
  9 55  1  0  0  0
  9 56  1  0  0  0
 10 42  1  0  0  0
 10 11  1  0  0  0
 10 12  1  0  0  0
 11 57  1  0  0  0
 12 43  1  0  0  0
 12 38  1  0  0  0
 12 13  1  0  0  0
 13 14  1  0  0  0
 13 58  1  0  0  0
 13 59  1  0  0  0
 14 19  1  0  0  0
 14 15  2  0  0  0
 15 16  1  0  0  0
 15 60  1  0  0  0
 16 17  2  0  0  0
 16 20  1  0  0  0
 17 18  1  0  0  0
 17 61  1  0  0  0
 18 19  2  0  0  0
 18 62  1  0  0  0
 19 63  1  0  0  0
 20 21  1  0  0  0
 21 22  1  0  0  0
 21 64  1  0  0  0
 21 65  1  0  0  0
 22 23  1  0  0  0
 22 66  1  0  0  0
 22 67  1  0  0  0
 23 24  1  0  0  0
 23 68  1  0  0  0
 23 69  1  0  0  0
 24 25  1  0  0  0
 24 70  1  0  0  0
 24 71  1  0  0  0
 25 26  1  0  0  0
 25 29  1  0  0  0
 26 27  1  0  0  0
 26 28  2  0  0  0
 27 72  1  0  0  0
 27 73  1  0  0  0
 27 74  1  0  0  0
 29 35  1  0  0  0
 29 30  2  0  0  0
 30 31  1  0  0  0
 30 75  1  0  0  0
 31 32  2  0  0  0
 31 36  1  0  0  0
 32 33  1  0  0  0
 32 76  1  0  0  0
 33 34  1  0  0  0
 33 35  2  0  0  0
 34 77  1  0  0  0
 34 78  1  0  0  0
 34 79  1  0  0  0
 36 37  2  0  0  0
 36 38  1  0  0  0
 38 80  1  0  0  0
 39 40  1  0  0  0
 40 41  2  0  0  0
 40 81  1  0  0  0
 41 82  1  0  0  0
M  CHG  1   8   1
M  END
> <s_m_source_file>
BACE_101.smi

> <i_m_source_file_index>
1

> <i_lp_mmshare_version>
42013

> <i_f3d_flags>
0

> <s_epik_input>
W0NIM11bQ0hdKFtDSDNdKWMxW2NIXWMobltjSF1bY0hdMSlbQ0gyXVtOSF1bQ0gyXVtDQEBIXShbT0hdKVtDQEhdKFtDSDJdMilbTkhdQyg9TyljKFtjSF1jKG4zKVtDSDNdKVtjSF1jM04oQyg9TylbQ0gzXSlbQ0gyXVtDSDJdW0NIMl1bQ0gyXU9jKFtjSF1jMjQpW2NIXVtjSF1bY0hdNA==

> <s_epik_cmdline>
J2VwaWtfcHl0aG9uJywgJy1waCcsICc3LjAnLCAnLXRuJywgJzgnLCAnLW1hJywgJzIwMCcsICctaW1hZScsICc8aW5maWxlLm1hZT4nLCAnLW9tYWUnLCAnPG91dGZpbGUubWFlPic=

> <r_lp_tautomer_probability>
1

> <r_epik_Ionization_Penalty>
  0.0404

> <r_epik_Ionization_Penalty_Charging>
  0.0401

> <r_epik_Ionization_Penalty_Neutral>
  0.0003

> <r_epik_State_Penalty>
  0.0337

> <r_epik_Charging_Adjusted_Penalty>
0.0737743

> <i_epik_Tot_Q>
1

> <i_epik_Tot_abs_Q>
1

> <s_lp_Force_Field>
OPLS_2005

> <r_lp_Energy>
37.1694

> <b_lp_Chiralities_Consistent>
1

> <s_lp_Variant>
BACE_101.smi:1-1

> <chiral flag>
1

> <version>
0

> <s_i_glide_gridfile>
second_dock_grid_2

> <i_i_glide_lignum>
206

> <i_i_glide_rotatable_bonds>
8

> <r_i_docking_score>
-5.7588

> <r_i_glide_ligand_efficiency>
-0.140459

> <r_i_glide_ligand_efficiency_sa>
-0.484332

> <r_i_glide_ligand_efficiency_ln>
-1.22175

> <r_glide_XP_GScore>
-5.7925

> <r_i_glide_gscore>
-5.7925

> <r_i_glide_evdw>
-46.9415

> <r_i_glide_ecoul>
-15.6369

> <r_i_glide_energy>
-62.5784

> <r_i_glide_einternal>
5.37977

> <r_i_glide_emodel>
-83.6919

> <r_glide_XP_HBond>
-1.03334

> <i_i_glide_confnum>
1

> <i_i_glide_posenum>
4

> <r_i_glide_eff_state_penalty>
0.0337

> <i_glide_XP_PoseRank>
1

$$$$
BACE_101.smi:1
                    3D
 Structure written by MMmdl.
 82 85  0  0  1  0            999 V2000
   26.8993   50.1498   -1.1616 C   0  0  0  0  0  0
   25.4760   50.2739   -0.5923 C   0  0  0  0  0  0
   25.2308   49.2382    0.5144 C   0  0  0  0  0  0
   24.4117   50.1806   -1.6779 C   0  0  0  0  0  0
   24.4590   49.1757   -2.6638 C   0  0  0  0  0  0
   23.4499   49.1362   -3.6479 C   0  0  0  0  0  0
   23.4416   48.0191   -4.6693 C   0  0  0  0  0  0
   23.2619   46.7266   -4.0072 N   0  0  0  0  0  0
   23.3182   45.5528   -4.8824 C   0  0  0  0  0  0
   22.2980   45.5878   -6.0459 C   0  0  1  0  0  0
   22.9875   46.1641   -7.1377 O   0  0  0  0  0  0
   21.7854   44.1701   -6.4213 C   0  0  2  0  0  0
   22.8579   43.2100   -6.9905 C   0  0  0  0  0  0
   22.3584   41.7792   -7.0297 C   0  0  0  0  0  0
   21.9326   41.1987   -8.2442 C   0  0  0  0  0  0
   21.3642   39.9011   -8.2570 C   0  0  0  0  0  0
   21.2789   39.1866   -7.0457 C   0  0  0  0  0  0
   21.7370   39.7500   -5.8400 C   0  0  0  0  0  0
   22.2686   41.0478   -5.8285 C   0  0  0  0  0  0
   20.8511   39.2725   -9.3727 O   0  0  0  0  0  0
   20.7945   39.9616  -10.6166 C   0  0  0  0  0  0
   19.5892   39.4122  -11.3862 C   0  0  0  0  0  0
   18.2497   39.9321  -10.8307 C   0  0  0  0  0  0
   17.8291   41.2918  -11.4294 C   0  0  0  0  0  0
   16.8427   42.0084  -10.5935 N   0  0  0  0  0  0
   15.5667   41.5497  -10.5030 C   0  0  0  0  0  0
   14.5972   42.1837   -9.4996 C   0  0  0  0  0  0
   15.1380   40.6546  -11.2333 O   0  0  0  0  0  0
   17.2451   43.2767  -10.0729 C   0  0  0  0  0  0
   18.4728   43.3459   -9.3646 C   0  0  0  0  0  0
   18.9988   44.6088   -9.0159 C   0  0  0  0  0  0
   18.2639   45.7610   -9.3464 C   0  0  0  0  0  0
   17.0367   45.6029  -10.0114 C   0  0  0  0  0  0
   16.2114   46.8140  -10.3857 C   0  0  0  0  0  0
   16.5433   44.4001  -10.3719 N   0  0  0  0  0  0
   20.3616   44.7515   -8.4145 C   0  0  0  0  0  0
   21.2244   45.4027   -9.0073 O   0  0  0  0  0  0
   20.5471   44.1679   -7.2183 N   0  0  0  0  0  0
   22.4272   50.0165   -3.6946 N   0  0  0  0  0  0
   22.3685   50.9588   -2.7303 C   0  0  0  0  0  0
   23.3333   51.0875   -1.7123 C   0  0  0  0  0  0
   21.4391   46.2060   -5.7812 H   0  0  0  0  0  0
   21.4579   43.7361   -5.4763 H   0  0  0  0  0  0
   27.0599   50.8486   -1.9833 H   0  0  0  0  0  0
   27.0999   49.1476   -1.5403 H   0  0  0  0  0  0
   27.6481   50.3577   -0.3973 H   0  0  0  0  0  0
   25.3950   51.2649   -0.1409 H   0  0  0  0  0  0
   24.2458   49.3704    0.9604 H   0  0  0  0  0  0
   25.9716   49.3360    1.3083 H   0  0  0  0  0  0
   25.2888   48.2211    0.1298 H   0  0  0  0  0  0
   25.2515   48.4419   -2.6740 H   0  0  0  0  0  0
   22.6489   48.2015   -5.3959 H   0  0  0  0  0  0
   24.3852   48.0410   -5.2182 H   0  0  0  0  0  0
   24.0136   46.6275   -3.3289 H   0  0  0  0  0  0
   24.3309   45.4105   -5.2660 H   0  0  0  0  0  0
   23.1269   44.6720   -4.2680 H   0  0  0  0  0  0
   22.4917   45.9698   -7.9345 H   0  0  0  0  0  0
   23.1665   43.5234   -7.9859 H   0  0  0  0  0  0
   23.7591   43.2348   -6.3777 H   0  0  0  0  0  0
   22.0281   41.7836   -9.1461 H   0  0  0  0  0  0
   20.8473   38.1962   -7.0410 H   0  0  0  0  0  0
   21.6599   39.1948   -4.9192 H   0  0  0  0  0  0
   22.5938   41.4871   -4.8968 H   0  0  0  0  0  0
   20.6693   41.0386  -10.5229 H   0  0  0  0  0  0
   21.7212   39.7757  -11.1613 H   0  0  0  0  0  0
   19.6749   39.6873  -12.4364 H   0  0  0  0  0  0
   19.6144   38.3229  -11.3431 H   0  0  0  0  0  0
   17.4688   39.2037  -11.0418 H   0  0  0  0  0  0
   18.3066   39.9922   -9.7443 H   0  0  0  0  0  0
   18.7115   41.9161  -11.5721 H   0  0  0  0  0  0
   17.4391   41.1458  -12.4395 H   0  0  0  0  0  0
   15.0727   42.3232   -8.5283 H   0  0  0  0  0  0
   13.7252   41.5470   -9.3511 H   0  0  0  0  0  0
   14.2382   43.1476   -9.8592 H   0  0  0  0  0  0
   19.0352   42.4478   -9.1548 H   0  0  0  0  0  0
   18.6438   46.7453   -9.1126 H   0  0  0  0  0  0
   16.8527   47.6156  -10.7513 H   0  0  0  0  0  0
   15.6667   47.1771   -9.5118 H   0  0  0  0  0  0
   15.4918   46.5730  -11.1724 H   0  0  0  0  0  0
   19.7686   43.6434   -6.8415 H   0  0  0  0  0  0
   21.5340   51.6438   -2.7751 H   0  0  0  0  0  0
   23.2463   51.8722   -0.9782 H   0  0  0  0  0  0
  1  2  1  0  0  0
  1 44  1  0  0  0
  1 45  1  0  0  0
  1 46  1  0  0  0
  2  3  1  0  0  0
  2  4  1  0  0  0
  2 47  1  0  0  0
  3 48  1  0  0  0
  3 49  1  0  0  0
  3 50  1  0  0  0
  4 41  1  0  0  0
  4  5  2  0  0  0
  5  6  1  0  0  0
  5 51  1  0  0  0
  6  7  1  0  0  0
  6 39  2  0  0  0
  7  8  1  0  0  0
  7 52  1  0  0  0
  7 53  1  0  0  0
  8  9  1  0  0  0
  8 54  1  0  0  0
  9 10  1  0  0  0
  9 55  1  0  0  0
  9 56  1  0  0  0
 10 42  1  0  0  0
 10 11  1  0  0  0
 10 12  1  0  0  0
 11 57  1  0  0  0
 12 43  1  0  0  0
 12 38  1  0  0  0
 12 13  1  0  0  0
 13 14  1  0  0  0
 13 58  1  0  0  0
 13 59  1  0  0  0
 14 19  1  0  0  0
 14 15  2  0  0  0
 15 16  1  0  0  0
 15 60  1  0  0  0
 16 17  2  0  0  0
 16 20  1  0  0  0
 17 18  1  0  0  0
 17 61  1  0  0  0
 18 19  2  0  0  0
 18 62  1  0  0  0
 19 63  1  0  0  0
 20 21  1  0  0  0
 21 22  1  0  0  0
 21 64  1  0  0  0
 21 65  1  0  0  0
 22 23  1  0  0  0
 22 66  1  0  0  0
 22 67  1  0  0  0
 23 24  1  0  0  0
 23 68  1  0  0  0
 23 69  1  0  0  0
 24 25  1  0  0  0
 24 70  1  0  0  0
 24 71  1  0  0  0
 25 26  1  0  0  0
 25 29  1  0  0  0
 26 27  1  0  0  0
 26 28  2  0  0  0
 27 72  1  0  0  0
 27 73  1  0  0  0
 27 74  1  0  0  0
 29 35  1  0  0  0
 29 30  2  0  0  0
 30 31  1  0  0  0
 30 75  1  0  0  0
 31 32  2  0  0  0
 31 36  1  0  0  0
 32 33  1  0  0  0
 32 76  1  0  0  0
 33 34  1  0  0  0
 33 35  2  0  0  0
 34 77  1  0  0  0
 34 78  1  0  0  0
 34 79  1  0  0  0
 36 37  2  0  0  0
 36 38  1  0  0  0
 38 80  1  0  0  0
 39 40  1  0  0  0
 40 41  2  0  0  0
 40 81  1  0  0  0
 41 82  1  0  0  0
M  END
> <s_m_source_file>
BACE_101.smi

> <i_m_source_file_index>
1

> <i_lp_mmshare_version>
42013

> <i_f3d_flags>
0

> <s_epik_input>
W0NIM11bQ0hdKFtDSDNdKWMxW2NIXWMobltjSF1bY0hdMSlbQ0gyXVtOSF1bQ0gyXVtDQEBIXShbT0hdKVtDQEhdKFtDSDJdMilbTkhdQyg9TyljKFtjSF1jKG4zKVtDSDNdKVtjSF1jM04oQyg9TylbQ0gzXSlbQ0gyXVtDSDJdW0NIMl1bQ0gyXU9jKFtjSF1jMjQpW2NIXVtjSF1bY0hdNA==

> <s_epik_cmdline>
J2VwaWtfcHl0aG9uJywgJy1waCcsICc3LjAnLCAnLXRuJywgJzgnLCAnLW1hJywgJzIwMCcsICctaW1hZScsICc8aW5maWxlLm1hZT4nLCAnLW9tYWUnLCAnPG91dGZpbGUubWFlPic=

> <r_lp_tautomer_probability>
1

> <r_epik_Ionization_Penalty>
  1.6178

> <r_epik_Ionization_Penalty_Charging>
  0.0000

> <r_epik_Ionization_Penalty_Neutral>
  1.6178

> <r_epik_State_Penalty>
  1.7152

> <r_epik_Charging_Adjusted_Penalty>
1.71525

> <i_epik_Tot_Q>
0

> <i_epik_Tot_abs_Q>
0

> <s_lp_Force_Field>
OPLS_2005

> <r_lp_Energy>
43.9486

> <b_lp_Chiralities_Consistent>
1

> <s_lp_Variant>
BACE_101.smi:1-2

> <chiral flag>
1

> <version>
0

> <s_i_glide_gridfile>
second_dock_grid_2

> <i_i_glide_lignum>
207

> <i_i_glide_rotatable_bonds>
8

> <r_i_docking_score>
-3.28324

> <r_i_glide_ligand_efficiency>
-0.080079

> <r_i_glide_ligand_efficiency_sa>
-0.27613

> <r_i_glide_ligand_efficiency_ln>
-0.69655

> <r_glide_XP_GScore>
-4.99844

> <r_i_glide_gscore>
-4.99844

> <r_i_glide_evdw>
-42.9566

> <r_i_glide_ecoul>
-8.02505

> <r_i_glide_energy>
-50.9816

> <r_i_glide_einternal>
6.40548

> <r_i_glide_emodel>
-62.3287

> <r_glide_XP_HBond>
-1.24015

> <i_i_glide_confnum>
1

> <i_i_glide_posenum>
7

> <r_i_glide_eff_state_penalty>
1.7152

> <i_glide_XP_PoseRank>
1

$$$$
BACE_102.smi:1
                    3D
 Structure written by MMmdl.
 83 87  0  0  1  0            999 V2000
   21.9037   40.6364   -4.0000 C   0  0  0  0  0  0
   21.9160   41.8037   -4.9653 C   0  0  0  0  0  0
   20.8504   41.9961   -5.8629 C   0  0  0  0  0  0
   20.8914   43.0973   -6.7452 C   0  0  0  0  0  0
   22.0349   43.9218   -6.7174 C   0  0  0  0  0  0
   23.0531   43.6566   -5.7736 C   0  0  0  0  0  0
   24.1948   44.4561   -5.6397 N   0  0  0  0  0  0
   24.2459   45.7873   -6.2294 C   0  0  0  0  0  0
   23.2775   46.7621   -5.5869 C   0  0  0  0  0  0
   22.3211   47.4182   -6.2638 C   0  0  0  0  0  0
   21.3131   48.3697   -5.6473 C   0  0  0  0  0  0
   19.9969   47.8241   -5.6401 O   0  0  0  0  0  0
   19.3831   47.4806   -6.8267 C   0  0  0  0  0  0
   18.4583   46.4197   -6.7570 C   0  0  0  0  0  0
   17.7531   45.9828   -7.8985 C   0  0  0  0  0  0
   16.7313   44.8558   -7.7990 C   0  0  0  0  0  0
   17.2443   43.3934   -7.8855 C   0  0  2  0  0  0
   18.5361   43.1231   -7.2416 N   0  0  0  0  0  0
   19.7689   43.3935   -7.7012 C   0  0  0  0  0  0
   19.9916   43.9335   -8.7847 O   0  0  0  0  0  0
   17.0656   42.7120   -9.2692 C   0  0  2  0  0  0
   17.2860   43.6280  -10.3236 O   0  0  0  0  0  0
   15.6383   42.1440   -9.4759 C   0  0  0  0  0  0
   15.3081   41.0160   -8.5943 N   0  0  0  0  0  0
   15.8119   39.7007   -8.9965 C   0  0  0  0  0  0
   15.2490   39.0836  -10.2495 C   0  0  0  0  0  0
   14.8433   38.5462   -8.8984 C   0  0  0  0  0  0
   17.2294   39.4404   -8.5801 C   0  0  0  0  0  0
   18.2901   39.5156   -9.5101 C   0  0  0  0  0  0
   19.6395   39.3620   -9.1105 C   0  0  0  0  0  0
   19.8964   39.0580   -7.7508 C   0  0  0  0  0  0
   18.8426   38.9248   -6.8298 C   0  0  0  0  0  0
   17.5158   39.1240   -7.2404 C   0  0  0  0  0  0
   20.7908   39.5973  -10.1087 C   0  0  0  0  0  0
   21.1400   41.0949  -10.1264 C   0  0  0  0  0  0
   22.0615   38.8204   -9.7118 C   0  0  0  0  0  0
   20.4117   39.1782  -11.5480 C   0  0  0  0  0  0
   17.9771   46.6237   -9.1322 C   0  0  0  0  0  0
   18.8946   47.6867   -9.2179 C   0  0  0  0  0  0
   19.5915   48.1243   -8.0748 C   0  0  0  0  0  0
   20.4317   49.1791   -8.2021 F   0  0  0  0  0  0
   22.9859   42.6244   -4.9080 N   0  0  0  0  0  0
   16.5783   42.8361   -7.2266 H   0  0  0  0  0  0
   17.8157   41.9428   -9.3899 H   0  0  0  0  0  0
   22.8227   40.5919   -3.4131 H   0  0  0  0  0  0
   21.8031   39.6982   -4.5440 H   0  0  0  0  0  0
   21.0630   40.7261   -3.3126 H   0  0  0  0  0  0
   20.0183   41.3094   -5.8596 H   0  0  0  0  0  0
   22.0999   44.7553   -7.3990 H   0  0  0  0  0  0
   24.7116   44.3126   -4.7758 H   0  0  0  0  0  0
   25.2562   46.1757   -6.0961 H   0  0  0  0  0  0
   24.0819   45.7295   -7.3055 H   0  0  0  0  0  0
   23.3807   46.9057   -4.5209 H   0  0  0  0  0  0
   22.2283   47.2563   -7.3283 H   0  0  0  0  0  0
   21.3538   49.3496   -6.1187 H   0  0  0  0  0  0
   21.5922   48.5430   -4.6078 H   0  0  0  0  0  0
   18.2942   45.9262   -5.8112 H   0  0  0  0  0  0
   15.9368   45.0259   -8.5259 H   0  0  0  0  0  0
   16.2385   44.9501   -6.8401 H   0  0  0  0  0  0
   18.4812   42.6464   -6.3486 H   0  0  0  0  0  0
   17.6501   43.1505  -11.0522 H   0  0  0  0  0  0
   15.5008   41.8487  -10.5166 H   0  0  0  0  0  0
   14.9195   42.9451   -9.3033 H   0  0  0  0  0  0
   14.3034   40.9503   -8.4397 H   0  0  0  0  0  0
   14.4873   39.6264  -10.8075 H   0  0  0  0  0  0
   15.9437   38.5020  -10.8400 H   0  0  0  0  0  0
   15.2566   37.5855   -8.5958 H   0  0  0  0  0  0
   13.8224   38.7448   -8.5747 H   0  0  0  0  0  0
   18.0462   39.7666  -10.5294 H   0  0  0  0  0  0
   20.8994   38.9398   -7.3755 H   0  0  0  0  0  0
   19.0487   38.6954   -5.7954 H   0  0  0  0  0  0
   16.7134   39.0468   -6.5185 H   0  0  0  0  0  0
   20.2827   41.6970  -10.4247 H   0  0  0  0  0  0
   21.9503   41.3103  -10.8256 H   0  0  0  0  0  0
   21.4642   41.4341   -9.1430 H   0  0  0  0  0  0
   21.8734   37.7507   -9.6330 H   0  0  0  0  0  0
   22.4777   39.1577   -8.7636 H   0  0  0  0  0  0
   22.8595   38.9729  -10.4399 H   0  0  0  0  0  0
   20.0578   38.1499  -11.5837 H   0  0  0  0  0  0
   21.2674   39.2555  -12.2202 H   0  0  0  0  0  0
   19.6330   39.8082  -11.9768 H   0  0  0  0  0  0
   17.4479   46.3000  -10.0161 H   0  0  0  0  0  0
   19.0606   48.1761  -10.1661 H   0  0  0  0  0  0
  1  2  1  0  0  0
  1 45  1  0  0  0
  1 46  1  0  0  0
  1 47  1  0  0  0
  2 42  1  0  0  0
  2  3  2  0  0  0
  3  4  1  0  0  0
  3 48  1  0  0  0
  4 19  1  0  0  0
  4  5  2  0  0  0
  5  6  1  0  0  0
  5 49  1  0  0  0
  6  7  1  0  0  0
  6 42  2  0  0  0
  7  8  1  0  0  0
  7 50  1  0  0  0
  8  9  1  0  0  0
  8 51  1  0  0  0
  8 52  1  0  0  0
  9 10  2  0  0  0
  9 53  1  0  0  0
 10 11  1  0  0  0
 10 54  1  0  0  0
 11 12  1  0  0  0
 11 55  1  0  0  0
 11 56  1  0  0  0
 12 13  1  0  0  0
 13 40  1  0  0  0
 13 14  2  0  0  0
 14 15  1  0  0  0
 14 57  1  0  0  0
 15 16  1  0  0  0
 15 38  2  0  0  0
 16 17  1  0  0  0
 16 58  1  0  0  0
 16 59  1  0  0  0
 17 43  1  0  0  0
 17 18  1  0  0  0
 17 21  1  0  0  0
 18 19  1  0  0  0
 18 60  1  0  0  0
 19 20  2  0  0  0
 21 44  1  0  0  0
 21 22  1  0  0  0
 21 23  1  0  0  0
 22 61  1  0  0  0
 23 24  1  0  0  0
 23 62  1  0  0  0
 23 63  1  0  0  0
 24 25  1  0  0  0
 24 64  1  0  0  0
 25 27  1  0  0  0
 25 26  1  0  0  0
 25 28  1  0  0  0
 26 27  1  0  0  0
 26 65  1  0  0  0
 26 66  1  0  0  0
 27 67  1  0  0  0
 27 68  1  0  0  0
 28 33  1  0  0  0
 28 29  2  0  0  0
 29 30  1  0  0  0
 29 69  1  0  0  0
 30 31  2  0  0  0
 30 34  1  0  0  0
 31 32  1  0  0  0
 31 70  1  0  0  0
 32 33  2  0  0  0
 32 71  1  0  0  0
 33 72  1  0  0  0
 34 35  1  0  0  0
 34 36  1  0  0  0
 34 37  1  0  0  0
 35 73  1  0  0  0
 35 74  1  0  0  0
 35 75  1  0  0  0
 36 76  1  0  0  0
 36 77  1  0  0  0
 36 78  1  0  0  0
 37 79  1  0  0  0
 37 80  1  0  0  0
 37 81  1  0  0  0
 38 39  1  0  0  0
 38 82  1  0  0  0
 39 40  2  0  0  0
 39 83  1  0  0  0
 40 41  1  0  0  0
M  END
> <s_m_source_file>
BACE_102.smi

> <i_m_source_file_index>
1

> <i_lp_mmshare_version>
42013

> <i_f3d_flags>
0

> <s_epik_input>
YzEyW2NIXWMoW0NIM10pbmMoW2NIXTEpW05IXVtDSDJdL1tDSF09W0NIXS9bQ0gyXU9jM1tjSF1jKFtjSF1bY0hdYzNGKVtDSDJdW0NASF0oW05IXUMyPU8pW0NASF0oW09IXSlbQ0gyXVtOSF1DNChbQ0gyXVtDSDJdNCljNVtjSF1jKEMoW0NIM10pKFtDSDNdKVtDSDNdKVtjSF1bY0hdW2NIXTU=

> <s_epik_cmdline>
J2VwaWtfcHl0aG9uJywgJy1waCcsICc3LjAnLCAnLXRuJywgJzgnLCAnLW1hJywgJzIwMCcsICctaW1hZScsICc8aW5maWxlLm1hZT4nLCAnLW9tYWUnLCAnPG91dGZpbGUubWFlPic=

> <r_lp_tautomer_probability>
1

> <r_epik_Ionization_Penalty>
  0.3206

> <r_epik_Ionization_Penalty_Charging>
  0.0000

> <r_epik_Ionization_Penalty_Neutral>
  0.3206

> <r_epik_State_Penalty>
  0.3306

> <r_epik_Charging_Adjusted_Penalty>
0.330633

> <i_epik_Tot_Q>
0

> <i_epik_Tot_abs_Q>
0

> <s_lp_Force_Field>
OPLS_2005

> <r_lp_Energy>
38.0869

> <b_lp_Chiralities_Consistent>
1

> <s_lp_Variant>
BACE_102.smi:1-1

> <chiral flag>
1

> <version>
0

> <s_i_glide_gridfile>
second_dock_grid_2

> <i_i_glide_lignum>
208

> <i_i_glide_rotatable_bonds>
7

> <r_i_docking_score>
-3.39995

> <r_i_glide_ligand_efficiency>
-0.0809513

> <r_i_glide_ligand_efficiency_sa>
-0.281389

> <r_i_glide_ligand_efficiency_ln>
-0.717643

> <r_glide_XP_GScore>
-3.73055

> <r_i_glide_gscore>
-3.73055

> <r_i_glide_evdw>
-41.9225

> <r_i_glide_ecoul>
-7.07254

> <r_i_glide_energy>
-48.995

> <r_i_glide_einternal>
5.24227

> <r_i_glide_emodel>
-68.0365

> <r_glide_XP_HBond>
-1.92405

> <i_i_glide_confnum>
1

> <i_i_glide_posenum>
5

> <r_i_glide_eff_state_penalty>
0.3306

> <i_glide_XP_PoseRank>
1

$$$$
BACE_102.smi:1
                    3D
 Structure written by MMmdl.
 84 88  0  0  1  0            999 V2000
   18.3749   47.4630  -13.7444 C   0  0  0  0  0  0
   17.8314   47.5732  -12.3382 C   0  0  0  0  0  0
   17.3637   46.4382  -11.6373 C   0  0  0  0  0  0
   16.8779   46.6213  -10.3221 C   0  0  0  0  0  0
   16.8599   47.9299   -9.8013 C   0  0  0  0  0  0
   17.3814   48.9908  -10.5664 C   0  0  0  0  0  0
   17.4908   50.2961  -10.0766 N   0  0  0  0  0  0
   17.4167   50.5523   -8.6453 C   0  0  0  0  0  0
   18.4816   49.8391   -7.8325 C   0  0  0  0  0  0
   18.2028   48.9793   -6.8388 C   0  0  0  0  0  0
   19.2361   48.3163   -5.9526 C   0  0  0  0  0  0
   20.2759   47.6946   -6.6953 O   0  0  0  0  0  0
   20.1469   46.3594   -7.0168 C   0  0  0  0  0  0
   18.9084   45.6699   -7.0668 C   0  0  0  0  0  0
   18.8669   44.2912   -7.3671 C   0  0  0  0  0  0
   17.5508   43.5295   -7.3646 C   0  0  0  0  0  0
   16.9672   43.1495   -8.7517 C   0  0  2  0  0  0
   16.9579   44.2892   -9.6832 N   0  0  0  0  0  0
   16.4004   45.4918   -9.4534 C   0  0  0  0  0  0
   15.6528   45.7257   -8.5024 O   0  0  0  0  0  0
   15.6512   42.2846   -8.7464 C   0  0  2  0  0  0
   14.4670   43.0619   -8.8058 O   0  0  0  0  0  0
   15.5160   41.2912   -7.5489 C   0  0  0  0  0  0
   14.8692   39.9965   -7.8719 N   0  3  0  0  0  0
   15.5791   39.1683   -8.8831 C   0  0  0  0  0  0
   14.8017   37.9400   -9.2824 C   0  0  0  0  0  0
   14.8596   39.1281  -10.2113 C   0  0  0  0  0  0
   17.0867   39.1655   -8.8004 C   0  0  0  0  0  0
   17.8584   39.7618   -9.8217 C   0  0  0  0  0  0
   19.2741   39.8015   -9.7659 C   0  0  0  0  0  0
   19.9083   39.2175   -8.6439 C   0  0  0  0  0  0
   19.1517   38.6207   -7.6171 C   0  0  0  0  0  0
   17.7474   38.5944   -7.6949 C   0  0  0  0  0  0
   20.1244   40.4294  -10.8928 C   0  0  0  0  0  0
   19.2613   41.0517  -12.0088 C   0  0  0  0  0  0
   21.0261   41.5494  -10.3441 C   0  0  0  0  0  0
   21.0139   39.3498  -11.5326 C   0  0  0  0  0  0
   20.0664   43.5934   -7.6008 C   0  0  0  0  0  0
   21.2955   44.2752   -7.5896 C   0  0  0  0  0  0
   21.3334   45.6524   -7.3044 C   0  0  0  0  0  0
   22.5257   46.2951   -7.2819 F   0  0  0  0  0  0
   17.8463   48.8162  -11.8142 N   0  0  0  0  0  0
   17.7261   42.4903   -9.1746 H   0  0  0  0  0  0
   15.6613   41.7317   -9.6839 H   0  0  0  0  0  0
   18.5614   48.4468  -14.1754 H   0  0  0  0  0  0
   17.6660   46.9523  -14.3893 H   0  0  0  0  0  0
   19.3168   46.9195  -13.7438 H   0  0  0  0  0  0
   17.3891   45.4630  -12.1004 H   0  0  0  0  0  0
   16.4756   48.0970   -8.8092 H   0  0  0  0  0  0
   18.0318   50.9308  -10.6460 H   0  0  0  0  0  0
   16.4247   50.2917   -8.2752 H   0  0  0  0  0  0
   17.5318   51.6261   -8.4930 H   0  0  0  0  0  0
   19.5107   50.0663   -8.0704 H   0  0  0  0  0  0
   17.1732   48.7681   -6.5914 H   0  0  0  0  0  0
   19.6859   49.0871   -5.3275 H   0  0  0  0  0  0
   18.7556   47.6250   -5.2592 H   0  0  0  0  0  0
   17.9795   46.1847   -6.8744 H   0  0  0  0  0  0
   16.8292   44.0852   -6.7762 H   0  0  0  0  0  0
   17.7739   42.6135   -6.8339 H   0  0  0  0  0  0
   17.5882   44.2294  -10.4684 H   0  0  0  0  0  0
   13.7162   42.4905   -8.8889 H   0  0  0  0  0  0
   14.9478   41.7497   -6.7438 H   0  0  0  0  0  0
   16.4780   41.0382   -7.1147 H   0  0  0  0  0  0
   13.9070   40.1499   -8.1518 H   0  0  0  0  0  0
   15.3651   37.0564   -9.5752 H   0  0  0  0  0  0
   13.8272   37.7508   -8.8363 H   0  0  0  0  0  0
   13.9460   39.7092  -10.3240 H   0  0  0  0  0  0
   15.4272   38.9748  -11.1245 H   0  0  0  0  0  0
   17.3308   40.1936  -10.6552 H   0  0  0  0  0  0
   20.9857   39.2165   -8.5648 H   0  0  0  0  0  0
   19.6498   38.1816   -6.7645 H   0  0  0  0  0  0
   17.1761   38.1485   -6.8946 H   0  0  0  0  0  0
   18.6009   40.3035  -12.4402 H   0  0  0  0  0  0
   19.8787   41.4457  -12.8168 H   0  0  0  0  0  0
   18.6456   41.8725  -11.6376 H   0  0  0  0  0  0
   21.6640   41.2131   -9.5269 H   0  0  0  0  0  0
   20.4295   42.3835   -9.9842 H   0  0  0  0  0  0
   21.6847   41.9414  -11.1204 H   0  0  0  0  0  0
   21.6966   38.9020  -10.8112 H   0  0  0  0  0  0
   21.6281   39.7565  -12.3378 H   0  0  0  0  0  0
   20.4070   38.5500  -11.9540 H   0  0  0  0  0  0
   20.0442   42.5293   -7.7814 H   0  0  0  0  0  0
   22.2130   43.7381   -7.7835 H   0  0  0  0  0  0
   14.8488   39.4659   -7.0093 H   0  0  0  0  0  0
  1  2  1  0  0  0
  1 45  1  0  0  0
  1 46  1  0  0  0
  1 47  1  0  0  0
  2 42  1  0  0  0
  2  3  2  0  0  0
  3  4  1  0  0  0
  3 48  1  0  0  0
  4 19  1  0  0  0
  4  5  2  0  0  0
  5  6  1  0  0  0
  5 49  1  0  0  0
  6  7  1  0  0  0
  6 42  2  0  0  0
  7  8  1  0  0  0
  7 50  1  0  0  0
  8  9  1  0  0  0
  8 51  1  0  0  0
  8 52  1  0  0  0
  9 10  2  0  0  0
  9 53  1  0  0  0
 10 11  1  0  0  0
 10 54  1  0  0  0
 11 12  1  0  0  0
 11 55  1  0  0  0
 11 56  1  0  0  0
 12 13  1  0  0  0
 13 40  1  0  0  0
 13 14  2  0  0  0
 14 15  1  0  0  0
 14 57  1  0  0  0
 15 16  1  0  0  0
 15 38  2  0  0  0
 16 17  1  0  0  0
 16 58  1  0  0  0
 16 59  1  0  0  0
 17 43  1  0  0  0
 17 18  1  0  0  0
 17 21  1  0  0  0
 18 19  1  0  0  0
 18 60  1  0  0  0
 19 20  2  0  0  0
 21 44  1  0  0  0
 21 22  1  0  0  0
 21 23  1  0  0  0
 22 61  1  0  0  0
 23 24  1  0  0  0
 23 62  1  0  0  0
 23 63  1  0  0  0
 24 25  1  0  0  0
 24 64  1  0  0  0
 24 84  1  0  0  0
 25 27  1  0  0  0
 25 26  1  0  0  0
 25 28  1  0  0  0
 26 27  1  0  0  0
 26 65  1  0  0  0
 26 66  1  0  0  0
 27 67  1  0  0  0
 27 68  1  0  0  0
 28 33  1  0  0  0
 28 29  2  0  0  0
 29 30  1  0  0  0
 29 69  1  0  0  0
 30 31  2  0  0  0
 30 34  1  0  0  0
 31 32  1  0  0  0
 31 70  1  0  0  0
 32 33  2  0  0  0
 32 71  1  0  0  0
 33 72  1  0  0  0
 34 35  1  0  0  0
 34 36  1  0  0  0
 34 37  1  0  0  0
 35 73  1  0  0  0
 35 74  1  0  0  0
 35 75  1  0  0  0
 36 76  1  0  0  0
 36 77  1  0  0  0
 36 78  1  0  0  0
 37 79  1  0  0  0
 37 80  1  0  0  0
 37 81  1  0  0  0
 38 39  1  0  0  0
 38 82  1  0  0  0
 39 40  2  0  0  0
 39 83  1  0  0  0
 40 41  1  0  0  0
M  CHG  1  24   1
M  END
> <s_m_source_file>
BACE_102.smi

> <i_m_source_file_index>
1

> <i_lp_mmshare_version>
42013

> <i_f3d_flags>
0

> <s_epik_input>
YzEyW2NIXWMoW0NIM10pbmMoW2NIXTEpW05IXVtDSDJdL1tDSF09W0NIXS9bQ0gyXU9jM1tjSF1jKFtjSF1bY0hdYzNGKVtDSDJdW0NASF0oW05IXUMyPU8pW0NASF0oW09IXSlbQ0gyXVtOSF1DNChbQ0gyXVtDSDJdNCljNVtjSF1jKEMoW0NIM10pKFtDSDNdKVtDSDNdKVtjSF1bY0hdW2NIXTU=

> <s_epik_cmdline>
J2VwaWtfcHl0aG9uJywgJy1waCcsICc3LjAnLCAnLXRuJywgJzgnLCAnLW1hJywgJzIwMCcsICctaW1hZScsICc8aW5maWxlLm1hZT4nLCAnLW9tYWUnLCAnPG91dGZpbGUubWFlPic=

> <r_lp_tautomer_probability>
1

> <r_epik_Ionization_Penalty>
  0.5324

> <r_epik_Ionization_Penalty_Charging>
  0.5273

> <r_epik_Ionization_Penalty_Neutral>
  0.0051

> <r_epik_State_Penalty>
  0.5141

> <r_epik_Charging_Adjusted_Penalty>
1.04141

> <i_epik_Tot_Q>
1

> <i_epik_Tot_abs_Q>
1

> <s_lp_Force_Field>
OPLS_2005

> <r_lp_Energy>
34.8963

> <b_lp_Chiralities_Consistent>
1

> <s_lp_Variant>
BACE_102.smi:1-2

> <chiral flag>
1

> <version>
0

> <s_i_glide_gridfile>
second_dock_grid_2

> <i_i_glide_lignum>
209

> <i_i_glide_rotatable_bonds>
7

> <r_i_docking_score>
-3.12012

> <r_i_glide_ligand_efficiency>
-0.0742886

> <r_i_glide_ligand_efficiency_sa>
-0.258229

> <r_i_glide_ligand_efficiency_ln>
-0.658577

> <r_glide_XP_GScore>
-3.63422

> <r_i_glide_gscore>
-3.63422

> <r_i_glide_evdw>
-41.4484

> <r_i_glide_ecoul>
-10.3965

> <r_i_glide_energy>
-51.8449

> <r_i_glide_einternal>
4.57142

> <r_i_glide_emodel>
-71.6376

> <r_glide_XP_HBond>
-0.929448

> <i_i_glide_confnum>
1

> <i_i_glide_posenum>
5

> <r_i_glide_eff_state_penalty>
0.5141

> <i_glide_XP_PoseRank>
1

$$$$
