BACE_1.smi:1
                    3D
 Structure written by MMmdl.
 87 88  0  0  1  0            999 V2000
   28.2450   42.1422  -12.4394 C   0  0  0  0  0  0
   27.2458   41.4113  -11.5405 C   0  0  0  0  0  0
   26.0723   42.3028  -11.1258 C   0  0  0  0  0  0
   25.1312   41.5958  -10.1295 C   0  0  0  0  0  0
   24.1884   42.5139   -9.5003 N   0  0  0  0  0  0
   24.5308   43.4871   -8.6385 C   0  0  0  0  0  0
   25.6999   43.7500   -8.3552 O   0  0  0  0  0  0
   23.3874   44.2658   -7.9770 C   0  0  2  0  0  0
   22.9531   45.4462   -8.8636 C   0  0  0  0  0  0
   23.8025   44.7268   -6.5535 C   0  0  0  0  0  0
   22.6653   45.2345   -5.6420 C   0  0  2  0  0  0
   23.2582   45.7213   -4.4468 O   0  0  0  0  0  0
   21.5517   44.2069   -5.2993 C   0  0  2  0  0  0
   22.0719   42.7907   -4.9432 C   0  0  0  0  0  0
   20.9891   41.8238   -4.4044 C   0  0  2  0  0  0
   20.6685   42.1321   -2.9283 C   0  0  0  0  0  0
   21.4068   40.3428   -4.5725 C   0  0  0  0  0  0
   21.2761   39.7553   -5.9991 C   0  0  0  0  0  0
   19.8258   39.4717   -6.4347 C   0  0  0  0  0  0
   19.6808   38.9484   -7.8766 C   0  0  0  0  0  0
   18.2125   38.7942   -8.3414 C   0  0  0  0  0  0
   17.4842   40.0746   -8.3110 N   0  0  0  0  0  0
   16.4994   40.2258   -7.2292 C   0  0  0  0  0  0
   15.0909   39.8249   -7.6872 C   0  0  0  0  0  0
   17.6645   41.0041   -9.2805 C   0  0  0  0  0  0
   18.0219   40.7266  -10.4260 O   0  0  0  0  0  0
   17.5891   42.4516   -8.8856 C   0  0  0  0  0  0
   16.8028   43.3658   -9.6142 C   0  0  0  0  0  0
   16.8414   44.7467   -9.3257 C   0  0  0  0  0  0
   17.6755   45.2124   -8.2747 C   0  0  0  0  0  0
   18.4878   44.3107   -7.5507 C   0  0  0  0  0  0
   18.4208   42.9353   -7.8554 C   0  0  0  0  0  0
   19.4024   44.7927   -6.4599 C   0  0  0  0  0  0
   19.1009   45.7483   -5.7420 O   0  0  0  0  0  0
   20.5565   44.1118   -6.3643 N   0  0  0  0  0  0
   16.0575   45.5663  -10.1066 O   0  0  0  0  0  0
   16.4586   46.9244  -10.2801 C   0  0  0  0  0  0
   17.7292   47.0301  -11.1421 C   0  0  0  0  0  0
   22.5598   43.5630   -7.8981 H   0  0  0  0  0  0
   22.1989   46.1075   -6.1010 H   0  0  0  0  0  0
   21.0131   44.5884   -4.4400 H   0  0  0  0  0  0
   20.0626   41.9698   -4.9596 H   0  0  0  0  0  0
   29.0224   41.4602  -12.7876 H   0  0  0  0  0  0
   28.7283   42.9603  -11.9061 H   0  0  0  0  0  0
   27.7499   42.5612  -13.3136 H   0  0  0  0  0  0
   26.8666   40.5212  -12.0385 H   0  0  0  0  0  0
   27.7633   41.0628  -10.6490 H   0  0  0  0  0  0
   26.4824   43.2147  -10.6944 H   0  0  0  0  0  0
   25.5075   42.6083  -12.0076 H   0  0  0  0  0  0
   24.5725   40.8138  -10.6427 H   0  0  0  0  0  0
   25.6985   41.0927   -9.3475 H   0  0  0  0  0  0
   23.2078   42.3651   -9.6927 H   0  0  0  0  0  0
   22.7101   45.1144   -9.8738 H   0  0  0  0  0  0
   23.7401   46.1963   -8.9393 H   0  0  0  0  0  0
   22.0644   45.9344   -8.4654 H   0  0  0  0  0  0
   24.3311   43.9171   -6.0435 H   0  0  0  0  0  0
   24.5418   45.5244   -6.6543 H   0  0  0  0  0  0
   23.8628   45.0698   -4.1047 H   0  0  0  0  0  0
   22.5311   42.3592   -5.8296 H   0  0  0  0  0  0
   22.8784   42.8721   -4.2120 H   0  0  0  0  0  0
   21.5412   41.9895   -2.2944 H   0  0  0  0  0  0
   19.8774   41.4815   -2.5578 H   0  0  0  0  0  0
   20.3226   43.1577   -2.7959 H   0  0  0  0  0  0
   22.4320   40.2246   -4.2234 H   0  0  0  0  0  0
   20.8001   39.7503   -3.8932 H   0  0  0  0  0  0
   21.7586   40.4134   -6.7199 H   0  0  0  0  0  0
   21.8330   38.8188   -6.0399 H   0  0  0  0  0  0
   19.3479   38.7741   -5.7476 H   0  0  0  0  0  0
   19.2611   40.3900   -6.3465 H   0  0  0  0  0  0
   20.2073   39.6146   -8.5593 H   0  0  0  0  0  0
   20.1811   37.9831   -7.9598 H   0  0  0  0  0  0
   18.1875   38.3798   -9.3508 H   0  0  0  0  0  0
   17.7050   38.0538   -7.7197 H   0  0  0  0  0  0
   16.7826   39.6037   -6.3786 H   0  0  0  0  0  0
   16.4657   41.2417   -6.8406 H   0  0  0  0  0  0
   14.3807   39.9323   -6.8681 H   0  0  0  0  0  0
   15.0641   38.7853   -8.0096 H   0  0  0  0  0  0
   14.7437   40.4474   -8.5083 H   0  0  0  0  0  0
   16.1846   43.0085  -10.4242 H   0  0  0  0  0  0
   17.7280   46.2598   -8.0187 H   0  0  0  0  0  0
   19.0348   42.2369   -7.3121 H   0  0  0  0  0  0
   20.6916   43.3674   -7.0297 H   0  0  0  0  0  0
   15.6483   47.4297  -10.8057 H   0  0  0  0  0  0
   16.5633   47.4606   -9.3343 H   0  0  0  0  0  0
   17.9929   48.0728  -11.3156 H   0  0  0  0  0  0
   17.5792   46.5570  -12.1132 H   0  0  0  0  0  0
   18.5810   46.5488  -10.6603 H   0  0  0  0  0  0
  1  2  1  0  0  0
  1 43  1  0  0  0
  1 44  1  0  0  0
  1 45  1  0  0  0
  2  3  1  0  0  0
  2 46  1  0  0  0
  2 47  1  0  0  0
  3  4  1  0  0  0
  3 48  1  0  0  0
  3 49  1  0  0  0
  4  5  1  0  0  0
  4 50  1  0  0  0
  4 51  1  0  0  0
  5  6  1  0  0  0
  5 52  1  0  0  0
  6  7  2  0  0  0
  6  8  1  0  0  0
  8 39  1  0  0  0
  8  9  1  0  0  0
  8 10  1  0  0  0
  9 53  1  0  0  0
  9 54  1  0  0  0
  9 55  1  0  0  0
 10 11  1  0  0  0
 10 56  1  0  0  0
 10 57  1  0  0  0
 11 40  1  0  0  0
 11 12  1  0  0  0
 11 13  1  0  0  0
 12 58  1  0  0  0
 13 41  1  0  0  0
 13 35  1  0  0  0
 13 14  1  0  0  0
 14 15  1  0  0  0
 14 59  1  0  0  0
 14 60  1  0  0  0
 15 42  1  0  0  0
 15 16  1  0  0  0
 15 17  1  0  0  0
 16 61  1  0  0  0
 16 62  1  0  0  0
 16 63  1  0  0  0
 17 18  1  0  0  0
 17 64  1  0  0  0
 17 65  1  0  0  0
 18 19  1  0  0  0
 18 66  1  0  0  0
 18 67  1  0  0  0
 19 20  1  0  0  0
 19 68  1  0  0  0
 19 69  1  0  0  0
 20 21  1  0  0  0
 20 70  1  0  0  0
 20 71  1  0  0  0
 21 22  1  0  0  0
 21 72  1  0  0  0
 21 73  1  0  0  0
 22 23  1  0  0  0
 22 25  1  0  0  0
 23 24  1  0  0  0
 23 74  1  0  0  0
 23 75  1  0  0  0
 24 76  1  0  0  0
 24 77  1  0  0  0
 24 78  1  0  0  0
 25 26  2  0  0  0
 25 27  1  0  0  0
 27 32  1  0  0  0
 27 28  2  0  0  0
 28 29  1  0  0  0
 28 79  1  0  0  0
 29 30  2  0  0  0
 29 36  1  0  0  0
 30 31  1  0  0  0
 30 80  1  0  0  0
 31 32  2  0  0  0
 31 33  1  0  0  0
 32 81  1  0  0  0
 33 34  2  0  0  0
 33 35  1  0  0  0
 35 82  1  0  0  0
 36 37  1  0  0  0
 37 38  1  0  0  0
 37 83  1  0  0  0
 37 84  1  0  0  0
 38 85  1  0  0  0
 38 86  1  0  0  0
 38 87  1  0  0  0
M  END
> <s_m_source_file>
BACE_1.smi

> <i_m_source_file_index>
1

> <i_lp_mmshare_version>
42013

> <i_f3d_flags>
0

> <s_epik_input>
W0NIM11bQ0gyXVtDSDJdW0NIMl1bTkhdQyg9TylbQ0BIXShbQ0gzXSlbQ0gyXVtDQEhdKFtPSF0pW0NAQEhdKFtOSF1DKD1PKWMoW2NIXTEpW2NIXWMoW2NIXWMxMilPW0NIMl1bQ0gzXSlbQ0gyXVtDQEhdKFtDSDNdKVtDSDJdW0NIMl1bQ0gyXVtDSDJdW0NIMl1OKEMyPU8pW0NIMl1bQ0gzXQ==

> <s_epik_cmdline>
J2VwaWtfcHl0aG9uJywgJy1waCcsICc3LjAnLCAnLXRuJywgJzgnLCAnLW1hJywgJzIwMCcsICctaW1hZScsICc8aW5maWxlLm1hZT4nLCAnLW9tYWUnLCAnPG91dGZpbGUubWFlPic=

> <r_lp_tautomer_probability>
1

> <r_epik_Ionization_Penalty>
  0.0000

> <r_epik_Ionization_Penalty_Charging>
  0.0000

> <r_epik_Ionization_Penalty_Neutral>
  0.0000

> <r_epik_State_Penalty>
 -0.0000

> <r_epik_Charging_Adjusted_Penalty>
0

> <i_epik_Tot_Q>
0

> <i_epik_Tot_abs_Q>
0

> <s_lp_Force_Field>
OPLS_2005

> <r_lp_Energy>
43.0824

> <b_lp_Chiralities_Consistent>
1

> <s_lp_Variant>
BACE_1.smi:1-1

> <chiral flag>
1

> <version>
0

> <s_i_glide_gridfile>
second_dock_grid_2

> <i_i_glide_lignum>
1

> <i_i_glide_rotatable_bonds>
12

> <r_i_docking_score>
-4.71042

> <r_i_glide_ligand_efficiency>
-0.123958

> <r_i_glide_ligand_efficiency_sa>
-0.416745

> <r_i_glide_ligand_efficiency_ln>
-1.0157

> <r_glide_XP_GScore>
-4.71042

> <r_i_glide_gscore>
-4.71042

> <r_i_glide_evdw>
-39.8352

> <r_i_glide_ecoul>
-12.1395

> <r_i_glide_energy>
-51.9747

> <r_i_glide_einternal>
9.60027

> <r_i_glide_emodel>
-67.7152

> <r_glide_XP_HBond>
-0.5543

> <i_i_glide_confnum>
1

> <i_i_glide_posenum>
4

> <r_i_glide_eff_state_penalty>
-0

> <i_glide_XP_PoseRank>
1

$$$$
BACE_4.smi:1
                    3D
 Structure written by MMmdl.
 89 91  0  0  1  0            999 V2000
   21.2763   44.9573   -5.2384 C   0  0  0  0  0  0
   22.5807   44.3463   -4.7344 C   0  0  2  0  0  0
   23.6938   44.5281   -5.7897 C   0  0  0  0  0  0
   23.5703   45.8369   -6.5930 C   0  0  0  0  0  0
   23.7085   47.1225   -5.7520 C   0  0  0  0  0  0
   23.4915   48.4253   -6.5541 C   0  0  0  0  0  0
   22.1075   48.5733   -7.2273 C   0  0  0  0  0  0
   20.9196   48.5478   -6.2430 C   0  0  0  0  0  0
   19.5354   48.6935   -6.9141 O   0  0  0  0  0  0
   19.0914   47.5037   -7.8101 C   0  0  0  0  0  0
   18.8914   46.1559   -7.1001 C   0  0  0  0  0  0
   18.6796   46.1112   -5.8994 O   0  0  0  0  0  0
   18.9392   45.0688   -7.8850 N   0  0  0  0  0  0
   19.1958   45.2692   -9.2969 C   0  0  0  0  0  0
   18.8600   43.6935   -7.3447 C   0  0  1  0  0  0
   18.1805   42.7989   -8.3774 C   0  0  0  0  0  0
   20.2701   43.1172   -7.0911 C   0  0  0  0  0  0
   21.1472   43.2032   -7.9348 O   0  0  0  0  0  0
   20.4507   42.5252   -5.8977 N   0  0  0  0  0  0
   21.7136   41.9552   -5.4124 C   0  0  1  0  0  0
   22.3238   42.8792   -4.3171 C   0  0  0  0  0  0
   21.5085   40.4706   -4.9757 C   0  0  2  0  0  0
   22.7336   39.9181   -4.5317 O   0  0  0  0  0  0
   20.9750   39.5397   -6.0867 C   0  0  0  0  0  0
   19.5159   39.4166   -6.0417 N   0  0  0  0  0  0
   18.8816   38.9237   -7.2740 C   0  0  0  0  0  0
   17.3728   38.9299   -7.3346 C   0  0  0  0  0  0
   18.1174   37.6237   -7.1954 C   0  0  0  0  0  0
   19.6399   39.2190   -8.5601 C   0  0  0  0  0  0
   19.1735   40.1938   -9.4726 C   0  0  0  0  0  0
   19.8713   40.4843  -10.6751 C   0  0  0  0  0  0
   21.0630   39.7645  -10.9376 C   0  0  0  0  0  0
   21.5401   38.7958  -10.0359 C   0  0  0  0  0  0
   20.8326   38.5252   -8.8522 C   0  0  0  0  0  0
   19.3795   41.5449  -11.6890 C   0  0  0  0  0  0
   19.9687   41.2456  -13.0872 C   0  0  0  0  0  0
   17.8353   41.5161  -11.7693 C   0  0  0  0  0  0
   19.7934   42.9902  -11.3153 C   0  0  0  0  0  0
   22.8396   44.9277   -3.8495 H   0  0  0  0  0  0
   18.2421   43.6331   -6.4488 H   0  0  0  0  0  0
   22.4030   41.9516   -6.2563 H   0  0  0  0  0  0
   20.8145   40.4181   -4.1357 H   0  0  0  0  0  0
   21.4055   46.0016   -5.5221 H   0  0  0  0  0  0
   20.4975   44.9363   -4.4769 H   0  0  0  0  0  0
   20.8964   44.4264   -6.1121 H   0  0  0  0  0  0
   24.6727   44.4617   -5.3149 H   0  0  0  0  0  0
   23.6600   43.7074   -6.5062 H   0  0  0  0  0  0
   22.6072   45.8247   -7.1033 H   0  0  0  0  0  0
   24.3219   45.8444   -7.3824 H   0  0  0  0  0  0
   23.0151   47.0985   -4.9113 H   0  0  0  0  0  0
   24.7015   47.1457   -5.3031 H   0  0  0  0  0  0
   24.2641   48.5022   -7.3191 H   0  0  0  0  0  0
   23.6552   49.2758   -5.8922 H   0  0  0  0  0  0
   22.0886   49.5134   -7.7786 H   0  0  0  0  0  0
   21.9872   47.7975   -7.9834 H   0  0  0  0  0  0
   21.0459   49.3569   -5.5236 H   0  0  0  0  0  0
   20.9366   47.6303   -5.6548 H   0  0  0  0  0  0
   19.7984   47.3810   -8.6305 H   0  0  0  0  0  0
   18.1386   47.7520   -8.2776 H   0  0  0  0  0  0
   19.0574   44.3701   -9.8944 H   0  0  0  0  0  0
   20.2162   45.6152   -9.4663 H   0  0  0  0  0  0
   18.5026   45.9953   -9.7236 H   0  0  0  0  0  0
   18.0733   41.7783   -8.0074 H   0  0  0  0  0  0
   18.7407   42.7521   -9.3118 H   0  0  0  0  0  0
   17.1789   43.1599   -8.6141 H   0  0  0  0  0  0
   19.6566   42.5048   -5.2740 H   0  0  0  0  0  0
   21.6580   42.8744   -3.4542 H   0  0  0  0  0  0
   23.2546   42.4385   -3.9598 H   0  0  0  0  0  0
   23.0054   40.3789   -3.7527 H   0  0  0  0  0  0
   21.4198   38.5517   -5.9617 H   0  0  0  0  0  0
   21.2991   39.8937   -7.0649 H   0  0  0  0  0  0
   19.0891   40.2906   -5.7516 H   0  0  0  0  0  0
   16.8340   39.2993   -6.4620 H   0  0  0  0  0  0
   16.9071   39.1456   -8.2963 H   0  0  0  0  0  0
   18.1496   36.9660   -8.0640 H   0  0  0  0  0  0
   18.0766   37.1197   -6.2298 H   0  0  0  0  0  0
   18.2636   40.7131   -9.2169 H   0  0  0  0  0  0
   21.6321   39.9466  -11.8369 H   0  0  0  0  0  0
   22.4520   38.2592  -10.2535 H   0  0  0  0  0  0
   21.2105   37.7798   -8.1674 H   0  0  0  0  0  0
   21.0594   41.2455  -13.0664 H   0  0  0  0  0  0
   19.6599   41.9926  -13.8197 H   0  0  0  0  0  0
   19.6510   40.2780  -13.4760 H   0  0  0  0  0  0
   17.3837   41.7115  -10.7957 H   0  0  0  0  0  0
   17.4529   40.5569  -12.1183 H   0  0  0  0  0  0
   17.4564   42.2721  -12.4584 H   0  0  0  0  0  0
   19.3835   43.2969  -10.3520 H   0  0  0  0  0  0
   19.4300   43.7101  -12.0500 H   0  0  0  0  0  0
   20.8773   43.1082  -11.2764 H   0  0  0  0  0  0
  1  2  1  0  0  0
  1 43  1  0  0  0
  1 44  1  0  0  0
  1 45  1  0  0  0
  2 39  1  0  0  0
  2 21  1  0  0  0
  2  3  1  0  0  0
  3  4  1  0  0  0
  3 46  1  0  0  0
  3 47  1  0  0  0
  4  5  1  0  0  0
  4 48  1  0  0  0
  4 49  1  0  0  0
  5  6  1  0  0  0
  5 50  1  0  0  0
  5 51  1  0  0  0
  6  7  1  0  0  0
  6 52  1  0  0  0
  6 53  1  0  0  0
  7  8  1  0  0  0
  7 54  1  0  0  0
  7 55  1  0  0  0
  8  9  1  0  0  0
  8 56  1  0  0  0
  8 57  1  0  0  0
  9 10  1  0  0  0
 10 11  1  0  0  0
 10 58  1  0  0  0
 10 59  1  0  0  0
 11 12  2  0  0  0
 11 13  1  0  0  0
 13 14  1  0  0  0
 13 15  1  0  0  0
 14 60  1  0  0  0
 14 61  1  0  0  0
 14 62  1  0  0  0
 15 40  1  0  0  0
 15 16  1  0  0  0
 15 17  1  0  0  0
 16 63  1  0  0  0
 16 64  1  0  0  0
 16 65  1  0  0  0
 17 18  2  0  0  0
 17 19  1  0  0  0
 19 20  1  0  0  0
 19 66  1  0  0  0
 20 41  1  0  0  0
 20 21  1  0  0  0
 20 22  1  0  0  0
 21 67  1  0  0  0
 21 68  1  0  0  0
 22 42  1  0  0  0
 22 23  1  0  0  0
 22 24  1  0  0  0
 23 69  1  0  0  0
 24 25  1  0  0  0
 24 70  1  0  0  0
 24 71  1  0  0  0
 25 26  1  0  0  0
 25 72  1  0  0  0
 26 28  1  0  0  0
 26 27  1  0  0  0
 26 29  1  0  0  0
 27 28  1  0  0  0
 27 73  1  0  0  0
 27 74  1  0  0  0
 28 75  1  0  0  0
 28 76  1  0  0  0
 29 34  1  0  0  0
 29 30  2  0  0  0
 30 31  1  0  0  0
 30 77  1  0  0  0
 31 32  2  0  0  0
 31 35  1  0  0  0
 32 33  1  0  0  0
 32 78  1  0  0  0
 33 34  2  0  0  0
 33 79  1  0  0  0
 34 80  1  0  0  0
 35 36  1  0  0  0
 35 37  1  0  0  0
 35 38  1  0  0  0
 36 81  1  0  0  0
 36 82  1  0  0  0
 36 83  1  0  0  0
 37 84  1  0  0  0
 37 85  1  0  0  0
 37 86  1  0  0  0
 38 87  1  0  0  0
 38 88  1  0  0  0
 38 89  1  0  0  0
M  END
> <s_m_source_file>
BACE_4.smi

> <i_m_source_file_index>
1

> <i_lp_mmshare_version>
42013

> <i_f3d_flags>
0

> <s_epik_input>
W0NIM11bQ0BASF0xW0NIMl1bQ0gyXVtDSDJdW0NIMl1bQ0gyXVtDSDJdT1tDSDJdQyg9TylOKFtDSDNdKVtDQEBIXShbQ0gzXSlDKD1PKVtOSF1bQ0BASF0oW0NIMl0xKVtDQEhdKFtPSF0pW0NIMl1bTkhdQzIoW0NIMl1bQ0gyXTIpYzNbY0hdYyhDKFtDSDNdKShbQ0gzXSlbQ0gzXSlbY0hdW2NIXVtjSF0z

> <s_epik_cmdline>
J2VwaWtfcHl0aG9uJywgJy1waCcsICc3LjAnLCAnLXRuJywgJzgnLCAnLW1hJywgJzIwMCcsICctaW1hZScsICc8aW5maWxlLm1hZT4nLCAnLW9tYWUnLCAnPG91dGZpbGUubWFlPic=

> <r_epik_Ionization_Penalty>
  0.3385

> <r_epik_Ionization_Penalty_Charging>
  0.0000

> <r_epik_Ionization_Penalty_Neutral>
  0.3385

> <r_epik_State_Penalty>
  0.3341

> <r_epik_Charging_Adjusted_Penalty>
0.334061

> <i_epik_Tot_Q>
0

> <i_epik_Tot_abs_Q>
0

> <s_lp_Force_Field>
OPLS_2005

> <r_lp_Energy>
58.0299

> <b_lp_Chiralities_Consistent>
1

> <s_lp_Variant>
BACE_4.smi:1-1

> <chiral flag>
1

> <version>
0

> <s_i_glide_gridfile>
second_dock_grid_2

> <i_i_glide_lignum>
2

> <i_i_glide_rotatable_bonds>
7

> <r_i_docking_score>
-3.75413

> <r_i_glide_ligand_efficiency>
-0.098793

> <r_i_glide_ligand_efficiency_sa>
-0.332139

> <r_i_glide_ligand_efficiency_ln>
-0.809501

> <r_glide_XP_GScore>
-4.08823

> <r_i_glide_gscore>
-4.08823

> <r_i_glide_evdw>
-34.3035

> <r_i_glide_ecoul>
-8.71538

> <r_i_glide_energy>
-43.0189

> <r_i_glide_einternal>
6.8403

> <r_i_glide_emodel>
-63.65

> <r_glide_XP_HBond>
-0.990889

> <i_i_glide_confnum>
1

> <i_i_glide_posenum>
2

> <r_i_glide_eff_state_penalty>
0.3341

> <i_glide_XP_PoseRank>
1

$$$$
BACE_4.smi:1
                    3D
 Structure written by MMmdl.
 90 92  0  0  1  0            999 V2000
   19.1332   39.8872  -11.0263 C   0  0  0  0  0  0
   20.1612   39.4652   -9.9492 C   0  0  2  0  0  0
   19.7331   38.1948   -9.1694 C   0  0  0  0  0  0
   18.2218   37.9343   -8.9769 C   0  0  0  0  0  0
   17.4829   38.9529   -8.0944 C   0  0  0  0  0  0
   15.9596   38.7465   -8.1525 C   0  0  0  0  0  0
   15.1493   39.7681   -7.3397 C   0  0  0  0  0  0
   15.2719   41.2094   -7.8554 C   0  0  0  0  0  0
   14.8294   41.2886   -9.2051 O   0  0  0  0  0  0
   14.7480   42.6100   -9.7262 C   0  0  0  0  0  0
   16.1059   43.0470  -10.3083 C   0  0  0  0  0  0
   16.4402   42.5461  -11.3858 O   0  0  0  0  0  0
   16.8742   43.9659   -9.6640 N   0  0  0  0  0  0
   16.4759   44.5579   -8.3737 C   0  0  0  0  0  0
   18.1741   44.3851  -10.2467 C   0  0  1  0  0  0
   18.2941   45.9261  -10.2891 C   0  0  0  0  0  0
   19.3515   43.7634   -9.4763 C   0  0  0  0  0  0
   19.7012   44.2168   -8.3856 O   0  0  0  0  0  0
   19.9579   42.7221  -10.0667 N   0  0  0  0  0  0
   21.0911   41.9619   -9.5395 C   0  0  1  0  0  0
   20.6336   40.5857   -8.9792 C   0  0  0  0  0  0
   22.2793   42.0188  -10.5446 C   0  0  2  0  0  0
   22.0599   41.1482  -11.6396 O   0  0  0  0  0  0
   23.6529   41.7048   -9.8950 C   0  0  0  0  0  0
   24.8023   41.7501  -10.8399 N   0  3  0  0  0  0
   25.4383   43.0398  -11.2543 C   0  0  0  0  0  0
   24.5785   43.7962  -12.2545 C   0  0  0  0  0  0
   24.7543   44.3360  -10.8485 C   0  0  0  0  0  0
   26.9333   42.9441  -11.5027 C   0  0  0  0  0  0
   27.6162   44.0130  -12.1326 C   0  0  0  0  0  0
   29.0014   43.9692  -12.4214 C   0  0  0  0  0  0
   29.7225   42.8123  -12.0496 C   0  0  0  0  0  0
   29.0706   41.7501  -11.4069 C   0  0  0  0  0  0
   27.6917   41.8074  -11.1360 C   0  0  0  0  0  0
   29.6691   45.1612  -13.1337 C   0  0  0  0  0  0
   29.4749   46.4453  -12.3019 C   0  0  0  0  0  0
   31.1886   44.9659  -13.3395 C   0  0  0  0  0  0
   29.0331   45.3504  -14.5247 C   0  0  0  0  0  0
   21.0527   39.1535  -10.4935 H   0  0  0  0  0  0
   18.2621   44.0700  -11.2878 H   0  0  0  0  0  0
   21.4507   42.5074   -8.6646 H   0  0  0  0  0  0
   22.2824   43.0336  -10.9330 H   0  0  0  0  0  0
   18.8430   39.0331  -11.6391 H   0  0  0  0  0  0
   19.5353   40.6288  -11.7141 H   0  0  0  0  0  0
   18.2276   40.3077  -10.5905 H   0  0  0  0  0  0
   20.1283   37.3499   -9.7256 H   0  0  0  0  0  0
   20.2350   38.1509   -8.2026 H   0  0  0  0  0  0
   18.0952   36.9465   -8.5314 H   0  0  0  0  0  0
   17.7361   37.8668   -9.9497 H   0  0  0  0  0  0
   17.8349   38.8760   -7.0643 H   0  0  0  0  0  0
   17.7173   39.9609   -8.4265 H   0  0  0  0  0  0
   15.7206   37.7500   -7.7844 H   0  0  0  0  0  0
   15.6232   38.7693   -9.1894 H   0  0  0  0  0  0
   14.0975   39.4772   -7.3575 H   0  0  0  0  0  0
   15.4534   39.7271   -6.2915 H   0  0  0  0  0  0
   16.2988   41.5613   -7.7627 H   0  0  0  0  0  0
   14.6507   41.8571   -7.2403 H   0  0  0  0  0  0
   14.3172   43.3075   -9.0097 H   0  0  0  0  0  0
   14.0397   42.5780  -10.5542 H   0  0  0  0  0  0
   17.2918   45.0819   -7.8789 H   0  0  0  0  0  0
   16.1426   43.8128   -7.6540 H   0  0  0  0  0  0
   15.6731   45.2790   -8.5190 H   0  0  0  0  0  0
   19.1929   46.2239  -10.8293 H   0  0  0  0  0  0
   18.3563   46.3837   -9.3024 H   0  0  0  0  0  0
   17.4451   46.3679  -10.8095 H   0  0  0  0  0  0
   19.5867   42.4013  -10.9501 H   0  0  0  0  0  0
   21.4557   40.1840   -8.3844 H   0  0  0  0  0  0
   19.8405   40.7763   -8.2564 H   0  0  0  0  0  0
   22.7143   41.2614  -12.3176 H   0  0  0  0  0  0
   23.6179   40.6905   -9.4938 H   0  0  0  0  0  0
   23.8497   42.3528   -9.0408 H   0  0  0  0  0  0
   24.5433   41.2477  -11.6875 H   0  0  0  0  0  0
   25.0578   44.3560  -13.0530 H   0  0  0  0  0  0
   23.6179   43.3799  -12.5429 H   0  0  0  0  0  0
   23.8832   44.3359  -10.2018 H   0  0  0  0  0  0
   25.3826   45.2161  -10.7333 H   0  0  0  0  0  0
   27.0691   44.8978  -12.4148 H   0  0  0  0  0  0
   30.7788   42.7075  -12.2456 H   0  0  0  0  0  0
   29.6309   40.8662  -11.1369 H   0  0  0  0  0  0
   27.2472   40.9523  -10.6503 H   0  0  0  0  0  0
   28.4243   46.7087  -12.1860 H   0  0  0  0  0  0
   29.9660   47.2986  -12.7710 H   0  0  0  0  0  0
   29.8969   46.3362  -11.3031 H   0  0  0  0  0  0
   31.4064   44.0963  -13.9599 H   0  0  0  0  0  0
   31.7113   44.8463  -12.3902 H   0  0  0  0  0  0
   31.6324   45.8288  -13.8369 H   0  0  0  0  0  0
   29.1582   44.4577  -15.1368 H   0  0  0  0  0  0
   29.4892   46.1832  -15.0606 H   0  0  0  0  0  0
   27.9641   45.5566  -14.4629 H   0  0  0  0  0  0
   25.5326   41.2145  -10.3952 H   0  0  0  0  0  0
  1  2  1  0  0  0
  1 43  1  0  0  0
  1 44  1  0  0  0
  1 45  1  0  0  0
  2 39  1  0  0  0
  2 21  1  0  0  0
  2  3  1  0  0  0
  3  4  1  0  0  0
  3 46  1  0  0  0
  3 47  1  0  0  0
  4  5  1  0  0  0
  4 48  1  0  0  0
  4 49  1  0  0  0
  5  6  1  0  0  0
  5 50  1  0  0  0
  5 51  1  0  0  0
  6  7  1  0  0  0
  6 52  1  0  0  0
  6 53  1  0  0  0
  7  8  1  0  0  0
  7 54  1  0  0  0
  7 55  1  0  0  0
  8  9  1  0  0  0
  8 56  1  0  0  0
  8 57  1  0  0  0
  9 10  1  0  0  0
 10 11  1  0  0  0
 10 58  1  0  0  0
 10 59  1  0  0  0
 11 12  2  0  0  0
 11 13  1  0  0  0
 13 14  1  0  0  0
 13 15  1  0  0  0
 14 60  1  0  0  0
 14 61  1  0  0  0
 14 62  1  0  0  0
 15 40  1  0  0  0
 15 16  1  0  0  0
 15 17  1  0  0  0
 16 63  1  0  0  0
 16 64  1  0  0  0
 16 65  1  0  0  0
 17 18  2  0  0  0
 17 19  1  0  0  0
 19 20  1  0  0  0
 19 66  1  0  0  0
 20 41  1  0  0  0
 20 21  1  0  0  0
 20 22  1  0  0  0
 21 67  1  0  0  0
 21 68  1  0  0  0
 22 42  1  0  0  0
 22 23  1  0  0  0
 22 24  1  0  0  0
 23 69  1  0  0  0
 24 25  1  0  0  0
 24 70  1  0  0  0
 24 71  1  0  0  0
 25 26  1  0  0  0
 25 72  1  0  0  0
 25 90  1  0  0  0
 26 28  1  0  0  0
 26 27  1  0  0  0
 26 29  1  0  0  0
 27 28  1  0  0  0
 27 73  1  0  0  0
 27 74  1  0  0  0
 28 75  1  0  0  0
 28 76  1  0  0  0
 29 34  1  0  0  0
 29 30  2  0  0  0
 30 31  1  0  0  0
 30 77  1  0  0  0
 31 32  2  0  0  0
 31 35  1  0  0  0
 32 33  1  0  0  0
 32 78  1  0  0  0
 33 34  2  0  0  0
 33 79  1  0  0  0
 34 80  1  0  0  0
 35 36  1  0  0  0
 35 37  1  0  0  0
 35 38  1  0  0  0
 36 81  1  0  0  0
 36 82  1  0  0  0
 36 83  1  0  0  0
 37 84  1  0  0  0
 37 85  1  0  0  0
 37 86  1  0  0  0
 38 87  1  0  0  0
 38 88  1  0  0  0
 38 89  1  0  0  0
M  CHG  1  25   1
M  END
> <s_m_source_file>
BACE_4.smi

> <i_m_source_file_index>
1

> <i_lp_mmshare_version>
42013

> <i_f3d_flags>
0

> <s_epik_input>
W0NIM11bQ0BASF0xW0NIMl1bQ0gyXVtDSDJdW0NIMl1bQ0gyXVtDSDJdT1tDSDJdQyg9TylOKFtDSDNdKVtDQEBIXShbQ0gzXSlDKD1PKVtOSF1bQ0BASF0oW0NIMl0xKVtDQEhdKFtPSF0pW0NIMl1bTkhdQzIoW0NIMl1bQ0gyXTIpYzNbY0hdYyhDKFtDSDNdKShbQ0gzXSlbQ0gzXSlbY0hdW2NIXVtjSF0z

> <s_epik_cmdline>
J2VwaWtfcHl0aG9uJywgJy1waCcsICc3LjAnLCAnLXRuJywgJzgnLCAnLW1hJywgJzIwMCcsICctaW1hZScsICc8aW5maWxlLm1hZT4nLCAnLW9tYWUnLCAnPG91dGZpbGUubWFlPic=

> <r_epik_Ionization_Penalty>
  0.4928

> <r_epik_Ionization_Penalty_Charging>
  0.4928

> <r_epik_Ionization_Penalty_Neutral>
  0.0000

> <r_epik_State_Penalty>
  0.4987

> <r_epik_Charging_Adjusted_Penalty>
0.991533

> <i_epik_Tot_Q>
1

> <i_epik_Tot_abs_Q>
1

> <s_lp_Force_Field>
OPLS_2005

> <r_lp_Energy>
50.5975

> <b_lp_Chiralities_Consistent>
1

> <s_lp_Variant>
BACE_4.smi:1-2

> <chiral flag>
1

> <version>
0

> <s_i_glide_gridfile>
second_dock_grid_2

> <i_i_glide_lignum>
3

> <i_i_glide_rotatable_bonds>
7

> <r_i_docking_score>
-4.45366

> <r_i_glide_ligand_efficiency>
-0.117202

> <r_i_glide_ligand_efficiency_sa>
-0.394029

> <r_i_glide_ligand_efficiency_ln>
-0.96034

> <r_glide_XP_GScore>
-4.95236

> <r_i_glide_gscore>
-4.95236

> <r_i_glide_evdw>
-33.0926

> <r_i_glide_ecoul>
-13.2659

> <r_i_glide_energy>
-46.3585

> <r_i_glide_einternal>
5.77999

> <r_i_glide_emodel>
-62.7775

> <r_glide_XP_HBond>
-1.03231

> <i_i_glide_confnum>
1

> <i_i_glide_posenum>
5

> <r_i_glide_eff_state_penalty>
0.4987

> <i_glide_XP_PoseRank>
1

$$$$
BACE_5.smi:1
                    3D
 Structure written by MMmdl.
 80 81  0  0  1  0            999 V2000
   21.4612   42.6826   -2.4253 C   0  0  0  0  0  0
   22.1544   43.3489   -3.6221 C   0  0  0  0  0  0
   22.9191   42.3816   -4.5438 C   0  0  0  0  0  0
   22.0527   41.4113   -5.2853 C   0  0  0  0  0  0
   21.0835   40.5500   -4.8578 C   0  0  0  0  0  0
   20.6125   39.9225   -6.0420 C   0  0  0  0  0  0
   19.5111   38.9119   -6.1528 C   0  0  0  0  0  0
   18.7180   39.1119   -7.3698 N   0  3  0  0  0  0
   17.6014   38.1568   -7.5047 C   0  0  0  0  0  0
   17.0228   38.1487   -8.9323 C   0  0  1  0  0  0
   16.0618   37.1116   -8.9727 O   0  0  0  0  0  0
   16.4544   39.5350   -9.3705 C   0  0  2  0  0  0
   14.9693   39.5413   -9.7988 C   0  0  0  0  0  0
   14.3338   40.9101  -10.1694 C   0  0  2  0  0  0
   14.6623   41.3745  -11.6018 C   0  0  0  0  0  0
   14.5958   42.0193   -9.1308 C   0  0  0  0  0  0
   13.6969   43.2497   -9.3491 C   0  0  0  0  0  0
   13.8227   44.3308   -8.2671 C   0  0  0  0  0  0
   15.2047   45.0109   -8.1744 C   0  0  0  0  0  0
   15.6692   45.7205   -9.4657 C   0  0  0  0  0  0
   16.9001   45.0680  -10.1087 C   0  0  0  0  0  0
   17.1308   45.6490  -11.3889 O   0  0  0  0  0  0
   18.3483   45.2663  -12.0368 C   0  0  0  0  0  0
   18.3692   43.7516  -12.3427 C   0  0  0  0  0  0
   17.6243   43.3500  -13.2398 O   0  0  0  0  0  0
   19.1405   42.9122  -11.6025 N   0  0  0  0  0  0
   20.1799   43.4308  -10.6972 C   0  0  0  0  0  0
   18.9123   41.4457  -11.6397 C   0  0  1  0  0  0
   20.2080   40.6705  -11.9562 C   0  0  0  0  0  0
   18.2733   40.9469  -10.3299 C   0  0  0  0  0  0
   18.6584   41.3499   -9.2329 O   0  0  0  0  0  0
   17.2772   40.0595  -10.4576 N   0  0  0  0  0  0
   21.2730   40.3143   -7.1234 N   0  0  0  0  0  0
   22.1457   41.2241   -6.6479 N   0  0  0  0  0  0
   17.8100   37.8378   -9.6228 H   0  0  0  0  0  0
   16.5157   40.2091   -8.5142 H   0  0  0  0  0  0
   13.2611   40.7247  -10.1441 H   0  0  0  0  0  0
   18.2184   41.1874  -12.4401 H   0  0  0  0  0  0
   21.2977   43.3971   -1.6195 H   0  0  0  0  0  0
   22.0589   41.8593   -2.0394 H   0  0  0  0  0  0
   20.4808   42.2938   -2.7011 H   0  0  0  0  0  0
   22.8598   44.0792   -3.2306 H   0  0  0  0  0  0
   21.4260   43.9168   -4.2004 H   0  0  0  0  0  0
   23.6545   41.8294   -3.9574 H   0  0  0  0  0  0
   23.4957   42.9665   -5.2599 H   0  0  0  0  0  0
   20.7354   40.3966   -3.8463 H   0  0  0  0  0  0
   18.8561   38.9576   -5.2793 H   0  0  0  0  0  0
   19.9393   37.9132   -6.1947 H   0  0  0  0  0  0
   19.3519   39.0268   -8.1513 H   0  0  0  0  0  0
   16.8322   38.4098   -6.7739 H   0  0  0  0  0  0
   17.9657   37.1565   -7.2593 H   0  0  0  0  0  0
   15.6725   37.0219   -8.1104 H   0  0  0  0  0  0
   14.8597   38.8543  -10.6340 H   0  0  0  0  0  0
   14.3787   39.1191   -8.9842 H   0  0  0  0  0  0
   13.9230   42.0693  -12.0065 H   0  0  0  0  0  0
   14.6913   40.5377  -12.2899 H   0  0  0  0  0  0
   15.6320   41.8676  -11.6400 H   0  0  0  0  0  0
   14.4394   41.6245   -8.1257 H   0  0  0  0  0  0
   15.6434   42.3125   -9.1642 H   0  0  0  0  0  0
   12.6577   42.9252   -9.3808 H   0  0  0  0  0  0
   13.8954   43.6851  -10.3259 H   0  0  0  0  0  0
   13.0561   45.0823   -8.4402 H   0  0  0  0  0  0
   13.5647   43.8859   -7.3076 H   0  0  0  0  0  0
   15.9511   44.2859   -7.8498 H   0  0  0  0  0  0
   15.1627   45.7440   -7.3709 H   0  0  0  0  0  0
   14.8610   45.7499  -10.1959 H   0  0  0  0  0  0
   15.8992   46.7624   -9.2440 H   0  0  0  0  0  0
   16.7326   43.9964  -10.2093 H   0  0  0  0  0  0
   17.7675   45.2109   -9.4622 H   0  0  0  0  0  0
   19.2003   45.6233  -11.4591 H   0  0  0  0  0  0
   18.3971   45.8008  -12.9876 H   0  0  0  0  0  0
   20.7588   42.6480  -10.2097 H   0  0  0  0  0  0
   19.7436   44.0259   -9.8952 H   0  0  0  0  0  0
   20.8970   44.0471  -11.2423 H   0  0  0  0  0  0
   19.9846   39.6225  -12.1638 H   0  0  0  0  0  0
   20.9230   40.6763  -11.1329 H   0  0  0  0  0  0
   20.7054   41.0727  -12.8387 H   0  0  0  0  0  0
   17.0401   39.7515  -11.3889 H   0  0  0  0  0  0
   22.7932   41.7052   -7.2583 H   0  0  0  0  0  0
   18.3657   40.0605   -7.3722 H   0  0  0  0  0  0
  1  2  1  0  0  0
  1 39  1  0  0  0
  1 40  1  0  0  0
  1 41  1  0  0  0
  2  3  1  0  0  0
  2 42  1  0  0  0
  2 43  1  0  0  0
  3  4  1  0  0  0
  3 44  1  0  0  0
  3 45  1  0  0  0
  4 34  1  0  0  0
  4  5  2  0  0  0
  5  6  1  0  0  0
  5 46  1  0  0  0
  6  7  1  0  0  0
  6 33  2  0  0  0
  7  8  1  0  0  0
  7 47  1  0  0  0
  7 48  1  0  0  0
  8  9  1  0  0  0
  8 49  1  0  0  0
  8 80  1  0  0  0
  9 10  1  0  0  0
  9 50  1  0  0  0
  9 51  1  0  0  0
 10 35  1  0  0  0
 10 11  1  0  0  0
 10 12  1  0  0  0
 11 52  1  0  0  0
 12 36  1  0  0  0
 12 32  1  0  0  0
 12 13  1  0  0  0
 13 14  1  0  0  0
 13 53  1  0  0  0
 13 54  1  0  0  0
 14 37  1  0  0  0
 14 15  1  0  0  0
 14 16  1  0  0  0
 15 55  1  0  0  0
 15 56  1  0  0  0
 15 57  1  0  0  0
 16 17  1  0  0  0
 16 58  1  0  0  0
 16 59  1  0  0  0
 17 18  1  0  0  0
 17 60  1  0  0  0
 17 61  1  0  0  0
 18 19  1  0  0  0
 18 62  1  0  0  0
 18 63  1  0  0  0
 19 20  1  0  0  0
 19 64  1  0  0  0
 19 65  1  0  0  0
 20 21  1  0  0  0
 20 66  1  0  0  0
 20 67  1  0  0  0
 21 22  1  0  0  0
 21 68  1  0  0  0
 21 69  1  0  0  0
 22 23  1  0  0  0
 23 24  1  0  0  0
 23 70  1  0  0  0
 23 71  1  0  0  0
 24 25  2  0  0  0
 24 26  1  0  0  0
 26 27  1  0  0  0
 26 28  1  0  0  0
 27 72  1  0  0  0
 27 73  1  0  0  0
 27 74  1  0  0  0
 28 38  1  0  0  0
 28 29  1  0  0  0
 28 30  1  0  0  0
 29 75  1  0  0  0
 29 76  1  0  0  0
 29 77  1  0  0  0
 30 31  2  0  0  0
 30 32  1  0  0  0
 32 78  1  0  0  0
 33 34  1  0  0  0
 34 79  1  0  0  0
M  CHG  1   8   1
M  END
> <s_m_source_file>
BACE_5.smi

> <i_m_source_file_index>
1

> <i_lp_mmshare_version>
42013

> <i_f3d_flags>
0

> <s_epik_input>
W0NIM11bQ0gyXVtDSDJdYzFbY0hdYyhuW25IXTEpW0NIMl1bTkhdW0NIMl1bQ0BASF0oW09IXSlbQ0BASF0yW0NIMl1bQ0BIXShbQ0gzXSlbQ0gyXVtDSDJdW0NIMl1bQ0gyXVtDSDJdW0NIMl1PW0NIMl1DKD1PKU4oW0NIM10pW0NAQEhdKFtDSDNdKUMoPU8pW05IXTI=

> <s_epik_cmdline>
J2VwaWtfcHl0aG9uJywgJy1waCcsICc3LjAnLCAnLXRuJywgJzgnLCAnLW1hJywgJzIwMCcsICctaW1hZScsICc8aW5maWxlLm1hZT4nLCAnLW9tYWUnLCAnPG91dGZpbGUubWFlPic=

> <r_lp_tautomer_probability>
0.5

> <r_epik_Ionization_Penalty>
  0.0566

> <r_epik_Ionization_Penalty_Charging>
  0.0566

> <r_epik_Ionization_Penalty_Neutral>
  0.0000

> <r_epik_State_Penalty>
  0.4228

> <r_epik_Charging_Adjusted_Penalty>
0.479388

> <i_epik_Tot_Q>
1

> <i_epik_Tot_abs_Q>
1

> <s_lp_Force_Field>
OPLS_2005

> <r_lp_Energy>
33.693

> <b_lp_Chiralities_Consistent>
1

> <s_lp_Variant>
BACE_5.smi:1-1

> <chiral flag>
1

> <version>
0

> <s_i_glide_gridfile>
second_dock_grid_2

> <i_i_glide_lignum>
4

> <i_i_glide_rotatable_bonds>
8

> <r_i_docking_score>
-5.40885

> <r_i_glide_ligand_efficiency>
-0.159084

> <r_i_glide_ligand_efficiency_sa>
-0.51537

> <r_i_glide_ligand_efficiency_ln>
-1.19497

> <r_glide_XP_GScore>
-5.83165

> <r_i_glide_gscore>
-5.83165

> <r_i_glide_evdw>
-38.7552

> <r_i_glide_ecoul>
-10.8836

> <r_i_glide_energy>
-49.6388

> <r_i_glide_einternal>
10.306

> <r_i_glide_emodel>
-61.3123

> <r_glide_XP_HBond>
-2.08544

> <i_i_glide_confnum>
1

> <i_i_glide_posenum>
1

> <r_i_glide_eff_state_penalty>
0.4228

> <i_glide_XP_PoseRank>
1

$$$$
BACE_5.smi:1
                    3D
 Structure written by MMmdl.
 80 81  0  0  1  0            999 V2000
   15.6647   45.6938   -9.0747 C   0  0  0  0  0  0
   17.0835   45.1128   -9.1162 C   0  0  0  0  0  0
   17.1456   43.7381   -9.8037 C   0  0  0  0  0  0
   16.2939   42.7077   -9.1109 C   0  0  0  0  0  0
   16.6845   41.7846   -8.0953 C   0  0  0  0  0  0
   15.5456   41.0808   -7.8180 C   0  0  0  0  0  0
   15.2782   39.9737   -6.8521 C   0  0  0  0  0  0
   16.3816   38.9922   -6.8409 N   0  3  0  0  0  0
   16.7297   38.4491   -8.1715 C   0  0  0  0  0  0
   18.0563   37.6601   -8.1307 C   0  0  1  0  0  0
   18.0808   36.7813   -9.2415 O   0  0  0  0  0  0
   19.2925   38.5548   -8.1319 C   0  0  2  0  0  0
   19.4616   39.1755   -6.7277 C   0  0  0  0  0  0
   20.6747   40.1190   -6.5859 C   0  0  2  0  0  0
   21.9295   39.4125   -7.0909 C   0  0  0  0  0  0
   20.9145   40.6078   -5.1441 C   0  0  0  0  0  0
   22.0739   41.6193   -5.0396 C   0  0  0  0  0  0
   21.6990   43.0371   -5.5224 C   0  0  0  0  0  0
   22.8989   43.9939   -5.6887 C   0  0  0  0  0  0
   23.9136   43.6092   -6.7929 C   0  0  0  0  0  0
   23.3146   43.3287   -8.1889 C   0  0  0  0  0  0
   22.5860   44.5340   -8.8234 O   0  0  0  0  0  0
   21.9172   44.2196  -10.1859 C   0  0  0  0  0  0
   20.7122   43.2731  -10.1009 C   0  0  0  0  0  0
   19.8400   43.4752   -9.2721 O   0  0  0  0  0  0
   20.6853   42.2554  -10.9750 N   0  0  0  0  0  0
   21.7923   42.1330  -11.9019 C   0  0  0  0  0  0
   19.6486   41.2004  -10.9274 C   0  0  1  0  0  0
   19.4789   40.6134  -12.3257 C   0  0  0  0  0  0
   20.0668   40.0465   -9.9885 C   0  0  0  0  0  0
   21.1918   39.5760  -10.0272 O   0  0  0  0  0  0
   19.1184   39.5842   -9.1616 N   0  0  0  0  0  0
   14.5703   41.5919   -8.6438 N   0  0  0  0  0  0
   15.0144   42.5845   -9.4376 N   0  0  0  0  0  0
   18.0549   37.0526   -7.2246 H   0  0  0  0  0  0
   20.1322   37.8949   -8.3500 H   0  0  0  0  0  0
   20.5323   40.9772   -7.2426 H   0  0  0  0  0  0
   18.6722   41.5987  -10.6516 H   0  0  0  0  0  0
   15.6594   46.6666   -8.5826 H   0  0  0  0  0  0
   14.9854   45.0415   -8.5252 H   0  0  0  0  0  0
   15.2623   45.8292  -10.0790 H   0  0  0  0  0  0
   17.4639   45.0356   -8.0969 H   0  0  0  0  0  0
   17.7376   45.8128   -9.6375 H   0  0  0  0  0  0
   18.1802   43.3941   -9.8334 H   0  0  0  0  0  0
   16.8341   43.8355  -10.8447 H   0  0  0  0  0  0
   17.6557   41.6592   -7.6395 H   0  0  0  0  0  0
   14.3458   39.4708   -7.1126 H   0  0  0  0  0  0
   15.1485   40.3844   -5.8500 H   0  0  0  0  0  0
   16.1182   38.2232   -6.2415 H   0  0  0  0  0  0
   16.8206   39.2895   -8.8610 H   0  0  0  0  0  0
   15.9131   37.8242   -8.5354 H   0  0  0  0  0  0
   17.9621   37.2900  -10.0289 H   0  0  0  0  0  0
   18.5500   39.7063   -6.4531 H   0  0  0  0  0  0
   19.5543   38.3631   -6.0069 H   0  0  0  0  0  0
   22.8102   40.0488   -7.0063 H   0  0  0  0  0  0
   21.8448   39.1372   -8.1416 H   0  0  0  0  0  0
   22.1303   38.5006   -6.5273 H   0  0  0  0  0  0
   20.0041   41.0447   -4.7336 H   0  0  0  0  0  0
   21.1394   39.7455   -4.5166 H   0  0  0  0  0  0
   22.9276   41.2346   -5.5975 H   0  0  0  0  0  0
   22.4065   41.6821   -4.0035 H   0  0  0  0  0  0
   21.1484   42.9926   -6.4620 H   0  0  0  0  0  0
   20.9978   43.4715   -4.8098 H   0  0  0  0  0  0
   23.4237   44.0822   -4.7374 H   0  0  0  0  0  0
   22.5174   44.9941   -5.8943 H   0  0  0  0  0  0
   24.6596   44.3997   -6.8762 H   0  0  0  0  0  0
   24.4710   42.7291   -6.4724 H   0  0  0  0  0  0
   22.6441   42.4717   -8.1258 H   0  0  0  0  0  0
   24.1167   43.0123   -8.8558 H   0  0  0  0  0  0
   22.6640   43.8299  -10.8777 H   0  0  0  0  0  0
   21.5558   45.1439  -10.6364 H   0  0  0  0  0  0
   21.6251   41.3920  -12.6812 H   0  0  0  0  0  0
   22.7107   41.8545  -11.3836 H   0  0  0  0  0  0
   21.9609   43.0673  -12.4389 H   0  0  0  0  0  0
   18.6998   39.8501  -12.3424 H   0  0  0  0  0  0
   20.3972   40.1530  -12.6917 H   0  0  0  0  0  0
   19.1892   41.3815  -13.0435 H   0  0  0  0  0  0
   18.2104   40.0230   -9.2174 H   0  0  0  0  0  0
   13.6111   41.2771   -8.6756 H   0  0  0  0  0  0
   17.2011   39.4372   -6.4532 H   0  0  0  0  0  0
  1  2  1  0  0  0
  1 39  1  0  0  0
  1 40  1  0  0  0
  1 41  1  0  0  0
  2  3  1  0  0  0
  2 42  1  0  0  0
  2 43  1  0  0  0
  3 44  1  0  0  0
  3 45  1  0  0  0
  3  4  1  0  0  0
  4 34  2  0  0  0
  4  5  1  0  0  0
  5  6  2  0  0  0
  5 46  1  0  0  0
  6 33  1  0  0  0
  6  7  1  0  0  0
  7  8  1  0  0  0
  7 47  1  0  0  0
  7 48  1  0  0  0
  8  9  1  0  0  0
  8 49  1  0  0  0
  8 80  1  0  0  0
  9 10  1  0  0  0
  9 50  1  0  0  0
  9 51  1  0  0  0
 10 35  1  0  0  0
 10 11  1  0  0  0
 10 12  1  0  0  0
 11 52  1  0  0  0
 12 36  1  0  0  0
 12 32  1  0  0  0
 12 13  1  0  0  0
 13 14  1  0  0  0
 13 53  1  0  0  0
 13 54  1  0  0  0
 14 37  1  0  0  0
 14 15  1  0  0  0
 14 16  1  0  0  0
 15 55  1  0  0  0
 15 56  1  0  0  0
 15 57  1  0  0  0
 16 17  1  0  0  0
 16 58  1  0  0  0
 16 59  1  0  0  0
 17 18  1  0  0  0
 17 60  1  0  0  0
 17 61  1  0  0  0
 18 19  1  0  0  0
 18 62  1  0  0  0
 18 63  1  0  0  0
 19 20  1  0  0  0
 19 64  1  0  0  0
 19 65  1  0  0  0
 20 21  1  0  0  0
 20 66  1  0  0  0
 20 67  1  0  0  0
 21 22  1  0  0  0
 21 68  1  0  0  0
 21 69  1  0  0  0
 22 23  1  0  0  0
 23 24  1  0  0  0
 23 70  1  0  0  0
 23 71  1  0  0  0
 24 25  2  0  0  0
 24 26  1  0  0  0
 26 27  1  0  0  0
 26 28  1  0  0  0
 27 72  1  0  0  0
 27 73  1  0  0  0
 27 74  1  0  0  0
 28 38  1  0  0  0
 28 29  1  0  0  0
 28 30  1  0  0  0
 29 75  1  0  0  0
 29 76  1  0  0  0
 29 77  1  0  0  0
 30 31  2  0  0  0
 30 32  1  0  0  0
 32 78  1  0  0  0
 33 34  1  0  0  0
 33 79  1  0  0  0
M  CHG  1   8   1
M  END
> <s_m_source_file>
BACE_5.smi

> <i_m_source_file_index>
1

> <i_lp_mmshare_version>
42013

> <i_f3d_flags>
0

> <s_epik_input>
W0NIM11bQ0gyXVtDSDJdYzFbY0hdYyhuW25IXTEpW0NIMl1bTkhdW0NIMl1bQ0BASF0oW09IXSlbQ0BASF0yW0NIMl1bQ0BIXShbQ0gzXSlbQ0gyXVtDSDJdW0NIMl1bQ0gyXVtDSDJdW0NIMl1PW0NIMl1DKD1PKU4oW0NIM10pW0NAQEhdKFtDSDNdKUMoPU8pW05IXTI=

> <s_epik_cmdline>
J2VwaWtfcHl0aG9uJywgJy1waCcsICc3LjAnLCAnLXRuJywgJzgnLCAnLW1hJywgJzIwMCcsICctaW1hZScsICc8aW5maWxlLm1hZT4nLCAnLW9tYWUnLCAnPG91dGZpbGUubWFlPic=

> <r_lp_tautomer_probability>
0.5

> <r_epik_Ionization_Penalty>
  0.1240

> <r_epik_Ionization_Penalty_Charging>
  0.1240

> <r_epik_Ionization_Penalty_Neutral>
  0.0000

> <r_epik_State_Penalty>
  0.5558

> <r_epik_Charging_Adjusted_Penalty>
0.67982

> <i_epik_Tot_Q>
1

> <i_epik_Tot_abs_Q>
1

> <s_lp_Force_Field>
OPLS_2005

> <r_lp_Energy>
33.614

> <b_lp_Chiralities_Consistent>
1

> <s_lp_Variant>
BACE_5.smi:1-2

> <chiral flag>
1

> <version>
0

> <s_i_glide_gridfile>
second_dock_grid_2

> <i_i_glide_lignum>
5

> <i_i_glide_rotatable_bonds>
8

> <r_i_docking_score>
-6.06025

> <r_i_glide_ligand_efficiency>
-0.178243

> <r_i_glide_ligand_efficiency_sa>
-0.577437

> <r_i_glide_ligand_efficiency_ln>
-1.33888

> <r_glide_XP_GScore>
-6.61605

> <r_i_glide_gscore>
-6.61605

> <r_i_glide_evdw>
-31.1348

> <r_i_glide_ecoul>
-16.1354

> <r_i_glide_energy>
-47.2702

> <r_i_glide_einternal>
6.39306

> <r_i_glide_emodel>
-65.4286

> <r_glide_XP_HBond>
-2.11239

> <i_i_glide_confnum>
1

> <i_i_glide_posenum>
3

> <r_i_glide_eff_state_penalty>
0.5558

> <i_glide_XP_PoseRank>
1

$$$$
BACE_5.smi:1
                    3D
 Structure written by MMmdl.
 79 80  0  0  1  0            999 V2000
   27.7353   46.0669  -12.4820 C   0  0  0  0  0  0
   28.9796   45.7970  -11.6215 C   0  0  0  0  0  0
   28.6732   45.1357  -10.2654 C   0  0  0  0  0  0
   28.0058   43.7953  -10.4051 C   0  0  0  0  0  0
   26.6401   43.4649  -10.1648 C   0  0  0  0  0  0
   26.5550   42.1321  -10.4553 C   0  0  0  0  0  0
   25.4172   41.1652  -10.4021 C   0  0  0  0  0  0
   24.1194   41.8379  -10.4400 N   0  0  0  0  0  0
   23.2473   41.5399   -9.3002 C   0  0  0  0  0  0
   22.4437   40.2216   -9.4714 C   0  0  1  0  0  0
   22.8601   39.3509   -8.4401 O   0  0  0  0  0  0
   20.9080   40.4196   -9.3484 C   0  0  2  0  0  0
   20.1001   39.1035   -9.5115 C   0  0  0  0  0  0
   18.6229   39.1920   -9.0480 C   0  0  2  0  0  0
   18.1972   37.9023   -8.3244 C   0  0  0  0  0  0
   17.6545   39.5298  -10.2024 C   0  0  0  0  0  0
   16.2955   40.0639   -9.7148 C   0  0  0  0  0  0
   15.4439   40.6229  -10.8626 C   0  0  0  0  0  0
   14.1077   41.2517  -10.4234 C   0  0  0  0  0  0
   14.2019   42.4255   -9.4263 C   0  0  0  0  0  0
   15.2169   43.5123   -9.8011 C   0  0  0  0  0  0
   14.9684   43.9901  -11.1215 O   0  0  0  0  0  0
   15.9507   44.8907  -11.6304 C   0  0  0  0  0  0
   17.2780   44.1488  -11.9002 C   0  0  0  0  0  0
   17.2840   43.3502  -12.8402 O   0  0  0  0  0  0
   18.3546   44.3509  -11.0929 N   0  0  0  0  0  0
   18.3277   45.3591  -10.0190 C   0  0  0  0  0  0
   19.5726   43.5100  -11.2238 C   0  0  1  0  0  0
   20.8400   44.3869  -11.3257 C   0  0  0  0  0  0
   19.7370   42.5115  -10.0618 C   0  0  0  0  0  0
   19.2421   42.7321   -8.9572 O   0  0  0  0  0  0
   20.4733   41.4201  -10.3262 N   0  0  0  0  0  0
   27.8178   41.7499  -10.8399 N   0  0  0  0  0  0
   28.7182   42.7487  -10.7957 N   0  0  0  0  0  0
   22.6723   39.7461  -10.4271 H   0  0  0  0  0  0
   20.7292   40.7967   -8.3394 H   0  0  0  0  0  0
   18.5598   39.9926   -8.3089 H   0  0  0  0  0  0
   19.5339   42.9194  -12.1398 H   0  0  0  0  0  0
   28.0047   46.5851  -13.4023 H   0  0  0  0  0  0
   27.0106   46.6829  -11.9494 H   0  0  0  0  0  0
   27.2406   45.1376  -12.7655 H   0  0  0  0  0  0
   29.5017   46.7367  -11.4459 H   0  0  0  0  0  0
   29.6714   45.1666  -12.1819 H   0  0  0  0  0  0
   28.0432   45.8010   -9.6733 H   0  0  0  0  0  0
   29.6013   45.0257   -9.7028 H   0  0  0  0  0  0
   25.8390   44.1085   -9.8339 H   0  0  0  0  0  0
   25.5149   40.5538   -9.5050 H   0  0  0  0  0  0
   25.4931   40.4745  -11.2400 H   0  0  0  0  0  0
   23.6587   41.5712  -11.3079 H   0  0  0  0  0  0
   22.5551   42.3720   -9.1755 H   0  0  0  0  0  0
   23.8225   41.5380   -8.3722 H   0  0  0  0  0  0
   23.6780   38.9523   -8.7194 H   0  0  0  0  0  0
   20.1599   38.7376  -10.5372 H   0  0  0  0  0  0
   20.5910   38.3346   -8.9136 H   0  0  0  0  0  0
   17.1736   37.9586   -7.9535 H   0  0  0  0  0  0
   18.8310   37.7265   -7.4554 H   0  0  0  0  0  0
   18.2686   37.0310   -8.9761 H   0  0  0  0  0  0
   18.1030   40.2857  -10.8443 H   0  0  0  0  0  0
   17.5124   38.6564  -10.8395 H   0  0  0  0  0  0
   16.4720   40.8476   -8.9782 H   0  0  0  0  0  0
   15.7408   39.2803   -9.1985 H   0  0  0  0  0  0
   16.0233   41.3560  -11.4223 H   0  0  0  0  0  0
   15.2287   39.8155  -11.5604 H   0  0  0  0  0  0
   13.4760   40.4780   -9.9860 H   0  0  0  0  0  0
   13.5814   41.5946  -11.3135 H   0  0  0  0  0  0
   13.2145   42.8751   -9.3220 H   0  0  0  0  0  0
   14.4572   42.0385   -8.4383 H   0  0  0  0  0  0
   16.2187   43.0966   -9.6992 H   0  0  0  0  0  0
   15.1501   44.3405   -9.0940 H   0  0  0  0  0  0
   16.0366   45.7629  -10.9847 H   0  0  0  0  0  0
   15.5868   45.2703  -12.5855 H   0  0  0  0  0  0
   19.2350   45.3703   -9.4165 H   0  0  0  0  0  0
   17.5140   45.1679   -9.3184 H   0  0  0  0  0  0
   18.2063   46.3620  -10.4323 H   0  0  0  0  0  0
   21.6952   43.7987  -11.6607 H   0  0  0  0  0  0
   21.1260   44.8318  -10.3725 H   0  0  0  0  0  0
   20.7034   45.1983  -12.0396 H   0  0  0  0  0  0
   20.8224   41.3088  -11.2659 H   0  0  0  0  0  0
   28.0800   40.7996  -11.0841 H   0  0  0  0  0  0
  1  2  1  0  0  0
  1 39  1  0  0  0
  1 40  1  0  0  0
  1 41  1  0  0  0
  2  3  1  0  0  0
  2 42  1  0  0  0
  2 43  1  0  0  0
  3 44  1  0  0  0
  3 45  1  0  0  0
  3  4  1  0  0  0
  4 34  2  0  0  0
  4  5  1  0  0  0
  5  6  2  0  0  0
  5 46  1  0  0  0
  6 33  1  0  0  0
  6  7  1  0  0  0
  7  8  1  0  0  0
  7 47  1  0  0  0
  7 48  1  0  0  0
  8  9  1  0  0  0
  8 49  1  0  0  0
  9 10  1  0  0  0
  9 50  1  0  0  0
  9 51  1  0  0  0
 10 35  1  0  0  0
 10 11  1  0  0  0
 10 12  1  0  0  0
 11 52  1  0  0  0
 12 36  1  0  0  0
 12 32  1  0  0  0
 12 13  1  0  0  0
 13 14  1  0  0  0
 13 53  1  0  0  0
 13 54  1  0  0  0
 14 37  1  0  0  0
 14 15  1  0  0  0
 14 16  1  0  0  0
 15 55  1  0  0  0
 15 56  1  0  0  0
 15 57  1  0  0  0
 16 17  1  0  0  0
 16 58  1  0  0  0
 16 59  1  0  0  0
 17 18  1  0  0  0
 17 60  1  0  0  0
 17 61  1  0  0  0
 18 19  1  0  0  0
 18 62  1  0  0  0
 18 63  1  0  0  0
 19 20  1  0  0  0
 19 64  1  0  0  0
 19 65  1  0  0  0
 20 21  1  0  0  0
 20 66  1  0  0  0
 20 67  1  0  0  0
 21 22  1  0  0  0
 21 68  1  0  0  0
 21 69  1  0  0  0
 22 23  1  0  0  0
 23 24  1  0  0  0
 23 70  1  0  0  0
 23 71  1  0  0  0
 24 25  2  0  0  0
 24 26  1  0  0  0
 26 27  1  0  0  0
 26 28  1  0  0  0
 27 72  1  0  0  0
 27 73  1  0  0  0
 27 74  1  0  0  0
 28 38  1  0  0  0
 28 29  1  0  0  0
 28 30  1  0  0  0
 29 75  1  0  0  0
 29 76  1  0  0  0
 29 77  1  0  0  0
 30 31  2  0  0  0
 30 32  1  0  0  0
 32 78  1  0  0  0
 33 34  1  0  0  0
 33 79  1  0  0  0
M  END
> <s_m_source_file>
BACE_5.smi

> <i_m_source_file_index>
1

> <i_lp_mmshare_version>
42013

> <i_f3d_flags>
0

> <s_epik_input>
W0NIM11bQ0gyXVtDSDJdYzFbY0hdYyhuW25IXTEpW0NIMl1bTkhdW0NIMl1bQ0BASF0oW09IXSlbQ0BASF0yW0NIMl1bQ0BIXShbQ0gzXSlbQ0gyXVtDSDJdW0NIMl1bQ0gyXVtDSDJdW0NIMl1PW0NIMl1DKD1PKU4oW0NIM10pW0NAQEhdKFtDSDNdKUMoPU8pW05IXTI=

> <s_epik_cmdline>
J2VwaWtfcHl0aG9uJywgJy1waCcsICc3LjAnLCAnLXRuJywgJzgnLCAnLW1hJywgJzIwMCcsICctaW1hZScsICc8aW5maWxlLm1hZT4nLCAnLW9tYWUnLCAnPG91dGZpbGUubWFlPic=

> <r_lp_tautomer_probability>
0.5

> <r_epik_Ionization_Penalty>
  0.9876

> <r_epik_Ionization_Penalty_Charging>
  0.0000

> <r_epik_Ionization_Penalty_Neutral>
  0.9876

> <r_epik_State_Penalty>
  1.6104

> <r_epik_Charging_Adjusted_Penalty>
1.61044

> <i_epik_Tot_Q>
0

> <i_epik_Tot_abs_Q>
0

> <s_lp_Force_Field>
OPLS_2005

> <r_lp_Energy>
32.6261

> <b_lp_Chiralities_Consistent>
1

> <s_lp_Variant>
BACE_5.smi:1-3

> <chiral flag>
1

> <version>
0

> <s_i_glide_gridfile>
second_dock_grid_2

> <i_i_glide_lignum>
6

> <i_i_glide_rotatable_bonds>
8

> <r_i_docking_score>
-2.95151

> <r_i_glide_ligand_efficiency>
-0.0868092

> <r_i_glide_ligand_efficiency_sa>
-0.281228

> <r_i_glide_ligand_efficiency_ln>
-0.652072

> <r_glide_XP_GScore>
-4.56191

> <r_i_glide_gscore>
-4.56191

> <r_i_glide_evdw>
-32.3358

> <r_i_glide_ecoul>
-13.9041

> <r_i_glide_energy>
-46.2398

> <r_i_glide_einternal>
6.64723

> <r_i_glide_emodel>
-62.6652

> <r_glide_XP_HBond>
-1.67395

> <i_i_glide_confnum>
1

> <i_i_glide_posenum>
1

> <r_i_glide_eff_state_penalty>
1.6104

> <i_glide_XP_PoseRank>
1

$$$$
BACE_5.smi:1
                    3D
 Structure written by MMmdl.
 79 80  0  0  1  0            999 V2000
   30.9516   41.7783  -13.6541 C   0  0  0  0  0  0
   29.5434   41.5290  -13.1032 C   0  0  0  0  0  0
   29.0379   42.6875  -12.2287 C   0  0  0  0  0  0
   27.6696   42.4813  -11.6588 C   0  0  0  0  0  0
   26.5586   43.2793  -11.6559 C   0  0  0  0  0  0
   25.5864   42.5407  -10.9159 C   0  0  0  0  0  0
   24.1722   42.9396  -10.5848 C   0  0  0  0  0  0
   23.1845   41.8861  -10.8400 N   0  0  0  0  0  0
   22.9959   40.9598   -9.7140 C   0  0  0  0  0  0
   21.8330   39.9659   -9.9458 C   0  0  1  0  0  0
   22.0592   38.8707   -9.0823 O   0  0  0  0  0  0
   20.4348   40.5593   -9.6158 C   0  0  2  0  0  0
   19.2735   39.5591   -9.8704 C   0  0  0  0  0  0
   18.2657   39.4443   -8.6983 C   0  0  2  0  0  0
   18.9000   38.7583   -7.4731 C   0  0  0  0  0  0
   16.9787   38.6869   -9.0994 C   0  0  0  0  0  0
   16.0752   39.3841  -10.1343 C   0  0  0  0  0  0
   15.5020   40.7340   -9.6640 C   0  0  0  0  0  0
   14.4804   41.3058  -10.6595 C   0  0  0  0  0  0
   13.8986   42.6687  -10.2475 C   0  0  0  0  0  0
   14.8681   43.8399  -10.4546 C   0  0  0  0  0  0
   14.9803   44.1292  -11.8454 O   0  0  0  0  0  0
   15.9909   45.0758  -12.1865 C   0  0  0  0  0  0
   17.3781   44.4102  -12.1293 C   0  0  0  0  0  0
   17.6267   43.5736  -13.0009 O   0  0  0  0  0  0
   18.2606   44.7340  -11.1445 N   0  0  0  0  0  0
   17.9402   45.7198  -10.0973 C   0  0  0  0  0  0
   19.5552   44.0178  -11.0611 C   0  0  1  0  0  0
   20.7066   44.9463  -10.6102 C   0  0  0  0  0  0
   19.4640   42.8211  -10.0984 C   0  0  0  0  0  0
   18.7300   42.8565   -9.1114 O   0  0  0  0  0  0
   20.2452   41.7762  -10.3982 N   0  0  0  0  0  0
   26.0613   41.3797  -10.4944 N   0  0  0  0  0  0
   27.3173   41.3500  -10.9609 N   0  0  0  0  0  0
   21.8597   39.5886  -10.9711 H   0  0  0  0  0  0
   20.4452   40.8536   -8.5653 H   0  0  0  0  0  0
   17.9837   40.4468   -8.3809 H   0  0  0  0  0  0
   19.8433   43.6379  -12.0399 H   0  0  0  0  0  0
   31.2699   40.9498  -14.2871 H   0  0  0  0  0  0
   31.6781   41.8757  -12.8458 H   0  0  0  0  0  0
   30.9863   42.6869  -14.2566 H   0  0  0  0  0  0
   29.5559   40.6012  -12.5286 H   0  0  0  0  0  0
   28.8600   41.3706  -13.9379 H   0  0  0  0  0  0
   29.0451   43.6074  -12.8149 H   0  0  0  0  0  0
   29.7397   42.8513  -11.4099 H   0  0  0  0  0  0
   26.4543   44.2528  -12.1092 H   0  0  0  0  0  0
   23.9171   43.8043  -11.1969 H   0  0  0  0  0  0
   24.1079   43.2842   -9.5524 H   0  0  0  0  0  0
   23.5177   41.3497  -11.6478 H   0  0  0  0  0  0
   22.8169   41.5115   -8.7890 H   0  0  0  0  0  0
   23.9141   40.3983   -9.5535 H   0  0  0  0  0  0
   22.9378   38.5472   -9.2425 H   0  0  0  0  0  0
   18.7578   39.8484  -10.7851 H   0  0  0  0  0  0
   19.6682   38.5662  -10.0856 H   0  0  0  0  0  0
   18.1846   38.6795   -6.6527 H   0  0  0  0  0  0
   19.7586   39.3089   -7.0885 H   0  0  0  0  0  0
   19.2354   37.7501   -7.7158 H   0  0  0  0  0  0
   17.2484   37.7001   -9.4765 H   0  0  0  0  0  0
   16.3807   38.5009   -8.2056 H   0  0  0  0  0  0
   15.2456   38.7129  -10.3572 H   0  0  0  0  0  0
   16.6034   39.5204  -11.0774 H   0  0  0  0  0  0
   15.0259   40.6069   -8.6893 H   0  0  0  0  0  0
   16.3173   41.4436   -9.5255 H   0  0  0  0  0  0
   13.6609   40.5915  -10.7542 H   0  0  0  0  0  0
   14.9411   41.3846  -11.6405 H   0  0  0  0  0  0
   12.9859   42.8606  -10.8115 H   0  0  0  0  0  0
   13.6008   42.6221   -9.2014 H   0  0  0  0  0  0
   15.8298   43.5999  -10.0057 H   0  0  0  0  0  0
   14.4930   44.7264   -9.9443 H   0  0  0  0  0  0
   15.8989   45.9876  -11.5979 H   0  0  0  0  0  0
   15.8284   45.3818  -13.2222 H   0  0  0  0  0  0
   18.5881   45.6402   -9.2261 H   0  0  0  0  0  0
   16.9358   45.5916   -9.6953 H   0  0  0  0  0  0
   18.0239   46.7332  -10.4925 H   0  0  0  0  0  0
   21.6668   44.4639  -10.7840 H   0  0  0  0  0  0
   20.6733   45.1978   -9.5500 H   0  0  0  0  0  0
   20.7107   45.8757  -11.1812 H   0  0  0  0  0  0
   20.8688   41.8815  -11.1886 H   0  0  0  0  0  0
   27.8944   40.5154  -10.8404 H   0  0  0  0  0  0
  1  2  1  0  0  0
  1 39  1  0  0  0
  1 40  1  0  0  0
  1 41  1  0  0  0
  2  3  1  0  0  0
  2 42  1  0  0  0
  2 43  1  0  0  0
  3  4  1  0  0  0
  3 44  1  0  0  0
  3 45  1  0  0  0
  4 34  1  0  0  0
  4  5  2  0  0  0
  5  6  1  0  0  0
  5 46  1  0  0  0
  6  7  1  0  0  0
  6 33  2  0  0  0
  7  8  1  0  0  0
  7 47  1  0  0  0
  7 48  1  0  0  0
  8  9  1  0  0  0
  8 49  1  0  0  0
  9 10  1  0  0  0
  9 50  1  0  0  0
  9 51  1  0  0  0
 10 35  1  0  0  0
 10 11  1  0  0  0
 10 12  1  0  0  0
 11 52  1  0  0  0
 12 36  1  0  0  0
 12 32  1  0  0  0
 12 13  1  0  0  0
 13 14  1  0  0  0
 13 53  1  0  0  0
 13 54  1  0  0  0
 14 37  1  0  0  0
 14 15  1  0  0  0
 14 16  1  0  0  0
 15 55  1  0  0  0
 15 56  1  0  0  0
 15 57  1  0  0  0
 16 17  1  0  0  0
 16 58  1  0  0  0
 16 59  1  0  0  0
 17 18  1  0  0  0
 17 60  1  0  0  0
 17 61  1  0  0  0
 18 19  1  0  0  0
 18 62  1  0  0  0
 18 63  1  0  0  0
 19 20  1  0  0  0
 19 64  1  0  0  0
 19 65  1  0  0  0
 20 21  1  0  0  0
 20 66  1  0  0  0
 20 67  1  0  0  0
 21 22  1  0  0  0
 21 68  1  0  0  0
 21 69  1  0  0  0
 22 23  1  0  0  0
 23 24  1  0  0  0
 23 70  1  0  0  0
 23 71  1  0  0  0
 24 25  2  0  0  0
 24 26  1  0  0  0
 26 27  1  0  0  0
 26 28  1  0  0  0
 27 72  1  0  0  0
 27 73  1  0  0  0
 27 74  1  0  0  0
 28 38  1  0  0  0
 28 29  1  0  0  0
 28 30  1  0  0  0
 29 75  1  0  0  0
 29 76  1  0  0  0
 29 77  1  0  0  0
 30 31  2  0  0  0
 30 32  1  0  0  0
 32 78  1  0  0  0
 33 34  1  0  0  0
 34 79  1  0  0  0
M  END
> <s_m_source_file>
BACE_5.smi

> <i_m_source_file_index>
1

> <i_lp_mmshare_version>
42013

> <i_f3d_flags>
0

> <s_epik_input>
W0NIM11bQ0gyXVtDSDJdYzFbY0hdYyhuW25IXTEpW0NIMl1bTkhdW0NIMl1bQ0BASF0oW09IXSlbQ0BASF0yW0NIMl1bQ0BIXShbQ0gzXSlbQ0gyXVtDSDJdW0NIMl1bQ0gyXVtDSDJdW0NIMl1PW0NIMl1DKD1PKU4oW0NIM10pW0NAQEhdKFtDSDNdKUMoPU8pW05IXTI=

> <s_epik_cmdline>
J2VwaWtfcHl0aG9uJywgJy1waCcsICc3LjAnLCAnLXRuJywgJzgnLCAnLW1hJywgJzIwMCcsICctaW1hZScsICc8aW5maWxlLm1hZT4nLCAnLW9tYWUnLCAnPG91dGZpbGUubWFlPic=

> <r_lp_tautomer_probability>
0.5

> <r_epik_Ionization_Penalty>
  1.4191

> <r_epik_Ionization_Penalty_Charging>
  0.0000

> <r_epik_Ionization_Penalty_Neutral>
  1.4191

> <r_epik_State_Penalty>
  1.7435

> <r_epik_Charging_Adjusted_Penalty>
1.74351

> <i_epik_Tot_Q>
0

> <i_epik_Tot_abs_Q>
0

> <s_lp_Force_Field>
OPLS_2005

> <r_lp_Energy>
36.3106

> <b_lp_Chiralities_Consistent>
1

> <s_lp_Variant>
BACE_5.smi:1-4

> <chiral flag>
1

> <version>
0

> <s_i_glide_gridfile>
second_dock_grid_2

> <i_i_glide_lignum>
7

> <i_i_glide_rotatable_bonds>
8

> <r_i_docking_score>
-5.06639

> <r_i_glide_ligand_efficiency>
-0.149012

> <r_i_glide_ligand_efficiency_sa>
-0.48274

> <r_i_glide_ligand_efficiency_ln>
-1.11931

> <r_glide_XP_GScore>
-6.80989

> <r_i_glide_gscore>
-6.80989

> <r_i_glide_evdw>
-34.8645

> <r_i_glide_ecoul>
-11.8652

> <r_i_glide_energy>
-46.7297

> <r_i_glide_einternal>
5.05987

> <r_i_glide_emodel>
-65.0051

> <r_glide_XP_HBond>
-3.07903

> <i_i_glide_confnum>
1

> <i_i_glide_posenum>
1

> <r_i_glide_eff_state_penalty>
1.7435

> <i_glide_XP_PoseRank>
1

$$$$
BACE_6.smi:1
                    3D
 Structure written by MMmdl.
 83 85  0  0  1  0            999 V2000
   22.6354   47.6154  -15.1849 C   0  0  0  0  0  0
   22.4947   48.3329  -13.8310 C   0  0  0  0  0  0
   21.3560   47.8337  -13.0377 N   0  0  0  0  0  0
   21.7448   47.1525  -11.7859 C   0  0  0  0  0  0
   22.1835   45.7001  -12.0507 C   0  0  0  0  0  0
   22.7956   44.9657  -10.8492 C   0  0  0  0  0  0
   21.8337   44.6861   -9.6850 C   0  0  0  0  0  0
   20.5774   43.8770  -10.0678 C   0  0  0  0  0  0
   19.8822   43.1942   -8.8664 C   0  0  1  0  0  0
   19.5987   44.1566   -7.6970 C   0  0  0  0  0  0
   18.6985   42.2477   -9.2589 C   0  0  0  0  0  0
   17.2688   42.7972   -9.5831 C   0  0  2  0  0  0
   17.3008   44.1537  -10.1077 N   0  0  0  0  0  0
   17.2385   44.5253  -11.3926 C   0  0  0  0  0  0
   17.0412   43.7655  -12.3441 O   0  0  0  0  0  0
   17.5253   45.9785  -11.5860 C   0  0  0  0  0  0
   18.6066   46.3751  -12.3992 C   0  0  0  0  0  0
   18.9369   47.7402  -12.5312 C   0  0  0  0  0  0
   18.1404   48.7114  -11.8878 C   0  0  0  0  0  0
   17.0566   48.3195  -11.0798 C   0  0  0  0  0  0
   16.7530   46.9551  -10.9208 C   0  0  0  0  0  0
   20.0876   48.1809  -13.3884 C   0  0  0  0  0  0
   19.8338   48.8842  -14.3671 O   0  0  0  0  0  0
   16.2301   42.7178   -8.4243 C   0  0  2  0  0  0
   16.8600   43.1540   -7.2400 O   0  0  0  0  0  0
   15.5898   41.3127   -8.2378 C   0  0  0  0  0  0
   15.6600   40.8107   -6.8404 N   0  3  0  0  0  0
   15.8465   39.3503   -6.6824 C   0  0  0  0  0  0
   16.9975   38.7837   -7.5085 C   0  0  0  0  0  0
   18.3313   39.1899   -7.2835 C   0  0  0  0  0  0
   19.3861   38.7067   -8.0913 C   0  0  0  0  0  0
   19.0928   37.7522   -9.0921 C   0  0  0  0  0  0
   17.7724   37.3083   -9.2862 C   0  0  0  0  0  0
   16.7253   37.8356   -8.5140 C   0  0  0  0  0  0
   20.8006   39.2532   -7.8763 C   0  0  0  0  0  0
   21.7909   38.9371   -9.0136 C   0  0  0  0  0  0
   21.3787   38.8318   -6.5201 C   0  0  0  0  0  0
   20.6441   42.5201   -8.4768 H   0  0  0  0  0  0
   16.8684   42.1635  -10.3772 H   0  0  0  0  0  0
   15.4156   43.4162   -8.6246 H   0  0  0  0  0  0
   23.4827   48.0163  -15.7436 H   0  0  0  0  0  0
   21.7488   47.7370  -15.8085 H   0  0  0  0  0  0
   22.8078   46.5484  -15.0551 H   0  0  0  0  0  0
   23.4316   48.2197  -13.2851 H   0  0  0  0  0  0
   22.3870   49.4061  -13.9932 H   0  0  0  0  0  0
   22.5610   47.7022  -11.3139 H   0  0  0  0  0  0
   20.9458   47.1698  -11.0448 H   0  0  0  0  0  0
   21.3505   45.1215  -12.4356 H   0  0  0  0  0  0
   22.9341   45.6981  -12.8405 H   0  0  0  0  0  0
   23.2009   44.0152  -11.1995 H   0  0  0  0  0  0
   23.6523   45.5308  -10.4796 H   0  0  0  0  0  0
   22.3925   44.1426   -8.9226 H   0  0  0  0  0  0
   21.5378   45.6294   -9.2255 H   0  0  0  0  0  0
   19.8925   44.5390  -10.5866 H   0  0  0  0  0  0
   20.8584   43.1055  -10.7863 H   0  0  0  0  0  0
   18.8359   44.8923   -7.9471 H   0  0  0  0  0  0
   20.4890   44.7023   -7.3883 H   0  0  0  0  0  0
   19.2775   43.6061   -6.8134 H   0  0  0  0  0  0
   19.0276   41.6554  -10.1129 H   0  0  0  0  0  0
   18.5920   41.5184   -8.4616 H   0  0  0  0  0  0
   17.4976   44.8757   -9.4309 H   0  0  0  0  0  0
   19.2016   45.6236  -12.8933 H   0  0  0  0  0  0
   18.3695   49.7614  -12.0025 H   0  0  0  0  0  0
   16.4621   49.0665  -10.5766 H   0  0  0  0  0  0
   15.9262   46.6647  -10.2902 H   0  0  0  0  0  0
   16.1911   43.3501   -6.5835 H   0  0  0  0  0  0
   14.5422   41.3315   -8.5407 H   0  0  0  0  0  0
   16.0650   40.6199   -8.9302 H   0  0  0  0  0  0
   16.4743   41.2447   -6.4165 H   0  0  0  0  0  0
   16.0599   39.1528   -5.6401 H   0  0  0  0  0  0
   14.9151   38.8323   -6.9156 H   0  0  0  0  0  0
   18.5499   39.9071   -6.5082 H   0  0  0  0  0  0
   19.8695   37.3501   -9.7224 H   0  0  0  0  0  0
   17.5591   36.5669  -10.0399 H   0  0  0  0  0  0
   15.7142   37.4937   -8.6809 H   0  0  0  0  0  0
   20.7004   40.3366   -7.8465 H   0  0  0  0  0  0
   21.4198   39.2890   -9.9764 H   0  0  0  0  0  0
   21.9894   37.8680   -9.0957 H   0  0  0  0  0  0
   22.7504   39.4267   -8.8402 H   0  0  0  0  0  0
   20.7476   39.1644   -5.6963 H   0  0  0  0  0  0
   22.3679   39.2614   -6.3634 H   0  0  0  0  0  0
   21.4758   37.7500   -6.4562 H   0  0  0  0  0  0
   14.8449   41.1054   -6.3041 H   0  0  0  0  0  0
  1  2  1  0  0  0
  1 41  1  0  0  0
  1 42  1  0  0  0
  1 43  1  0  0  0
  2  3  1  0  0  0
  2 44  1  0  0  0
  2 45  1  0  0  0
  3 22  1  0  0  0
  3  4  1  0  0  0
  4  5  1  0  0  0
  4 46  1  0  0  0
  4 47  1  0  0  0
  5  6  1  0  0  0
  5 48  1  0  0  0
  5 49  1  0  0  0
  6  7  1  0  0  0
  6 50  1  0  0  0
  6 51  1  0  0  0
  7  8  1  0  0  0
  7 52  1  0  0  0
  7 53  1  0  0  0
  8  9  1  0  0  0
  8 54  1  0  0  0
  8 55  1  0  0  0
  9 38  1  0  0  0
  9 10  1  0  0  0
  9 11  1  0  0  0
 10 56  1  0  0  0
 10 57  1  0  0  0
 10 58  1  0  0  0
 11 12  1  0  0  0
 11 59  1  0  0  0
 11 60  1  0  0  0
 12 39  1  0  0  0
 12 13  1  0  0  0
 12 24  1  0  0  0
 13 14  1  0  0  0
 13 61  1  0  0  0
 14 15  2  0  0  0
 14 16  1  0  0  0
 16 21  1  0  0  0
 16 17  2  0  0  0
 17 18  1  0  0  0
 17 62  1  0  0  0
 18 19  2  0  0  0
 18 22  1  0  0  0
 19 20  1  0  0  0
 19 63  1  0  0  0
 20 21  2  0  0  0
 20 64  1  0  0  0
 21 65  1  0  0  0
 22 23  2  0  0  0
 24 40  1  0  0  0
 24 25  1  0  0  0
 24 26  1  0  0  0
 25 66  1  0  0  0
 26 27  1  0  0  0
 26 67  1  0  0  0
 26 68  1  0  0  0
 27 28  1  0  0  0
 27 69  1  0  0  0
 27 83  1  0  0  0
 28 29  1  0  0  0
 28 70  1  0  0  0
 28 71  1  0  0  0
 29 34  1  0  0  0
 29 30  2  0  0  0
 30 31  1  0  0  0
 30 72  1  0  0  0
 31 32  2  0  0  0
 31 35  1  0  0  0
 32 33  1  0  0  0
 32 73  1  0  0  0
 33 34  2  0  0  0
 33 74  1  0  0  0
 34 75  1  0  0  0
 35 36  1  0  0  0
 35 37  1  0  0  0
 35 76  1  0  0  0
 36 77  1  0  0  0
 36 78  1  0  0  0
 36 79  1  0  0  0
 37 80  1  0  0  0
 37 81  1  0  0  0
 37 82  1  0  0  0
M  CHG  1  27   1
M  END
> <s_m_source_file>
BACE_6.smi

> <i_m_source_file_index>
1

> <i_lp_mmshare_version>
42013

> <i_f3d_flags>
0

> <s_epik_input>
W2NIXTFbY0hdW2NIXWMoW2NIXWMxMilDKD1PKU4oW0NIMl1bQ0gzXSlbQ0gyXVtDSDJdW0NIMl1bQ0gyXVtDSDJdW0NAQEhdKFtDSDNdKVtDSDJdW0NASF0oW05IXUMyPU8pW0NASF0oW09IXSlbQ0gyXVtOSF1bQ0gyXWMzW2NIXWMoW0NIXShbQ0gzXSlbQ0gzXSlbY0hdW2NIXVtjSF0z

> <s_epik_cmdline>
J2VwaWtfcHl0aG9uJywgJy1waCcsICc3LjAnLCAnLXRuJywgJzgnLCAnLW1hJywgJzIwMCcsICctaW1hZScsICc8aW5maWxlLm1hZT4nLCAnLW9tYWUnLCAnPG91dGZpbGUubWFlPic=

> <r_epik_Ionization_Penalty>
  0.0165

> <r_epik_Ionization_Penalty_Charging>
  0.0165

> <r_epik_Ionization_Penalty_Neutral>
  0.0000

> <r_epik_State_Penalty>
  0.0130

> <r_epik_Charging_Adjusted_Penalty>
0.0295552

> <i_epik_Tot_Q>
1

> <i_epik_Tot_abs_Q>
1

> <s_lp_Force_Field>
OPLS_2005

> <r_lp_Energy>
49.2167

> <b_lp_Chiralities_Consistent>
1

> <s_lp_Variant>
BACE_6.smi:1-1

> <chiral flag>
1

> <version>
0

> <s_i_glide_gridfile>
second_dock_grid_2

> <i_i_glide_lignum>
8

> <i_i_glide_rotatable_bonds>
8

> <r_i_docking_score>
-4.95684

> <r_i_glide_ligand_efficiency>
-0.133969

> <r_i_glide_ligand_efficiency_sa>
-0.446413

> <r_i_glide_ligand_efficiency_ln>
-1.07502

> <r_glide_XP_GScore>
-4.96984

> <r_i_glide_gscore>
-4.96984

> <r_i_glide_evdw>
-27.3233

> <r_i_glide_ecoul>
-20.1562

> <r_i_glide_energy>
-47.4796

> <r_i_glide_einternal>
7.32737

> <r_i_glide_emodel>
-58.6558

> <r_glide_XP_HBond>
-0.81509

> <i_i_glide_confnum>
1

> <i_i_glide_posenum>
3

> <r_i_glide_eff_state_penalty>
0.013

> <i_glide_XP_PoseRank>
1

$$$$
BACE_6.smi:1
                    3D
 Structure written by MMmdl.
 82 84  0  0  1  0            999 V2000
   14.0678   39.6611   -9.4366 C   0  0  0  0  0  0
   15.1841   39.2302  -10.3973 C   0  0  0  0  0  0
   16.4329   39.9650  -10.1484 N   0  0  0  0  0  0
   17.5212   39.1282   -9.6131 C   0  0  0  0  0  0
   17.3210   38.8168   -8.1190 C   0  0  0  0  0  0
   18.3934   37.8745   -7.5486 C   0  0  0  0  0  0
   19.7888   38.5023   -7.3824 C   0  0  0  0  0  0
   19.7900   39.7007   -6.4302 C   0  0  0  0  0  0
   21.1522   40.0180   -5.7794 C   0  0  1  0  0  0
   22.3405   40.0227   -6.7569 C   0  0  0  0  0  0
   21.0592   41.2464   -4.8312 C   0  0  0  0  0  0
   21.3168   42.6815   -5.3884 C   0  0  2  0  0  0
   20.8364   42.7929   -6.7638 N   0  0  0  0  0  0
   19.7013   43.3611   -7.1926 C   0  0  0  0  0  0
   18.9620   44.0649   -6.5056 O   0  0  0  0  0  0
   19.3609   43.0063   -8.6077 C   0  0  0  0  0  0
   18.1387   42.3636   -8.9107 C   0  0  0  0  0  0
   17.8504   41.9704  -10.2396 C   0  0  0  0  0  0
   18.7702   42.2642  -11.2691 C   0  0  0  0  0  0
   19.9855   42.9089  -10.9711 C   0  0  0  0  0  0
   20.2831   43.2721   -9.6451 C   0  0  0  0  0  0
   16.5784   41.2473  -10.5735 C   0  0  0  0  0  0
   15.7232   41.8396  -11.2369 O   0  0  0  0  0  0
   22.7967   43.1450   -5.3027 C   0  0  2  0  0  0
   23.2597   42.9504   -3.9863 O   0  0  0  0  0  0
   22.9679   44.6438   -5.6182 C   0  0  0  0  0  0
   24.3799   45.0398   -5.6403 N   0  0  0  0  0  0
   24.6180   46.3924   -6.1388 C   0  0  0  0  0  0
   24.0533   47.4840   -5.2474 C   0  0  0  0  0  0
   24.7278   47.8508   -4.0640 C   0  0  0  0  0  0
   24.2296   48.8951   -3.2527 C   0  0  0  0  0  0
   23.0477   49.5665   -3.6396 C   0  0  0  0  0  0
   22.3605   49.1867   -4.8081 C   0  0  0  0  0  0
   22.8634   48.1467   -5.6119 C   0  0  0  0  0  0
   24.9723   49.2891   -1.9816 C   0  0  0  0  0  0
   24.0879   49.1558   -0.7316 C   0  0  0  0  0  0
   25.5740   50.6979   -2.0899 C   0  0  0  0  0  0
   21.3505   39.1744   -5.1208 H   0  0  0  0  0  0
   20.7440   43.3640   -4.7569 H   0  0  0  0  0  0
   23.4138   42.5557   -5.9802 H   0  0  0  0  0  0
   13.2021   39.0083   -9.5340 H   0  0  0  0  0  0
   13.7332   40.6776   -9.6406 H   0  0  0  0  0  0
   14.3875   39.6142   -8.3948 H   0  0  0  0  0  0
   15.3388   38.1565  -10.2805 H   0  0  0  0  0  0
   14.8583   39.3614  -11.4293 H   0  0  0  0  0  0
   17.5640   38.1959  -10.1788 H   0  0  0  0  0  0
   18.5007   39.5795   -9.7638 H   0  0  0  0  0  0
   17.2646   39.7375   -7.5374 H   0  0  0  0  0  0
   16.3563   38.3257   -7.9802 H   0  0  0  0  0  0
   18.0593   37.5114   -6.5747 H   0  0  0  0  0  0
   18.4600   36.9913   -8.1822 H   0  0  0  0  0  0
   20.4620   37.7502   -6.9785 H   0  0  0  0  0  0
   20.2052   38.7885   -8.3483 H   0  0  0  0  0  0
   19.3866   40.5653   -6.9497 H   0  0  0  0  0  0
   19.0898   39.4853   -5.6233 H   0  0  0  0  0  0
   22.2292   40.7484   -7.5604 H   0  0  0  0  0  0
   22.4777   39.0475   -7.2251 H   0  0  0  0  0  0
   23.2602   40.2371   -6.2209 H   0  0  0  0  0  0
   20.0607   41.2472   -4.3912 H   0  0  0  0  0  0
   21.7027   41.0563   -3.9743 H   0  0  0  0  0  0
   21.3294   42.2337   -7.4433 H   0  0  0  0  0  0
   17.4358   42.1478   -8.1163 H   0  0  0  0  0  0
   18.5539   41.9729  -12.2869 H   0  0  0  0  0  0
   20.6971   43.1172  -11.7572 H   0  0  0  0  0  0
   21.2244   43.7569   -9.4275 H   0  0  0  0  0  0
   24.1034   43.3729   -3.8846 H   0  0  0  0  0  0
   22.5217   44.8531   -6.5905 H   0  0  0  0  0  0
   22.4146   45.2407   -4.8916 H   0  0  0  0  0  0
   24.7933   44.9489   -4.7111 H   0  0  0  0  0  0
   25.6926   46.5578   -6.2348 H   0  0  0  0  0  0
   24.2130   46.4985   -7.1459 H   0  0  0  0  0  0
   25.6358   47.3321   -3.7871 H   0  0  0  0  0  0
   22.6529   50.3665   -3.0312 H   0  0  0  0  0  0
   21.4456   49.6899   -5.0858 H   0  0  0  0  0  0
   22.3384   47.8597   -6.5126 H   0  0  0  0  0  0
   25.8041   48.5946   -1.8568 H   0  0  0  0  0  0
   23.6740   48.1502   -0.6441 H   0  0  0  0  0  0
   23.2594   49.8611   -0.7602 H   0  0  0  0  0  0
   24.6590   49.3603    0.1748 H   0  0  0  0  0  0
   26.2642   50.7648   -2.9318 H   0  0  0  0  0  0
   26.1318   50.9491   -1.1872 H   0  0  0  0  0  0
   24.8036   51.4572   -2.2246 H   0  0  0  0  0  0
  1  2  1  0  0  0
  1 41  1  0  0  0
  1 42  1  0  0  0
  1 43  1  0  0  0
  2  3  1  0  0  0
  2 44  1  0  0  0
  2 45  1  0  0  0
  3 22  1  0  0  0
  3  4  1  0  0  0
  4  5  1  0  0  0
  4 46  1  0  0  0
  4 47  1  0  0  0
  5  6  1  0  0  0
  5 48  1  0  0  0
  5 49  1  0  0  0
  6  7  1  0  0  0
  6 50  1  0  0  0
  6 51  1  0  0  0
  7  8  1  0  0  0
  7 52  1  0  0  0
  7 53  1  0  0  0
  8  9  1  0  0  0
  8 54  1  0  0  0
  8 55  1  0  0  0
  9 38  1  0  0  0
  9 10  1  0  0  0
  9 11  1  0  0  0
 10 56  1  0  0  0
 10 57  1  0  0  0
 10 58  1  0  0  0
 11 12  1  0  0  0
 11 59  1  0  0  0
 11 60  1  0  0  0
 12 39  1  0  0  0
 12 13  1  0  0  0
 12 24  1  0  0  0
 13 14  1  0  0  0
 13 61  1  0  0  0
 14 15  2  0  0  0
 14 16  1  0  0  0
 16 21  1  0  0  0
 16 17  2  0  0  0
 17 18  1  0  0  0
 17 62  1  0  0  0
 18 19  2  0  0  0
 18 22  1  0  0  0
 19 20  1  0  0  0
 19 63  1  0  0  0
 20 21  2  0  0  0
 20 64  1  0  0  0
 21 65  1  0  0  0
 22 23  2  0  0  0
 24 40  1  0  0  0
 24 25  1  0  0  0
 24 26  1  0  0  0
 25 66  1  0  0  0
 26 27  1  0  0  0
 26 67  1  0  0  0
 26 68  1  0  0  0
 27 28  1  0  0  0
 27 69  1  0  0  0
 28 29  1  0  0  0
 28 70  1  0  0  0
 28 71  1  0  0  0
 29 34  1  0  0  0
 29 30  2  0  0  0
 30 31  1  0  0  0
 30 72  1  0  0  0
 31 32  2  0  0  0
 31 35  1  0  0  0
 32 33  1  0  0  0
 32 73  1  0  0  0
 33 34  2  0  0  0
 33 74  1  0  0  0
 34 75  1  0  0  0
 35 36  1  0  0  0
 35 37  1  0  0  0
 35 76  1  0  0  0
 36 77  1  0  0  0
 36 78  1  0  0  0
 36 79  1  0  0  0
 37 80  1  0  0  0
 37 81  1  0  0  0
 37 82  1  0  0  0
M  END
> <s_m_source_file>
BACE_6.smi

> <i_m_source_file_index>
1

> <i_lp_mmshare_version>
42013

> <i_f3d_flags>
0

> <s_epik_input>
W2NIXTFbY0hdW2NIXWMoW2NIXWMxMilDKD1PKU4oW0NIMl1bQ0gzXSlbQ0gyXVtDSDJdW0NIMl1bQ0gyXVtDSDJdW0NAQEhdKFtDSDNdKVtDSDJdW0NASF0oW05IXUMyPU8pW0NASF0oW09IXSlbQ0gyXVtOSF1bQ0gyXWMzW2NIXWMoW0NIXShbQ0gzXSlbQ0gzXSlbY0hdW2NIXVtjSF0z

> <s_epik_cmdline>
J2VwaWtfcHl0aG9uJywgJy1waCcsICc3LjAnLCAnLXRuJywgJzgnLCAnLW1hJywgJzIwMCcsICctaW1hZScsICc8aW5maWxlLm1hZT4nLCAnLW9tYWUnLCAnPG91dGZpbGUubWFlPic=

> <r_epik_Ionization_Penalty>
  2.1294

> <r_epik_Ionization_Penalty_Charging>
  0.0000

> <r_epik_Ionization_Penalty_Neutral>
  2.1294

> <r_epik_State_Penalty>
  2.2676

> <r_epik_Charging_Adjusted_Penalty>
2.26762

> <i_epik_Tot_Q>
0

> <i_epik_Tot_abs_Q>
0

> <s_lp_Force_Field>
OPLS_2005

> <r_lp_Energy>
54.4147

> <b_lp_Chiralities_Consistent>
1

> <s_lp_Variant>
BACE_6.smi:1-2

> <chiral flag>
1

> <version>
0

> <s_i_glide_gridfile>
second_dock_grid_2

> <i_i_glide_lignum>
9

> <i_i_glide_rotatable_bonds>
8

> <r_i_docking_score>
-0.575959

> <r_i_glide_ligand_efficiency>
-0.0155665

> <r_i_glide_ligand_efficiency_sa>
-0.0518709

> <r_i_glide_ligand_efficiency_ln>
-0.124912

> <r_glide_XP_GScore>
-2.84356

> <r_i_glide_gscore>
-2.84356

> <r_i_glide_evdw>
-38.7296

> <r_i_glide_ecoul>
-10.0595

> <r_i_glide_energy>
-48.7891

> <r_i_glide_einternal>
8.75922

> <r_i_glide_emodel>
-56.3214

> <r_glide_XP_HBond>
-1.34322

> <i_i_glide_confnum>
1

> <i_i_glide_posenum>
1

> <r_i_glide_eff_state_penalty>
2.2676

> <i_glide_XP_PoseRank>
1

$$$$
BACE_7.smi:1
                    3D
 Structure written by MMmdl.
 99103  0  0  1  0            999 V2000
   21.9156   39.1405   -9.2671 C   0  0  0  0  0  0
   20.9728   39.3765   -8.0699 C   0  0  0  0  0  0
   21.5997   38.8326   -6.7840 C   0  0  0  0  0  0
   19.5590   38.8217   -8.2587 C   0  0  0  0  0  0
   18.5121   39.3068   -7.4402 C   0  0  0  0  0  0
   17.2032   38.7884   -7.5592 C   0  0  0  0  0  0
   16.0685   39.3001   -6.6795 C   0  0  0  0  0  0
   15.6108   40.6370   -7.1090 N   0  3  0  0  0  0
   15.0056   40.6749   -8.4658 C   0  0  0  0  0  0
   14.7899   42.1070   -9.0170 C   0  0  1  0  0  0
   14.1973   42.9493   -8.0401 O   0  0  0  0  0  0
   15.9783   42.7854   -9.7799 C   0  0  2  0  0  0
   17.3819   42.1470   -9.5704 C   0  0  0  0  0  0
   18.5420   42.8011  -10.3718 C   0  0  2  0  0  0
   18.4346   42.5068  -11.8796 C   0  0  0  0  0  0
   19.9093   42.3732   -9.8079 C   0  0  0  0  0  0
   21.1238   43.2049  -10.2793 C   0  0  0  0  0  0
   21.0558   44.7212   -9.9928 C   0  0  0  0  0  0
   20.8162   45.0696   -8.5148 C   0  0  0  0  0  0
   20.9176   46.5841   -8.2199 C   0  0  0  0  0  0
   20.3833   46.9497   -6.8868 N   0  0  0  0  0  0
   21.3730   47.0387   -5.7911 C   0  0  2  0  0  0
   21.9798   48.4532   -5.7168 C   0  0  0  0  0  0
   22.3915   45.9030   -5.7570 C   0  0  0  0  0  0
   23.7131   46.0691   -6.2340 C   0  0  0  0  0  0
   24.6218   44.9965   -6.1816 C   0  0  0  0  0  0
   24.2158   43.7564   -5.6547 C   0  0  0  0  0  0
   22.9006   43.5767   -5.1901 C   0  0  0  0  0  0
   21.9934   44.6492   -5.2406 C   0  0  0  0  0  0
   19.0858   47.3038   -6.6646 C   0  0  0  0  0  0
   18.6163   47.5553   -5.5532 O   0  0  0  0  0  0
   18.1886   47.4613   -7.8517 C   0  0  0  0  0  0
   17.5902   46.3360   -8.4453 C   0  0  0  0  0  0
   16.7844   46.4676   -9.6009 C   0  0  0  0  0  0
   16.5958   47.7504  -10.1576 C   0  0  0  0  0  0
   17.1417   48.8938   -9.5269 C   0  0  0  0  0  0
   17.9431   48.7422   -8.3784 C   0  0  0  0  0  0
   16.8601   50.2308  -10.0334 C   0  0  0  0  0  0
   16.8632   51.3801   -9.3571 N   0  0  0  0  0  0
   16.4626   52.3420  -10.2736 C   0  0  0  0  0  0
   16.2187   51.7147  -11.4664 C   0  0  0  0  0  0
   16.4601   50.3745  -11.3271 O   0  0  0  0  0  0
   16.1960   45.2490  -10.2563 C   0  0  0  0  0  0
   15.9015   45.2284  -11.4515 O   0  0  0  0  0  0
   16.0623   44.2020   -9.4301 N   0  0  0  0  0  0
   16.9401   37.7808   -8.5076 C   0  0  0  0  0  0
   17.9724   37.2938   -9.3237 C   0  0  0  0  0  0
   19.2733   37.8121   -9.2049 C   0  0  0  0  0  0
   14.0032   42.0034   -9.7658 H   0  0  0  0  0  0
   15.7459   42.7016  -10.8419 H   0  0  0  0  0  0
   18.4932   43.8757  -10.2352 H   0  0  0  0  0  0
   20.8598   46.8935   -4.8451 H   0  0  0  0  0  0
   21.4867   39.5035  -10.2010 H   0  0  0  0  0  0
   22.1522   38.0831   -9.3964 H   0  0  0  0  0  0
   22.8612   39.6610   -9.1180 H   0  0  0  0  0  0
   20.8764   40.4531   -7.9405 H   0  0  0  0  0  0
   20.9998   39.0810   -5.9085 H   0  0  0  0  0  0
   22.5988   39.2406   -6.6268 H   0  0  0  0  0  0
   21.6780   37.7497   -6.8381 H   0  0  0  0  0  0
   18.7246   40.0721   -6.7082 H   0  0  0  0  0  0
   15.2279   38.6042   -6.6997 H   0  0  0  0  0  0
   16.3936   39.3497   -5.6420 H   0  0  0  0  0  0
   14.9170   40.9496   -6.4338 H   0  0  0  0  0  0
   15.5715   40.0879   -9.1855 H   0  0  0  0  0  0
   14.0608   40.1469   -8.3970 H   0  0  0  0  0  0
   14.7688   43.0147   -7.2848 H   0  0  0  0  0  0
   17.6161   42.1900   -8.5068 H   0  0  0  0  0  0
   17.3685   41.0892   -9.8310 H   0  0  0  0  0  0
   18.4929   41.4368  -12.0798 H   0  0  0  0  0  0
   19.2356   42.9905  -12.4367 H   0  0  0  0  0  0
   17.4966   42.8736  -12.2943 H   0  0  0  0  0  0
   19.8796   42.4102   -8.7180 H   0  0  0  0  0  0
   20.0732   41.3276  -10.0627 H   0  0  0  0  0  0
   22.0151   42.8011   -9.7962 H   0  0  0  0  0  0
   21.2839   43.0499  -11.3467 H   0  0  0  0  0  0
   21.9947   45.1704  -10.3151 H   0  0  0  0  0  0
   20.2865   45.1846  -10.6088 H   0  0  0  0  0  0
   19.8466   44.6901   -8.2039 H   0  0  0  0  0  0
   21.5477   44.5283   -7.9183 H   0  0  0  0  0  0
   21.9593   46.8961   -8.3012 H   0  0  0  0  0  0
   20.4193   47.1472   -9.0083 H   0  0  0  0  0  0
   22.6588   48.5435   -4.8678 H   0  0  0  0  0  0
   21.2008   49.2063   -5.5916 H   0  0  0  0  0  0
   22.5323   48.7065   -6.6213 H   0  0  0  0  0  0
   24.0448   47.0106   -6.6442 H   0  0  0  0  0  0
   25.6329   45.1261   -6.5382 H   0  0  0  0  0  0
   24.9246   42.9501   -5.5962 H   0  0  0  0  0  0
   22.5948   42.6231   -4.7859 H   0  0  0  0  0  0
   20.9854   44.5076   -4.8757 H   0  0  0  0  0  0
   17.7774   45.3676   -8.0067 H   0  0  0  0  0  0
   15.9992   47.8641  -11.0511 H   0  0  0  0  0  0
   18.3805   49.6106   -7.9049 H   0  0  0  0  0  0
   16.3753   53.3860  -10.0100 H   0  0  0  0  0  0
   15.8928   52.0551  -12.4382 H   0  0  0  0  0  0
   16.2329   44.3895   -8.4553 H   0  0  0  0  0  0
   15.9481   37.3626   -8.5940 H   0  0  0  0  0  0
   17.7672   36.5158  -10.0408 H   0  0  0  0  0  0
   20.0438   37.3995   -9.8369 H   0  0  0  0  0  0
   16.4058   41.2550   -7.0566 H   0  0  0  0  0  0
  1  2  1  0  0  0
  1 53  1  0  0  0
  1 54  1  0  0  0
  1 55  1  0  0  0
  2  3  1  0  0  0
  2  4  1  0  0  0
  2 56  1  0  0  0
  3 57  1  0  0  0
  3 58  1  0  0  0
  3 59  1  0  0  0
  4 48  1  0  0  0
  4  5  2  0  0  0
  5  6  1  0  0  0
  5 60  1  0  0  0
  6  7  1  0  0  0
  6 46  2  0  0  0
  7  8  1  0  0  0
  7 61  1  0  0  0
  7 62  1  0  0  0
  8  9  1  0  0  0
  8 63  1  0  0  0
  8 99  1  0  0  0
  9 10  1  0  0  0
  9 64  1  0  0  0
  9 65  1  0  0  0
 10 49  1  0  0  0
 10 11  1  0  0  0
 10 12  1  0  0  0
 11 66  1  0  0  0
 12 50  1  0  0  0
 12 45  1  0  0  0
 12 13  1  0  0  0
 13 14  1  0  0  0
 13 67  1  0  0  0
 13 68  1  0  0  0
 14 51  1  0  0  0
 14 15  1  0  0  0
 14 16  1  0  0  0
 15 69  1  0  0  0
 15 70  1  0  0  0
 15 71  1  0  0  0
 16 17  1  0  0  0
 16 72  1  0  0  0
 16 73  1  0  0  0
 17 18  1  0  0  0
 17 74  1  0  0  0
 17 75  1  0  0  0
 18 19  1  0  0  0
 18 76  1  0  0  0
 18 77  1  0  0  0
 19 20  1  0  0  0
 19 78  1  0  0  0
 19 79  1  0  0  0
 20 21  1  0  0  0
 20 80  1  0  0  0
 20 81  1  0  0  0
 21 22  1  0  0  0
 21 30  1  0  0  0
 22 52  1  0  0  0
 22 23  1  0  0  0
 22 24  1  0  0  0
 23 82  1  0  0  0
 23 83  1  0  0  0
 23 84  1  0  0  0
 24 29  1  0  0  0
 24 25  2  0  0  0
 25 26  1  0  0  0
 25 85  1  0  0  0
 26 27  2  0  0  0
 26 86  1  0  0  0
 27 28  1  0  0  0
 27 87  1  0  0  0
 28 29  2  0  0  0
 28 88  1  0  0  0
 29 89  1  0  0  0
 30 31  2  0  0  0
 30 32  1  0  0  0
 32 37  1  0  0  0
 32 33  2  0  0  0
 33 34  1  0  0  0
 33 90  1  0  0  0
 34 35  2  0  0  0
 34 43  1  0  0  0
 35 36  1  0  0  0
 35 91  1  0  0  0
 36 37  2  0  0  0
 36 38  1  0  0  0
 37 92  1  0  0  0
 38 42  1  0  0  0
 38 39  2  0  0  0
 39 40  1  0  0  0
 40 41  2  0  0  0
 40 93  1  0  0  0
 41 42  1  0  0  0
 41 94  1  0  0  0
 43 44  2  0  0  0
 43 45  1  0  0  0
 45 95  1  0  0  0
 46 47  1  0  0  0
 46 96  1  0  0  0
 47 48  2  0  0  0
 47 97  1  0  0  0
 48 98  1  0  0  0
M  CHG  1   8   1
M  END
> <s_m_source_file>
BACE_7.smi

> <i_m_source_file_index>
1

> <i_lp_mmshare_version>
42013

> <i_f3d_flags>
0

> <s_epik_input>
bzFbY0hdW2NIXW5jMS1jKFtjSF0yKVtjSF1jKFtjSF1jMjMpQyg9TylbTkhdW0NASF0oW0NASF0oW09IXSlbQ0gyXVtOSF1bQ0gyXWMoW2NIXVtjSF1bY0hdNClbY0hdYzRbQ0hdKFtDSDNdKVtDSDNdKVtDSDJdW0NASF0oW0NIM10pW0NIMl1bQ0gyXVtDSDJdW0NIMl1bQ0gyXU4oQzM9TylbQ0BIXShbQ0gzXSljNVtjSF1bY0hdW2NIXVtjSF1bY0hdNQ==

> <s_epik_cmdline>
J2VwaWtfcHl0aG9uJywgJy1waCcsICc3LjAnLCAnLXRuJywgJzgnLCAnLW1hJywgJzIwMCcsICctaW1hZScsICc8aW5maWxlLm1hZT4nLCAnLW9tYWUnLCAnPG91dGZpbGUubWFlPic=

> <r_epik_Ionization_Penalty>
  0.0165

> <r_epik_Ionization_Penalty_Charging>
  0.0165

> <r_epik_Ionization_Penalty_Neutral>
  0.0000

> <r_epik_State_Penalty>
  0.0130

> <r_epik_Charging_Adjusted_Penalty>
0.0295552

> <i_epik_Tot_Q>
1

> <i_epik_Tot_abs_Q>
1

> <s_lp_Force_Field>
OPLS_2005

> <r_lp_Energy>
54.3097

> <b_lp_Chiralities_Consistent>
1

> <s_lp_Variant>
BACE_7.smi:1-1

> <chiral flag>
1

> <version>
0

> <s_i_glide_gridfile>
second_dock_grid_2

> <i_i_glide_lignum>
10

> <i_i_glide_rotatable_bonds>
10

> <r_i_docking_score>
-6.74418

> <r_i_glide_ligand_efficiency>
-0.140504

> <r_i_glide_ligand_efficiency_sa>
-0.510625

> <r_i_glide_ligand_efficiency_ln>
-1.3845

> <r_glide_XP_GScore>
-6.75718

> <r_i_glide_gscore>
-6.75718

> <r_i_glide_evdw>
-43.2096

> <r_i_glide_ecoul>
-19.5773

> <r_i_glide_energy>
-62.7869

> <r_i_glide_einternal>
9.8222

> <r_i_glide_emodel>
-85.3144

> <r_glide_XP_HBond>
-0.468495

> <i_i_glide_confnum>
1

> <i_i_glide_posenum>
9

> <r_i_glide_eff_state_penalty>
0.013

> <i_glide_XP_PoseRank>
1

$$$$
BACE_7.smi:1
                    3D
 Structure written by MMmdl.
 98102  0  0  1  0            999 V2000
   12.1243   49.1187  -13.2401 C   0  0  0  0  0  0
   13.2127   48.4384  -14.0828 C   0  0  0  0  0  0
   13.2965   49.0930  -15.4733 C   0  0  0  0  0  0
   12.9754   46.9306  -14.1017 C   0  0  0  0  0  0
   13.2133   46.2010  -12.9168 C   0  0  0  0  0  0
   12.9103   44.8273  -12.8407 C   0  0  0  0  0  0
   13.0298   44.1167  -11.5064 C   0  0  0  0  0  0
   13.5480   42.7722  -11.6374 N   0  0  0  0  0  0
   13.7914   42.1131  -10.3573 C   0  0  0  0  0  0
   14.8956   41.0481  -10.4910 C   0  0  1  0  0  0
   14.4600   40.1488  -11.4857 O   0  0  0  0  0  0
   16.3033   41.5887  -10.8627 C   0  0  2  0  0  0
   17.4369   40.5875  -10.5231 C   0  0  0  0  0  0
   18.8785   41.0993  -10.7893 C   0  0  2  0  0  0
   19.2130   41.1485  -12.2903 C   0  0  0  0  0  0
   19.9215   40.2932   -9.9859 C   0  0  0  0  0  0
   21.3621   40.8464  -10.0335 C   0  0  0  0  0  0
   21.5156   42.3503   -9.7241 C   0  0  0  0  0  0
   20.9982   42.7836   -8.3416 C   0  0  0  0  0  0
   21.1963   44.2961   -8.1036 C   0  0  0  0  0  0
   20.6467   44.7908   -6.8174 N   0  0  0  0  0  0
   21.5356   44.6542   -5.6253 C   0  0  2  0  0  0
   22.9480   45.2468   -5.8229 C   0  0  0  0  0  0
   21.5149   43.2753   -4.9599 C   0  0  0  0  0  0
   20.4883   42.9570   -4.0441 C   0  0  0  0  0  0
   20.4602   41.7014   -3.4015 C   0  0  0  0  0  0
   21.4418   40.7376   -3.6943 C   0  0  0  0  0  0
   22.4704   41.0468   -4.5975 C   0  0  0  0  0  0
   22.5150   42.3116   -5.2174 C   0  0  0  0  0  0
   19.4684   45.4811   -6.7083 C   0  0  0  0  0  0
   19.0519   45.9276   -5.6399 O   0  0  0  0  0  0
   18.6422   45.8068   -7.9247 C   0  0  0  0  0  0
   18.0965   44.7943   -8.7416 C   0  0  0  0  0  0
   17.3097   45.1158   -9.8725 C   0  0  0  0  0  0
   17.0476   46.4720  -10.1662 C   0  0  0  0  0  0
   17.5378   47.4950   -9.3254 C   0  0  0  0  0  0
   18.3313   47.1555   -8.2064 C   0  0  0  0  0  0
   17.2701   48.8971   -9.6361 C   0  0  0  0  0  0
   17.2604   49.9510   -8.8139 N   0  0  0  0  0  0
   17.0038   51.0452   -9.6290 C   0  0  0  0  0  0
   16.8601   50.5931  -10.9139 C   0  0  0  0  0  0
   17.0135   49.2329  -10.9299 O   0  0  0  0  0  0
   16.8164   44.0337  -10.7886 C   0  0  0  0  0  0
   16.6607   44.2381  -11.9935 O   0  0  0  0  0  0
   16.5657   42.8594  -10.1881 N   0  0  0  0  0  0
   12.4598   44.1516  -13.9959 C   0  0  0  0  0  0
   12.1942   44.8735  -15.1786 C   0  0  0  0  0  0
   12.4598   46.2566  -15.2338 C   0  0  0  0  0  0
   14.9524   40.5097   -9.5437 H   0  0  0  0  0  0
   16.3205   41.7533  -11.9393 H   0  0  0  0  0  0
   18.9419   42.1177  -10.4142 H   0  0  0  0  0  0
   21.1568   45.3078   -4.8405 H   0  0  0  0  0  0
   12.0599   48.7189  -12.2305 H   0  0  0  0  0  0
   11.1549   48.9511  -13.6954 H   0  0  0  0  0  0
   12.2932   50.1947  -13.1753 H   0  0  0  0  0  0
   14.1773   48.6000  -13.5985 H   0  0  0  0  0  0
   14.0599   48.6252  -16.0923 H   0  0  0  0  0  0
   13.5505   50.1508  -15.3896 H   0  0  0  0  0  0
   12.3470   49.0336  -16.0069 H   0  0  0  0  0  0
   13.5887   46.7098  -12.0413 H   0  0  0  0  0  0
   13.6869   44.6992  -10.8616 H   0  0  0  0  0  0
   12.0492   44.0975  -11.0300 H   0  0  0  0  0  0
   12.8576   42.2181  -12.1264 H   0  0  0  0  0  0
   14.0751   42.8333   -9.5898 H   0  0  0  0  0  0
   12.8659   41.6579  -10.0018 H   0  0  0  0  0  0
   13.5944   39.8370  -11.2360 H   0  0  0  0  0  0
   17.3493   40.3336   -9.4661 H   0  0  0  0  0  0
   17.2791   39.6528  -11.0604 H   0  0  0  0  0  0
   19.2577   40.1509  -12.7212 H   0  0  0  0  0  0
   20.1753   41.6277  -12.4677 H   0  0  0  0  0  0
   18.4698   41.7237  -12.8382 H   0  0  0  0  0  0
   19.6139   40.2495   -8.9423 H   0  0  0  0  0  0
   19.9267   39.2590  -10.3291 H   0  0  0  0  0  0
   21.9786   40.2744   -9.3357 H   0  0  0  0  0  0
   21.7844   40.6485  -11.0188 H   0  0  0  0  0  0
   22.5743   42.6021   -9.7933 H   0  0  0  0  0  0
   21.0304   42.9377  -10.5036 H   0  0  0  0  0  0
   19.9529   42.5093   -8.2277 H   0  0  0  0  0  0
   21.5308   42.2111   -7.5904 H   0  0  0  0  0  0
   22.2576   44.5218   -8.1843 H   0  0  0  0  0  0
   20.7755   44.8518   -8.9425 H   0  0  0  0  0  0
   23.4672   45.3158   -4.8664 H   0  0  0  0  0  0
   22.8986   46.2530   -6.2412 H   0  0  0  0  0  0
   23.5788   44.6500   -6.4774 H   0  0  0  0  0  0
   19.7184   43.6799   -3.8188 H   0  0  0  0  0  0
   19.6643   41.4714   -2.7073 H   0  0  0  0  0  0
   21.4083   39.7581   -3.2398 H   0  0  0  0  0  0
   23.2343   40.3132   -4.8114 H   0  0  0  0  0  0
   23.3145   42.5241   -5.9110 H   0  0  0  0  0  0
   18.2899   43.7643   -8.4965 H   0  0  0  0  0  0
   16.4606   46.7257  -11.0382 H   0  0  0  0  0  0
   18.7206   47.9362   -7.5680 H   0  0  0  0  0  0
   16.9459   52.0505   -9.2398 H   0  0  0  0  0  0
   16.6616   51.0725  -11.8613 H   0  0  0  0  0  0
   16.6701   42.8165   -9.1854 H   0  0  0  0  0  0
   12.2446   43.0945  -13.9719 H   0  0  0  0  0  0
   11.8077   44.3629  -16.0477 H   0  0  0  0  0  0
   12.2481   46.7827  -16.1521 H   0  0  0  0  0  0
  1  2  1  0  0  0
  1 53  1  0  0  0
  1 54  1  0  0  0
  1 55  1  0  0  0
  2  3  1  0  0  0
  2  4  1  0  0  0
  2 56  1  0  0  0
  3 57  1  0  0  0
  3 58  1  0  0  0
  3 59  1  0  0  0
  4 48  1  0  0  0
  4  5  2  0  0  0
  5  6  1  0  0  0
  5 60  1  0  0  0
  6  7  1  0  0  0
  6 46  2  0  0  0
  7  8  1  0  0  0
  7 61  1  0  0  0
  7 62  1  0  0  0
  8  9  1  0  0  0
  8 63  1  0  0  0
  9 10  1  0  0  0
  9 64  1  0  0  0
  9 65  1  0  0  0
 10 49  1  0  0  0
 10 11  1  0  0  0
 10 12  1  0  0  0
 11 66  1  0  0  0
 12 50  1  0  0  0
 12 45  1  0  0  0
 12 13  1  0  0  0
 13 14  1  0  0  0
 13 67  1  0  0  0
 13 68  1  0  0  0
 14 51  1  0  0  0
 14 15  1  0  0  0
 14 16  1  0  0  0
 15 69  1  0  0  0
 15 70  1  0  0  0
 15 71  1  0  0  0
 16 17  1  0  0  0
 16 72  1  0  0  0
 16 73  1  0  0  0
 17 18  1  0  0  0
 17 74  1  0  0  0
 17 75  1  0  0  0
 18 19  1  0  0  0
 18 76  1  0  0  0
 18 77  1  0  0  0
 19 20  1  0  0  0
 19 78  1  0  0  0
 19 79  1  0  0  0
 20 21  1  0  0  0
 20 80  1  0  0  0
 20 81  1  0  0  0
 21 22  1  0  0  0
 21 30  1  0  0  0
 22 52  1  0  0  0
 22 23  1  0  0  0
 22 24  1  0  0  0
 23 82  1  0  0  0
 23 83  1  0  0  0
 23 84  1  0  0  0
 24 29  1  0  0  0
 24 25  2  0  0  0
 25 26  1  0  0  0
 25 85  1  0  0  0
 26 27  2  0  0  0
 26 86  1  0  0  0
 27 28  1  0  0  0
 27 87  1  0  0  0
 28 29  2  0  0  0
 28 88  1  0  0  0
 29 89  1  0  0  0
 30 31  2  0  0  0
 30 32  1  0  0  0
 32 37  1  0  0  0
 32 33  2  0  0  0
 33 34  1  0  0  0
 33 90  1  0  0  0
 34 35  2  0  0  0
 34 43  1  0  0  0
 35 36  1  0  0  0
 35 91  1  0  0  0
 36 37  2  0  0  0
 36 38  1  0  0  0
 37 92  1  0  0  0
 38 42  1  0  0  0
 38 39  2  0  0  0
 39 40  1  0  0  0
 40 41  2  0  0  0
 40 93  1  0  0  0
 41 42  1  0  0  0
 41 94  1  0  0  0
 43 44  2  0  0  0
 43 45  1  0  0  0
 45 95  1  0  0  0
 46 47  1  0  0  0
 46 96  1  0  0  0
 47 48  2  0  0  0
 47 97  1  0  0  0
 48 98  1  0  0  0
M  END
> <s_m_source_file>
BACE_7.smi

> <i_m_source_file_index>
1

> <i_lp_mmshare_version>
42013

> <i_f3d_flags>
0

> <s_epik_input>
bzFbY0hdW2NIXW5jMS1jKFtjSF0yKVtjSF1jKFtjSF1jMjMpQyg9TylbTkhdW0NASF0oW0NASF0oW09IXSlbQ0gyXVtOSF1bQ0gyXWMoW2NIXVtjSF1bY0hdNClbY0hdYzRbQ0hdKFtDSDNdKVtDSDNdKVtDSDJdW0NASF0oW0NIM10pW0NIMl1bQ0gyXVtDSDJdW0NIMl1bQ0gyXU4oQzM9TylbQ0BIXShbQ0gzXSljNVtjSF1bY0hdW2NIXVtjSF1bY0hdNQ==

> <s_epik_cmdline>
J2VwaWtfcHl0aG9uJywgJy1waCcsICc3LjAnLCAnLXRuJywgJzgnLCAnLW1hJywgJzIwMCcsICctaW1hZScsICc8aW5maWxlLm1hZT4nLCAnLW9tYWUnLCAnPG91dGZpbGUubWFlPic=

> <r_epik_Ionization_Penalty>
  2.1294

> <r_epik_Ionization_Penalty_Charging>
  0.0000

> <r_epik_Ionization_Penalty_Neutral>
  2.1294

> <r_epik_State_Penalty>
  2.2676

> <r_epik_Charging_Adjusted_Penalty>
2.26762

> <i_epik_Tot_Q>
0

> <i_epik_Tot_abs_Q>
0

> <s_lp_Force_Field>
OPLS_2005

> <r_lp_Energy>
57.4228

> <b_lp_Chiralities_Consistent>
1

> <s_lp_Variant>
BACE_7.smi:1-2

> <chiral flag>
1

> <version>
0

> <s_i_glide_gridfile>
second_dock_grid_2

> <i_i_glide_lignum>
11

> <i_i_glide_rotatable_bonds>
10

> <r_i_docking_score>
-2.68766

> <r_i_glide_ligand_efficiency>
-0.0559929

> <r_i_glide_ligand_efficiency_sa>
-0.203492

> <r_i_glide_ligand_efficiency_ln>
-0.551745

> <r_glide_XP_GScore>
-4.95526

> <r_i_glide_gscore>
-4.95526

> <r_i_glide_evdw>
-43.0374

> <r_i_glide_ecoul>
-14.7878

> <r_i_glide_energy>
-57.8252

> <r_i_glide_einternal>
10.4191

> <r_i_glide_emodel>
-69.6073

> <r_glide_XP_HBond>
-1.50982

> <i_i_glide_confnum>
1

> <i_i_glide_posenum>
5

> <r_i_glide_eff_state_penalty>
2.2676

> <i_glide_XP_PoseRank>
1

$$$$
BACE_8.smi:1
                    3D
 Structure written by MMmdl.
 78 80  0  0  1  0            999 V2000
   30.2150   42.2587  -11.2303 C   0  0  0  0  0  0
   29.1538   41.7537  -12.2230 C   0  0  0  0  0  0
   29.6400   41.8688  -13.6782 C   0  0  0  0  0  0
   27.8070   42.4292  -11.9696 C   0  0  0  0  0  0
   27.4442   43.6339  -12.6115 C   0  0  0  0  0  0
   26.1914   44.2239  -12.3547 C   0  0  0  0  0  0
   25.2957   43.6213  -11.4500 C   0  0  0  0  0  0
   25.6519   42.4256  -10.7926 C   0  0  0  0  0  0
   24.7098   41.7798   -9.7914 C   0  0  0  0  0  0
   23.6747   40.9502  -10.4400 N   0  3  0  0  0  0
   22.4718   41.6411  -10.9684 C   0  0  0  0  0  0
   21.5913   42.2810   -9.8604 C   0  0  1  0  0  0
   21.9492   43.6426   -9.7123 O   0  0  0  0  0  0
   20.0492   42.2240  -10.0701 C   0  0  2  0  0  0
   19.3730   41.0360   -9.3299 C   0  0  0  0  0  0
   19.8665   39.5972   -9.6349 C   0  0  2  0  0  0
   19.2258   38.9998  -10.8994 C   0  0  0  0  0  0
   19.7361   38.6605   -8.4042 C   0  0  0  0  0  0
   18.3176   38.2060   -8.0156 C   0  0  0  0  0  0
   17.4828   39.3214   -7.7667 O   0  0  0  0  0  0
   16.1902   38.9622   -7.2977 C   0  0  0  0  0  0
   15.1784   39.9760   -7.8348 C   0  0  0  0  0  0
   15.1167   39.9342   -9.3716 C   0  0  0  0  0  0
   14.0599   40.8600   -9.9960 C   0  0  0  0  0  0
   14.2020   42.2707   -9.6501 N   0  0  0  0  0  0
   15.3530   43.0031   -9.9577 C   0  0  0  0  0  0
   16.2916   42.5876  -10.9272 C   0  0  0  0  0  0
   17.4772   43.3305  -11.0797 C   0  0  0  0  0  0
   17.6409   44.5046  -10.3180 C   0  0  0  0  0  0
   16.6329   44.8588   -9.4027 C   0  0  0  0  0  0
   16.8422   46.2754   -8.4402 Cl  0  0  0  0  0  0
   15.5091   44.1313   -9.2340 N   0  0  0  0  0  0
   18.5466   42.8590  -12.0193 C   0  0  0  0  0  0
   18.3757   42.9499  -13.2364 O   0  0  0  0  0  0
   19.6633   42.3142  -11.4892 N   0  0  0  0  0  0
   26.9112   41.8434  -11.0524 C   0  0  0  0  0  0
   21.8079   41.8069   -8.8986 H   0  0  0  0  0  0
   19.6550   43.1039   -9.5609 H   0  0  0  0  0  0
   20.9371   39.6444   -9.8148 H   0  0  0  0  0  0
   29.8946   42.0968  -10.2009 H   0  0  0  0  0  0
   30.3968   43.3255  -11.3582 H   0  0  0  0  0  0
   31.1631   41.7387  -11.3698 H   0  0  0  0  0  0
   29.0146   40.6847  -12.0392 H   0  0  0  0  0  0
   28.8909   41.4978  -14.3761 H   0  0  0  0  0  0
   30.5417   41.2764  -13.8313 H   0  0  0  0  0  0
   29.8810   42.8953  -13.9503 H   0  0  0  0  0  0
   28.1204   44.1194  -13.2973 H   0  0  0  0  0  0
   25.9185   45.1429  -12.8482 H   0  0  0  0  0  0
   24.3411   44.0897  -11.2610 H   0  0  0  0  0  0
   25.2880   41.1092   -9.1575 H   0  0  0  0  0  0
   24.2838   42.5251   -9.1238 H   0  0  0  0  0  0
   24.1165   40.4959  -11.2305 H   0  0  0  0  0  0
   22.7447   42.3692  -11.7323 H   0  0  0  0  0  0
   21.9050   40.8708  -11.4943 H   0  0  0  0  0  0
   22.7470   43.7120   -9.2066 H   0  0  0  0  0  0
   19.5140   41.2249   -8.2627 H   0  0  0  0  0  0
   18.2923   41.0863   -9.4640 H   0  0  0  0  0  0
   18.1396   38.9548  -10.8162 H   0  0  0  0  0  0
   19.5860   37.9882  -11.0772 H   0  0  0  0  0  0
   19.4622   39.5878  -11.7848 H   0  0  0  0  0  0
   20.3290   37.7656   -8.5881 H   0  0  0  0  0  0
   20.1974   39.1360   -7.5383 H   0  0  0  0  0  0
   17.8854   37.5872   -8.8019 H   0  0  0  0  0  0
   18.3662   37.5947   -7.1140 H   0  0  0  0  0  0
   15.8998   37.9686   -7.6402 H   0  0  0  0  0  0
   16.1889   38.9498   -6.2058 H   0  0  0  0  0  0
   14.1954   39.7516   -7.4169 H   0  0  0  0  0  0
   15.4448   40.9735   -7.4865 H   0  0  0  0  0  0
   16.1008   40.1520   -9.7819 H   0  0  0  0  0  0
   14.8906   38.9137   -9.6834 H   0  0  0  0  0  0
   14.0514   40.7512  -11.0799 H   0  0  0  0  0  0
   13.0803   40.5398   -9.6400 H   0  0  0  0  0  0
   13.6760   42.5707   -8.8406 H   0  0  0  0  0  0
   16.1507   41.6808  -11.4969 H   0  0  0  0  0  0
   18.5313   45.1069  -10.4050 H   0  0  0  0  0  0
   20.3391   41.9782  -12.1568 H   0  0  0  0  0  0
   27.2138   40.9470  -10.5358 H   0  0  0  0  0  0
   23.3882   40.2310   -9.7880 H   0  0  0  0  0  0
  1  2  1  0  0  0
  1 40  1  0  0  0
  1 41  1  0  0  0
  1 42  1  0  0  0
  2  3  1  0  0  0
  2  4  1  0  0  0
  2 43  1  0  0  0
  3 44  1  0  0  0
  3 45  1  0  0  0
  3 46  1  0  0  0
  4 36  1  0  0  0
  4  5  2  0  0  0
  5  6  1  0  0  0
  5 47  1  0  0  0
  6  7  2  0  0  0
  6 48  1  0  0  0
  7  8  1  0  0  0
  7 49  1  0  0  0
  8  9  1  0  0  0
  8 36  2  0  0  0
  9 10  1  0  0  0
  9 50  1  0  0  0
  9 51  1  0  0  0
 10 11  1  0  0  0
 10 52  1  0  0  0
 10 78  1  0  0  0
 11 12  1  0  0  0
 11 53  1  0  0  0
 11 54  1  0  0  0
 12 37  1  0  0  0
 12 13  1  0  0  0
 12 14  1  0  0  0
 13 55  1  0  0  0
 14 38  1  0  0  0
 14 35  1  0  0  0
 14 15  1  0  0  0
 15 16  1  0  0  0
 15 56  1  0  0  0
 15 57  1  0  0  0
 16 39  1  0  0  0
 16 17  1  0  0  0
 16 18  1  0  0  0
 17 58  1  0  0  0
 17 59  1  0  0  0
 17 60  1  0  0  0
 18 19  1  0  0  0
 18 61  1  0  0  0
 18 62  1  0  0  0
 19 20  1  0  0  0
 19 63  1  0  0  0
 19 64  1  0  0  0
 20 21  1  0  0  0
 21 22  1  0  0  0
 21 65  1  0  0  0
 21 66  1  0  0  0
 22 23  1  0  0  0
 22 67  1  0  0  0
 22 68  1  0  0  0
 23 24  1  0  0  0
 23 69  1  0  0  0
 23 70  1  0  0  0
 24 25  1  0  0  0
 24 71  1  0  0  0
 24 72  1  0  0  0
 25 26  1  0  0  0
 25 73  1  0  0  0
 26 32  1  0  0  0
 26 27  2  0  0  0
 27 28  1  0  0  0
 27 74  1  0  0  0
 28 29  2  0  0  0
 28 33  1  0  0  0
 29 30  1  0  0  0
 29 75  1  0  0  0
 30 31  1  0  0  0
 30 32  2  0  0  0
 33 34  2  0  0  0
 33 35  1  0  0  0
 35 76  1  0  0  0
 36 77  1  0  0  0
M  CHG  1  10   1
M  END
> <s_m_source_file>
BACE_8.smi

> <i_m_source_file_index>
1

> <i_lp_mmshare_version>
42013

> <i_f3d_flags>
0

> <s_epik_input>
W0NIM11bQ0hdKFtDSDNdKWMxW2NIXVtjSF1bY0hdYyhbY0hdMSlbQ0gyXVtOSF1bQ0gyXVtDQEBIXShbT0hdKVtDQEBIXShbTkhdQyg9TyljKFtjSF1jMjMpW2NIXWMoQ2wpbjMpW0NIMl1bQ0BIXShbQ0gzXSlbQ0gyXVtDSDJdT1tDSDJdW0NIMl1bQ0gyXVtDSDJdW05IXTI=

> <s_epik_cmdline>
J2VwaWtfcHl0aG9uJywgJy1waCcsICc3LjAnLCAnLXRuJywgJzgnLCAnLW1hJywgJzIwMCcsICctaW1hZScsICc8aW5maWxlLm1hZT4nLCAnLW9tYWUnLCAnPG91dGZpbGUubWFlPic=

> <r_lp_tautomer_probability>
1

> <r_epik_Ionization_Penalty>
  0.0176

> <r_epik_Ionization_Penalty_Charging>
  0.0176

> <r_epik_Ionization_Penalty_Neutral>
  0.0000

> <r_epik_State_Penalty>
  0.0139

> <r_epik_Charging_Adjusted_Penalty>
0.0314671

> <i_epik_Tot_Q>
1

> <i_epik_Tot_abs_Q>
1

> <s_lp_Force_Field>
OPLS_2005

> <r_lp_Energy>
30.2899

> <b_lp_Chiralities_Consistent>
1

> <s_lp_Variant>
BACE_8.smi:1-1

> <chiral flag>
1

> <version>
0

> <s_i_glide_gridfile>
second_dock_grid_2

> <i_i_glide_lignum>
12

> <i_i_glide_rotatable_bonds>
7

> <r_i_docking_score>
-4.01346

> <r_i_glide_ligand_efficiency>
-0.111485

> <r_i_glide_ligand_efficiency_sa>
-0.368115

> <r_i_glide_ligand_efficiency_ln>
-0.875629

> <r_glide_XP_GScore>
-4.02736

> <r_i_glide_gscore>
-4.02736

> <r_i_glide_evdw>
-40.4944

> <r_i_glide_ecoul>
-11.6927

> <r_i_glide_energy>
-52.1871

> <r_i_glide_einternal>
5.49228

> <r_i_glide_emodel>
-68.8741

> <r_glide_XP_HBond>
-0.7

> <i_i_glide_confnum>
1

> <i_i_glide_posenum>
6

> <r_i_glide_eff_state_penalty>
0.0139

> <i_glide_XP_PoseRank>
1

$$$$
BACE_8.smi:1
                    3D
 Structure written by MMmdl.
 77 79  0  0  1  0            999 V2000
   29.8707   45.6752  -10.0113 C   0  0  0  0  0  0
   29.7566   44.3521   -9.2387 C   0  0  0  0  0  0
   31.1338   43.8181   -8.8131 C   0  0  0  0  0  0
   28.9613   43.3197  -10.0275 C   0  0  0  0  0  0
   29.5260   42.6759  -11.1508 C   0  0  0  0  0  0
   28.7726   41.7424  -11.8880 C   0  0  0  0  0  0
   27.4467   41.4532  -11.5142 C   0  0  0  0  0  0
   26.8737   42.0915  -10.3954 C   0  0  0  0  0  0
   25.4300   41.8160  -10.0171 C   0  0  0  0  0  0
   24.4851   42.5483  -10.8580 N   0  0  0  0  0  0
   23.1823   42.7735  -10.2344 C   0  0  0  0  0  0
   22.2844   41.5231  -10.3288 C   0  0  1  0  0  0
   22.7087   40.6288   -9.3187 O   0  0  0  0  0  0
   20.7843   41.8547  -10.1177 C   0  0  2  0  0  0
   19.9911   40.8044   -9.2863 C   0  0  0  0  0  0
   20.0057   39.3331   -9.7777 C   0  0  2  0  0  0
   19.0749   39.0808  -10.9777 C   0  0  0  0  0  0
   19.7561   38.3293   -8.6242 C   0  0  0  0  0  0
   18.3047   38.1719   -8.1340 C   0  0  0  0  0  0
   17.7802   39.3994   -7.6569 O   0  0  0  0  0  0
   16.5072   39.2586   -7.0405 C   0  0  0  0  0  0
   15.7323   40.5751   -7.1812 C   0  0  0  0  0  0
   15.3691   40.8544   -8.6487 C   0  0  0  0  0  0
   14.6169   42.1790   -8.8945 C   0  0  0  0  0  0
   15.3274   43.3714   -8.4448 N   0  0  0  0  0  0
   16.5446   43.7868   -9.0026 C   0  0  0  0  0  0
   17.1086   43.1853  -10.1504 C   0  0  0  0  0  0
   18.3955   43.5829  -10.5599 C   0  0  0  0  0  0
   19.0264   44.6412   -9.8744 C   0  0  0  0  0  0
   18.3666   45.2170   -8.7715 C   0  0  0  0  0  0
   19.1356   46.5047   -7.9199 Cl  0  0  0  0  0  0
   17.1608   44.7888   -8.3386 N   0  0  0  0  0  0
   19.0698   42.8725  -11.6931 C   0  0  0  0  0  0
   18.6111   42.9558  -12.8301 O   0  0  0  0  0  0
   20.1511   42.1195  -11.4154 N   0  0  0  0  0  0
   27.6358   43.0156   -9.6508 C   0  0  0  0  0  0
   22.4189   41.0506  -11.3023 H   0  0  0  0  0  0
   20.7749   42.7743   -9.5356 H   0  0  0  0  0  0
   21.0167   39.1091  -10.1137 H   0  0  0  0  0  0
   28.8842   46.0750  -10.2497 H   0  0  0  0  0  0
   30.4132   45.5472  -10.9485 H   0  0  0  0  0  0
   30.3969   46.4283   -9.4243 H   0  0  0  0  0  0
   29.2037   44.5638   -8.3224 H   0  0  0  0  0  0
   31.0347   42.9038   -8.2270 H   0  0  0  0  0  0
   31.6616   44.5470   -8.1973 H   0  0  0  0  0  0
   31.7669   43.5964   -9.6726 H   0  0  0  0  0  0
   30.5371   42.8997  -11.4573 H   0  0  0  0  0  0
   29.2095   41.2555  -12.7473 H   0  0  0  0  0  0
   26.8680   40.7484  -12.0930 H   0  0  0  0  0  0
   25.2555   40.7452  -10.1260 H   0  0  0  0  0  0
   25.2666   42.0454   -8.9633 H   0  0  0  0  0  0
   24.3671   42.0712  -11.7464 H   0  0  0  0  0  0
   23.2979   43.0856   -9.1954 H   0  0  0  0  0  0
   22.6950   43.6056  -10.7401 H   0  0  0  0  0  0
   23.5502   40.2765   -9.5654 H   0  0  0  0  0  0
   20.3906   40.8327   -8.2724 H   0  0  0  0  0  0
   18.9586   41.1343   -9.1755 H   0  0  0  0  0  0
   18.0531   39.3965  -10.7644 H   0  0  0  0  0  0
   19.0502   38.0224  -11.2382 H   0  0  0  0  0  0
   19.4084   39.6169  -11.8649 H   0  0  0  0  0  0
   20.0966   37.3465   -8.9520 H   0  0  0  0  0  0
   20.3941   38.5814   -7.7763 H   0  0  0  0  0  0
   17.6719   37.7865   -8.9345 H   0  0  0  0  0  0
   18.2827   37.4329   -7.3314 H   0  0  0  0  0  0
   15.9283   38.4517   -7.4937 H   0  0  0  0  0  0
   16.6481   39.0016   -5.9900 H   0  0  0  0  0  0
   14.8200   40.5276   -6.5859 H   0  0  0  0  0  0
   16.3296   41.3907   -6.7721 H   0  0  0  0  0  0
   16.2749   40.8084   -9.2495 H   0  0  0  0  0  0
   14.7451   40.0388   -9.0152 H   0  0  0  0  0  0
   14.3810   42.2839   -9.9540 H   0  0  0  0  0  0
   13.6600   42.1496   -8.3732 H   0  0  0  0  0  0
   15.0033   43.8256   -7.6029 H   0  0  0  0  0  0
   16.6015   42.3985  -10.6880 H   0  0  0  0  0  0
   20.0029   44.9936  -10.1746 H   0  0  0  0  0  0
   20.5778   41.6538  -12.2032 H   0  0  0  0  0  0
   27.1891   43.5100   -8.8004 H   0  0  0  0  0  0
  1  2  1  0  0  0
  1 40  1  0  0  0
  1 41  1  0  0  0
  1 42  1  0  0  0
  2  3  1  0  0  0
  2  4  1  0  0  0
  2 43  1  0  0  0
  3 44  1  0  0  0
  3 45  1  0  0  0
  3 46  1  0  0  0
  4 36  1  0  0  0
  4  5  2  0  0  0
  5  6  1  0  0  0
  5 47  1  0  0  0
  6  7  2  0  0  0
  6 48  1  0  0  0
  7  8  1  0  0  0
  7 49  1  0  0  0
  8  9  1  0  0  0
  8 36  2  0  0  0
  9 10  1  0  0  0
  9 50  1  0  0  0
  9 51  1  0  0  0
 10 11  1  0  0  0
 10 52  1  0  0  0
 11 12  1  0  0  0
 11 53  1  0  0  0
 11 54  1  0  0  0
 12 37  1  0  0  0
 12 13  1  0  0  0
 12 14  1  0  0  0
 13 55  1  0  0  0
 14 38  1  0  0  0
 14 35  1  0  0  0
 14 15  1  0  0  0
 15 16  1  0  0  0
 15 56  1  0  0  0
 15 57  1  0  0  0
 16 39  1  0  0  0
 16 17  1  0  0  0
 16 18  1  0  0  0
 17 58  1  0  0  0
 17 59  1  0  0  0
 17 60  1  0  0  0
 18 19  1  0  0  0
 18 61  1  0  0  0
 18 62  1  0  0  0
 19 20  1  0  0  0
 19 63  1  0  0  0
 19 64  1  0  0  0
 20 21  1  0  0  0
 21 22  1  0  0  0
 21 65  1  0  0  0
 21 66  1  0  0  0
 22 23  1  0  0  0
 22 67  1  0  0  0
 22 68  1  0  0  0
 23 24  1  0  0  0
 23 69  1  0  0  0
 23 70  1  0  0  0
 24 25  1  0  0  0
 24 71  1  0  0  0
 24 72  1  0  0  0
 25 26  1  0  0  0
 25 73  1  0  0  0
 26 32  1  0  0  0
 26 27  2  0  0  0
 27 28  1  0  0  0
 27 74  1  0  0  0
 28 29  2  0  0  0
 28 33  1  0  0  0
 29 30  1  0  0  0
 29 75  1  0  0  0
 30 31  1  0  0  0
 30 32  2  0  0  0
 33 34  2  0  0  0
 33 35  1  0  0  0
 35 76  1  0  0  0
 36 77  1  0  0  0
M  END
> <s_m_source_file>
BACE_8.smi

> <i_m_source_file_index>
1

> <i_lp_mmshare_version>
42013

> <i_f3d_flags>
0

> <s_epik_input>
W0NIM11bQ0hdKFtDSDNdKWMxW2NIXVtjSF1bY0hdYyhbY0hdMSlbQ0gyXVtOSF1bQ0gyXVtDQEBIXShbT0hdKVtDQEBIXShbTkhdQyg9TyljKFtjSF1jMjMpW2NIXWMoQ2wpbjMpW0NIMl1bQ0BIXShbQ0gzXSlbQ0gyXVtDSDJdT1tDSDJdW0NIMl1bQ0gyXVtDSDJdW05IXTI=

> <s_epik_cmdline>
J2VwaWtfcHl0aG9uJywgJy1waCcsICc3LjAnLCAnLXRuJywgJzgnLCAnLW1hJywgJzIwMCcsICctaW1hZScsICc8aW5maWxlLm1hZT4nLCAnLW9tYWUnLCAnPG91dGZpbGUubWFlPic=

> <r_lp_tautomer_probability>
1

> <r_epik_Ionization_Penalty>
  2.0939

> <r_epik_Ionization_Penalty_Charging>
  0.0000

> <r_epik_Ionization_Penalty_Neutral>
  2.0939

> <r_epik_State_Penalty>
  2.2295

> <r_epik_Charging_Adjusted_Penalty>
2.2295

> <i_epik_Tot_Q>
0

> <i_epik_Tot_abs_Q>
0

> <s_lp_Force_Field>
OPLS_2005

> <r_lp_Energy>
37.0344

> <b_lp_Chiralities_Consistent>
1

> <s_lp_Variant>
BACE_8.smi:1-2

> <chiral flag>
1

> <version>
0

> <s_i_glide_gridfile>
second_dock_grid_2

> <i_i_glide_lignum>
13

> <i_i_glide_rotatable_bonds>
7

> <r_i_docking_score>
-1.68768

> <r_i_glide_ligand_efficiency>
-0.0468799

> <r_i_glide_ligand_efficiency_sa>
-0.154794

> <r_i_glide_ligand_efficiency_ln>
-0.368206

> <r_glide_XP_GScore>
-3.91718

> <r_i_glide_gscore>
-3.91718

> <r_i_glide_evdw>
-36.1288

> <r_i_glide_ecoul>
-7.80091

> <r_i_glide_energy>
-43.9297

> <r_i_glide_einternal>
6.32976

> <r_i_glide_emodel>
-63.0694

> <r_glide_XP_HBond>
0

> <i_i_glide_confnum>
1

> <i_i_glide_posenum>
7

> <r_i_glide_eff_state_penalty>
2.2295

> <i_glide_XP_PoseRank>
1

$$$$
BACE_9.smi:1
                    3D
 Structure written by MMmdl.
 88 90  0  0  1  0            999 V2000
   22.9084   41.2721   -4.4796 C   0  0  0  0  0  0
   22.4505   40.9321   -5.7842 O   0  0  0  0  0  0
   21.6808   39.7366   -5.7803 C   0  0  0  0  0  0
   20.9058   39.5143   -7.0705 C   0  0  0  0  0  0
   19.5939   38.9958   -7.0145 C   0  0  0  0  0  0
   18.8511   38.7760   -8.1917 C   0  0  0  0  0  0
   19.4242   39.1267   -9.4362 C   0  0  0  0  0  0
   20.7161   39.6961   -9.5082 C   0  0  0  0  0  0
   21.4804   39.8083   -8.3253 C   0  0  0  0  0  0
   21.2540   40.1327  -10.8444 C   0  0  0  0  0  0
   21.2606   39.3497  -11.7861 O   0  0  0  0  0  0
   21.6732   41.3986  -11.0441 N   0  0  0  0  0  0
   21.5915   42.6274  -10.2395 C   0  0  1  0  0  0
   20.2458   42.8277   -9.4774 C   0  0  0  0  0  0
   18.9240   42.6916  -10.2743 C   0  0  2  0  0  0
   18.7682   43.8226  -11.3097 C   0  0  0  0  0  0
   17.7484   42.6306   -9.2720 C   0  0  0  0  0  0
   16.3449   42.4889   -9.8948 C   0  0  0  0  0  0
   15.2422   42.1713   -8.8623 C   0  0  0  0  0  0
   15.2811   40.7790   -8.1955 C   0  0  0  0  0  0
   14.8838   39.6011   -9.1113 C   0  0  0  0  0  0
   16.0305   38.9656   -9.9241 C   0  0  0  0  0  0
   16.7735   37.8113   -9.2206 C   0  0  0  0  0  0
   17.5611   38.2362   -8.0705 N   0  0  0  0  0  0
   22.8330   42.8427   -9.3235 C   0  0  2  0  0  0
   22.7574   44.1649   -8.8152 O   0  0  0  0  0  0
   24.2454   42.7535   -9.9631 C   0  0  0  0  0  0
   24.6518   41.4063  -10.4382 N   0  3  0  0  0  0
   26.0720   41.0109  -10.2505 C   0  0  0  0  0  0
   27.1535   42.0439  -10.5912 C   0  0  0  0  0  0
   27.9135   41.8976  -11.7745 C   0  0  0  0  0  0
   28.9884   42.7687  -12.0618 C   0  0  0  0  0  0
   29.2853   43.8199  -11.1691 C   0  0  0  0  0  0
   28.5383   43.9737   -9.9893 C   0  0  0  0  0  0
   27.4973   43.0783   -9.6902 C   0  0  0  0  0  0
   29.8592   42.5357  -13.2922 C   0  0  0  0  0  0
   31.2927   42.1599  -12.8828 C   0  0  0  0  0  0
   29.8663   43.7507  -14.2324 C   0  0  0  0  0  0
   21.6320   43.4204  -10.9871 H   0  0  0  0  0  0
   18.9259   41.7474  -10.8161 H   0  0  0  0  0  0
   22.7818   42.1924   -8.4555 H   0  0  0  0  0  0
   23.5252   42.1707   -4.5232 H   0  0  0  0  0  0
   23.5150   40.4730   -4.0399 H   0  0  0  0  0  0
   22.0734   41.4772   -3.8033 H   0  0  0  0  0  0
   22.3452   38.8937   -5.6077 H   0  0  0  0  0  0
   20.9724   39.7554   -4.9502 H   0  0  0  0  0  0
   19.1544   38.7583   -6.0554 H   0  0  0  0  0  0
   18.8712   38.9926  -10.3544 H   0  0  0  0  0  0
   22.5030   40.1429   -8.3665 H   0  0  0  0  0  0
   22.0017   41.5459  -11.9888 H   0  0  0  0  0  0
   20.2172   42.1562   -8.6218 H   0  0  0  0  0  0
   20.2440   43.8224   -9.0292 H   0  0  0  0  0  0
   18.7458   44.8000  -10.8275 H   0  0  0  0  0  0
   17.8486   43.7155  -11.8842 H   0  0  0  0  0  0
   19.5866   43.8216  -12.0317 H   0  0  0  0  0  0
   17.9197   41.7819   -8.6135 H   0  0  0  0  0  0
   17.7634   43.5109   -8.6306 H   0  0  0  0  0  0
   16.0849   43.4314  -10.3752 H   0  0  0  0  0  0
   16.3471   41.7545  -10.6975 H   0  0  0  0  0  0
   15.2793   42.9235   -8.0747 H   0  0  0  0  0  0
   14.2685   42.2959   -9.3360 H   0  0  0  0  0  0
   16.2354   40.5982   -7.7084 H   0  0  0  0  0  0
   14.5514   40.8017   -7.3806 H   0  0  0  0  0  0
   14.4099   38.8214   -8.5110 H   0  0  0  0  0  0
   14.1032   39.9378   -9.7931 H   0  0  0  0  0  0
   15.5908   38.5609  -10.8374 H   0  0  0  0  0  0
   16.7428   39.7130  -10.2562 H   0  0  0  0  0  0
   16.0523   37.0695   -8.8787 H   0  0  0  0  0  0
   17.4157   37.2909   -9.9338 H   0  0  0  0  0  0
   17.1904   38.0073   -7.1522 H   0  0  0  0  0  0
   23.2550   44.2173   -8.0126 H   0  0  0  0  0  0
   24.3594   43.4705  -10.7762 H   0  0  0  0  0  0
   24.9330   43.0601   -9.1805 H   0  0  0  0  0  0
   24.0888   40.7087   -9.9742 H   0  0  0  0  0  0
   26.2054   40.6441   -9.2403 H   0  0  0  0  0  0
   26.2357   40.1480  -10.8896 H   0  0  0  0  0  0
   27.7094   41.0716  -12.4389 H   0  0  0  0  0  0
   30.1068   44.4937  -11.3677 H   0  0  0  0  0  0
   28.7893   44.7651   -9.2976 H   0  0  0  0  0  0
   26.9880   43.1923   -8.7477 H   0  0  0  0  0  0
   29.4454   41.6893  -13.8449 H   0  0  0  0  0  0
   31.2942   41.3476  -12.1620 H   0  0  0  0  0  0
   31.8116   43.0006  -12.4195 H   0  0  0  0  0  0
   31.8792   41.8428  -13.7459 H   0  0  0  0  0  0
   28.8600   44.0320  -14.5292 H   0  0  0  0  0  0
   30.4290   43.5364  -15.1389 H   0  0  0  0  0  0
   30.3241   44.6208  -13.7617 H   0  0  0  0  0  0
   24.4587   41.3432  -11.4307 H   0  0  0  0  0  0
  1  2  1  0  0  0
  1 42  1  0  0  0
  1 43  1  0  0  0
  1 44  1  0  0  0
  2  3  1  0  0  0
  3  4  1  0  0  0
  3 45  1  0  0  0
  3 46  1  0  0  0
  4  9  1  0  0  0
  4  5  2  0  0  0
  5  6  1  0  0  0
  5 47  1  0  0  0
  6 24  1  0  0  0
  6  7  2  0  0  0
  7  8  1  0  0  0
  7 48  1  0  0  0
  8  9  2  0  0  0
  8 10  1  0  0  0
  9 49  1  0  0  0
 10 11  2  0  0  0
 10 12  1  0  0  0
 12 13  1  0  0  0
 12 50  1  0  0  0
 13 39  1  0  0  0
 13 14  1  0  0  0
 13 25  1  0  0  0
 14 15  1  0  0  0
 14 51  1  0  0  0
 14 52  1  0  0  0
 15 40  1  0  0  0
 15 16  1  0  0  0
 15 17  1  0  0  0
 16 53  1  0  0  0
 16 54  1  0  0  0
 16 55  1  0  0  0
 17 18  1  0  0  0
 17 56  1  0  0  0
 17 57  1  0  0  0
 18 19  1  0  0  0
 18 58  1  0  0  0
 18 59  1  0  0  0
 19 20  1  0  0  0
 19 60  1  0  0  0
 19 61  1  0  0  0
 20 21  1  0  0  0
 20 62  1  0  0  0
 20 63  1  0  0  0
 21 22  1  0  0  0
 21 64  1  0  0  0
 21 65  1  0  0  0
 22 23  1  0  0  0
 22 66  1  0  0  0
 22 67  1  0  0  0
 23 24  1  0  0  0
 23 68  1  0  0  0
 23 69  1  0  0  0
 24 70  1  0  0  0
 25 41  1  0  0  0
 25 26  1  0  0  0
 25 27  1  0  0  0
 26 71  1  0  0  0
 27 28  1  0  0  0
 27 72  1  0  0  0
 27 73  1  0  0  0
 28 29  1  0  0  0
 28 74  1  0  0  0
 28 88  1  0  0  0
 29 30  1  0  0  0
 29 75  1  0  0  0
 29 76  1  0  0  0
 30 35  1  0  0  0
 30 31  2  0  0  0
 31 32  1  0  0  0
 31 77  1  0  0  0
 32 33  2  0  0  0
 32 36  1  0  0  0
 33 34  1  0  0  0
 33 78  1  0  0  0
 34 35  2  0  0  0
 34 79  1  0  0  0
 35 80  1  0  0  0
 36 37  1  0  0  0
 36 38  1  0  0  0
 36 81  1  0  0  0
 37 82  1  0  0  0
 37 83  1  0  0  0
 37 84  1  0  0  0
 38 85  1  0  0  0
 38 86  1  0  0  0
 38 87  1  0  0  0
M  CHG  1  28   1
M  END
> <s_m_source_file>
BACE_9.smi

> <i_m_source_file_index>
1

> <i_lp_mmshare_version>
42013

> <i_f3d_flags>
0

> <s_epik_input>
W2NIXTFbY0hdW2NIXWMoW0NIXShbQ0gzXSlbQ0gzXSlbY0hdYzFbQ0gyXVtOSF1bQ0gyXVtDQEBIXShbT0hdKVtDQEBIXShbTkhdQyg9TyljKFtjSF0yKVtjSF1jKFtjSF1jMjMpW0NIMl1PW0NIM10pW0NIMl1bQ0BIXShbQ0gzXSlbQ0gyXVtDSDJdW0NIMl1bQ0gyXVtDSDJdW0NIMl1bQ0gyXVtOSF0z

> <s_epik_cmdline>
J2VwaWtfcHl0aG9uJywgJy1waCcsICc3LjAnLCAnLXRuJywgJzgnLCAnLW1hJywgJzIwMCcsICctaW1hZScsICc8aW5maWxlLm1hZT4nLCAnLW9tYWUnLCAnPG91dGZpbGUubWFlPic=

> <r_epik_Ionization_Penalty>
  0.0171

> <r_epik_Ionization_Penalty_Charging>
  0.0165

> <r_epik_Ionization_Penalty_Neutral>
  0.0006

> <r_epik_State_Penalty>
  0.0130

> <r_epik_Charging_Adjusted_Penalty>
0.0295552

> <i_epik_Tot_Q>
1

> <i_epik_Tot_abs_Q>
1

> <s_lp_Force_Field>
OPLS_2005

> <r_lp_Energy>
36.2782

> <b_lp_Chiralities_Consistent>
1

> <s_lp_Variant>
BACE_9.smi:1-1

> <chiral flag>
1

> <version>
0

> <s_i_glide_gridfile>
second_dock_grid_2

> <i_i_glide_lignum>
14

> <i_i_glide_rotatable_bonds>
9

> <r_i_docking_score>
-4.09933

> <r_i_glide_ligand_efficiency>
-0.107877

> <r_i_glide_ligand_efficiency_sa>
-0.362681

> <r_i_glide_ligand_efficiency_ln>
-0.883937

> <r_glide_XP_GScore>
-4.11233

> <r_i_glide_gscore>
-4.11233

> <r_i_glide_evdw>
-41.9129

> <r_i_glide_ecoul>
-8.60495

> <r_i_glide_energy>
-50.5179

> <r_i_glide_einternal>
5.82481

> <r_i_glide_emodel>
-67.2222

> <r_glide_XP_HBond>
-0.0504414

> <i_i_glide_confnum>
1

> <i_i_glide_posenum>
1

> <r_i_glide_eff_state_penalty>
0.013

> <i_glide_XP_PoseRank>
1

$$$$
BACE_9.smi:1
                    3D
 Structure written by MMmdl.
 87 89  0  0  1  0            999 V2000
   22.3488   39.9497   -4.4041 C   0  0  0  0  0  0
   21.4567   39.8865   -5.5039 O   0  0  0  0  0  0
   21.9990   39.1636   -6.5972 C   0  0  0  0  0  0
   21.0222   39.0760   -7.7493 C   0  0  0  0  0  0
   19.7059   38.6161   -7.5315 C   0  0  0  0  0  0
   18.7854   38.5419   -8.5973 C   0  0  0  0  0  0
   19.1920   38.9694   -9.8864 C   0  0  0  0  0  0
   20.4937   39.4788  -10.0969 C   0  0  0  0  0  0
   21.4249   39.4550   -9.0414 C   0  0  0  0  0  0
   20.8685   40.0569  -11.4287 C   0  0  0  0  0  0
   20.8606   39.3504  -12.4338 O   0  0  0  0  0  0
   21.1843   41.3622  -11.5159 N   0  0  0  0  0  0
   21.2284   42.4624  -10.5335 C   0  0  1  0  0  0
   19.9723   42.5956   -9.6320 C   0  0  0  0  0  0
   18.5947   42.6000  -10.3374 C   0  0  2  0  0  0
   18.4155   43.8446  -11.2258 C   0  0  0  0  0  0
   17.4879   42.4718   -9.2672 C   0  0  0  0  0  0
   16.0507   42.3847   -9.8118 C   0  0  0  0  0  0
   15.0107   42.0195   -8.7341 C   0  0  0  0  0  0
   15.1217   40.6144   -8.0981 C   0  0  0  0  0  0
   14.6766   39.4481   -8.9997 C   0  0  0  0  0  0
   15.7643   38.8845   -9.9383 C   0  0  0  0  0  0
   16.5620   37.6962   -9.3733 C   0  0  0  0  0  0
   17.4912   38.0690   -8.3192 N   0  0  0  0  0  0
   22.5490   42.5180   -9.7129 C   0  0  2  0  0  0
   22.7170   43.8487   -9.2716 O   0  0  0  0  0  0
   23.8207   42.1598  -10.5147 C   0  0  0  0  0  0
   24.8971   41.6716   -9.6533 N   0  0  0  0  0  0
   26.1124   41.3033  -10.3851 C   0  0  0  0  0  0
   26.9331   42.5039  -10.8199 C   0  0  0  0  0  0
   26.6289   43.1896  -12.0153 C   0  0  0  0  0  0
   27.3444   44.3503  -12.3801 C   0  0  0  0  0  0
   28.3964   44.8028  -11.5539 C   0  0  0  0  0  0
   28.7175   44.1070  -10.3731 C   0  0  0  0  0  0
   27.9850   42.9653  -10.0060 C   0  0  0  0  0  0
   26.9471   45.1190  -13.6345 C   0  0  0  0  0  0
   28.1477   45.4275  -14.5443 C   0  0  0  0  0  0
   26.1692   46.3950  -13.2825 C   0  0  0  0  0  0
   21.2474   43.3426  -11.1755 H   0  0  0  0  0  0
   18.5221   41.7188  -10.9749 H   0  0  0  0  0  0
   22.4711   41.8930   -8.8267 H   0  0  0  0  0  0
   21.8875   40.4978   -3.5833 H   0  0  0  0  0  0
   23.2683   40.4643   -4.6791 H   0  0  0  0  0  0
   22.6023   38.9499   -4.0413 H   0  0  0  0  0  0
   22.9275   39.6336   -6.9310 H   0  0  0  0  0  0
   22.2422   38.1486   -6.2863 H   0  0  0  0  0  0
   19.4050   38.3222   -6.5361 H   0  0  0  0  0  0
   18.5059   38.9486  -10.7168 H   0  0  0  0  0  0
   22.4415   39.7713   -9.2160 H   0  0  0  0  0  0
   21.4666   41.6364  -12.4449 H   0  0  0  0  0  0
   19.9900   41.8026   -8.8856 H   0  0  0  0  0  0
   20.0551   43.5152   -9.0523 H   0  0  0  0  0  0
   18.4766   44.7607  -10.6397 H   0  0  0  0  0  0
   17.4554   43.8367  -11.7365 H   0  0  0  0  0  0
   19.1789   43.8917  -12.0005 H   0  0  0  0  0  0
   17.6995   41.5753   -8.6849 H   0  0  0  0  0  0
   17.5532   43.3009   -8.5606 H   0  0  0  0  0  0
   15.7770   43.3563  -10.2205 H   0  0  0  0  0  0
   15.9905   41.6975  -10.6534 H   0  0  0  0  0  0
   15.0749   42.7590   -7.9375 H   0  0  0  0  0  0
   14.0118   42.1322   -9.1574 H   0  0  0  0  0  0
   16.1112   40.4293   -7.6841 H   0  0  0  0  0  0
   14.4608   40.6101   -7.2313 H   0  0  0  0  0  0
   14.3009   38.6358   -8.3740 H   0  0  0  0  0  0
   13.8162   39.7681   -9.5910 H   0  0  0  0  0  0
   15.2602   38.5446  -10.8400 H   0  0  0  0  0  0
   16.4442   39.6625  -10.2723 H   0  0  0  0  0  0
   15.8768   36.9507   -8.9709 H   0  0  0  0  0  0
   17.1091   37.1951  -10.1717 H   0  0  0  0  0  0
   17.2551   37.7619   -7.3790 H   0  0  0  0  0  0
   22.0873   44.0249   -8.5902 H   0  0  0  0  0  0
   23.6057   41.3755  -11.2365 H   0  0  0  0  0  0
   24.1338   43.0254  -11.0984 H   0  0  0  0  0  0
   24.5766   40.8701   -9.1217 H   0  0  0  0  0  0
   26.7393   40.6881   -9.7416 H   0  0  0  0  0  0
   25.8700   40.6793  -11.2402 H   0  0  0  0  0  0
   25.8196   42.8356  -12.6344 H   0  0  0  0  0  0
   28.9514   45.6923  -11.8109 H   0  0  0  0  0  0
   29.5193   44.4633   -9.7400 H   0  0  0  0  0  0
   28.2192   42.4518   -9.0888 H   0  0  0  0  0  0
   26.2698   44.4815  -14.2008 H   0  0  0  0  0  0
   28.6866   44.5186  -14.8152 H   0  0  0  0  0  0
   28.8602   46.1010  -14.0649 H   0  0  0  0  0  0
   27.8234   45.9044  -15.4687 H   0  0  0  0  0  0
   25.2769   46.1585  -12.7002 H   0  0  0  0  0  0
   25.8448   46.9166  -14.1822 H   0  0  0  0  0  0
   26.7764   47.0848  -12.6971 H   0  0  0  0  0  0
  1  2  1  0  0  0
  1 42  1  0  0  0
  1 43  1  0  0  0
  1 44  1  0  0  0
  2  3  1  0  0  0
  3  4  1  0  0  0
  3 45  1  0  0  0
  3 46  1  0  0  0
  4  9  1  0  0  0
  4  5  2  0  0  0
  5  6  1  0  0  0
  5 47  1  0  0  0
  6 24  1  0  0  0
  6  7  2  0  0  0
  7  8  1  0  0  0
  7 48  1  0  0  0
  8  9  2  0  0  0
  8 10  1  0  0  0
  9 49  1  0  0  0
 10 11  2  0  0  0
 10 12  1  0  0  0
 12 13  1  0  0  0
 12 50  1  0  0  0
 13 39  1  0  0  0
 13 14  1  0  0  0
 13 25  1  0  0  0
 14 15  1  0  0  0
 14 51  1  0  0  0
 14 52  1  0  0  0
 15 40  1  0  0  0
 15 16  1  0  0  0
 15 17  1  0  0  0
 16 53  1  0  0  0
 16 54  1  0  0  0
 16 55  1  0  0  0
 17 18  1  0  0  0
 17 56  1  0  0  0
 17 57  1  0  0  0
 18 19  1  0  0  0
 18 58  1  0  0  0
 18 59  1  0  0  0
 19 20  1  0  0  0
 19 60  1  0  0  0
 19 61  1  0  0  0
 20 21  1  0  0  0
 20 62  1  0  0  0
 20 63  1  0  0  0
 21 22  1  0  0  0
 21 64  1  0  0  0
 21 65  1  0  0  0
 22 23  1  0  0  0
 22 66  1  0  0  0
 22 67  1  0  0  0
 23 24  1  0  0  0
 23 68  1  0  0  0
 23 69  1  0  0  0
 24 70  1  0  0  0
 25 41  1  0  0  0
 25 26  1  0  0  0
 25 27  1  0  0  0
 26 71  1  0  0  0
 27 28  1  0  0  0
 27 72  1  0  0  0
 27 73  1  0  0  0
 28 29  1  0  0  0
 28 74  1  0  0  0
 29 30  1  0  0  0
 29 75  1  0  0  0
 29 76  1  0  0  0
 30 35  1  0  0  0
 30 31  2  0  0  0
 31 32  1  0  0  0
 31 77  1  0  0  0
 32 33  2  0  0  0
 32 36  1  0  0  0
 33 34  1  0  0  0
 33 78  1  0  0  0
 34 35  2  0  0  0
 34 79  1  0  0  0
 35 80  1  0  0  0
 36 37  1  0  0  0
 36 38  1  0  0  0
 36 81  1  0  0  0
 37 82  1  0  0  0
 37 83  1  0  0  0
 37 84  1  0  0  0
 38 85  1  0  0  0
 38 86  1  0  0  0
 38 87  1  0  0  0
M  END
> <s_m_source_file>
BACE_9.smi

> <i_m_source_file_index>
1

> <i_lp_mmshare_version>
42013

> <i_f3d_flags>
0

> <s_epik_input>
W2NIXTFbY0hdW2NIXWMoW0NIXShbQ0gzXSlbQ0gzXSlbY0hdYzFbQ0gyXVtOSF1bQ0gyXVtDQEBIXShbT0hdKVtDQEBIXShbTkhdQyg9TyljKFtjSF0yKVtjSF1jKFtjSF1jMjMpW0NIMl1PW0NIM10pW0NIMl1bQ0BIXShbQ0gzXSlbQ0gyXVtDSDJdW0NIMl1bQ0gyXVtDSDJdW0NIMl1bQ0gyXVtOSF0z

> <s_epik_cmdline>
J2VwaWtfcHl0aG9uJywgJy1waCcsICc3LjAnLCAnLXRuJywgJzgnLCAnLW1hJywgJzIwMCcsICctaW1hZScsICc8aW5maWxlLm1hZT4nLCAnLW9tYWUnLCAnPG91dGZpbGUubWFlPic=

> <r_epik_Ionization_Penalty>
  2.1300

> <r_epik_Ionization_Penalty_Charging>
  0.0000

> <r_epik_Ionization_Penalty_Neutral>
  2.1300

> <r_epik_State_Penalty>
  2.2676

> <r_epik_Charging_Adjusted_Penalty>
2.26762

> <i_epik_Tot_Q>
0

> <i_epik_Tot_abs_Q>
0

> <s_lp_Force_Field>
OPLS_2005

> <r_lp_Energy>
48.0441

> <b_lp_Chiralities_Consistent>
1

> <s_lp_Variant>
BACE_9.smi:1-2

> <chiral flag>
1

> <version>
0

> <s_i_glide_gridfile>
second_dock_grid_2

> <i_i_glide_lignum>
15

> <i_i_glide_rotatable_bonds>
9

> <r_i_docking_score>
-0.218899

> <r_i_glide_ligand_efficiency>
-0.0057605

> <r_i_glide_ligand_efficiency_sa>
-0.0193667

> <r_i_glide_ligand_efficiency_ln>
-0.0472011

> <r_glide_XP_GScore>
-2.4865

> <r_i_glide_gscore>
-2.4865

> <r_i_glide_evdw>
-45.3968

> <r_i_glide_ecoul>
-2.81811

> <r_i_glide_energy>
-48.2149

> <r_i_glide_einternal>
4.96723

> <r_i_glide_emodel>
-65.7847

> <r_glide_XP_HBond>
0

> <i_i_glide_confnum>
1

> <i_i_glide_posenum>
42

> <r_i_glide_eff_state_penalty>
2.2676

> <i_glide_XP_PoseRank>
1

$$$$
BACE_10.smi:1
                    3D
 Structure written by MMmdl.
 86 88  0  0  1  0            999 V2000
   19.6378   43.1447   -6.7731 C   0  0  0  0  0  0
   19.7324   44.2156   -7.6997 O   0  0  0  0  0  0
   18.5269   44.4373   -8.4211 C   0  0  0  0  0  0
   18.2325   43.3441   -9.4312 C   0  0  0  0  0  0
   16.9180   42.8615   -9.5950 C   0  0  0  0  0  0
   16.6444   41.8492  -10.5373 C   0  0  0  0  0  0
   17.7010   41.3198  -11.3100 C   0  0  0  0  0  0
   19.0210   41.7891  -11.1452 C   0  0  0  0  0  0
   19.2742   42.8254  -10.2236 C   0  0  0  0  0  0
   20.1062   41.2548  -12.0301 C   0  0  0  0  0  0
   19.9366   41.2422  -13.2401 O   0  0  0  0  0  0
   21.2513   40.7964  -11.5099 N   0  0  0  0  0  0
   21.6145   40.5040  -10.1240 C   0  0  1  0  0  0
   21.0935   39.0909   -9.7575 C   0  0  0  0  0  0
   19.8689   39.0981   -8.8182 C   0  0  2  0  0  0
   20.3120   39.3120   -7.3595 C   0  0  0  0  0  0
   19.0492   37.8058   -9.0083 C   0  0  0  0  0  0
   17.8051   37.6821   -8.1211 C   0  0  0  0  0  0
   16.9219   38.7422   -8.4345 O   0  0  0  0  0  0
   15.7485   38.7106   -7.6408 C   0  0  0  0  0  0
   14.7655   39.7820   -8.1102 C   0  0  0  0  0  0
   14.1986   39.5477   -9.5274 C   0  0  0  0  0  0
   15.1309   39.9648  -10.6773 C   0  0  0  0  0  0
   15.3251   41.4088  -10.6990 N   0  0  0  0  0  0
   23.1514   40.6193   -9.9918 C   0  0  2  0  0  0
   23.5179   40.5486   -8.6279 O   0  0  0  0  0  0
   23.7220   41.9561  -10.5100 C   0  0  0  0  0  0
   25.1963   41.9515  -10.4393 N   0  3  0  0  0  0
   25.8158   43.1835  -10.9614 C   0  0  0  0  0  0
   27.2953   43.2096  -10.6488 C   0  0  0  0  0  0
   28.2089   42.5352  -11.4841 C   0  0  0  0  0  0
   29.5999   42.5576  -11.2111 C   0  0  0  0  0  0
   30.0504   43.2536  -10.0652 C   0  0  0  0  0  0
   29.1428   43.9381   -9.2396 C   0  0  0  0  0  0
   27.7665   43.9126   -9.5232 C   0  0  0  0  0  0
   30.6107   41.8377  -12.1080 C   0  0  0  0  0  0
   31.8732   42.6781  -12.3819 C   0  0  0  0  0  0
   30.0312   41.3534  -13.4504 C   0  0  0  0  0  0
   21.1813   41.2419   -9.4551 H   0  0  0  0  0  0
   19.2195   39.9260   -9.0933 H   0  0  0  0  0  0
   23.5996   39.7832  -10.5294 H   0  0  0  0  0  0
   20.5826   43.0280   -6.2433 H   0  0  0  0  0  0
   19.4119   42.1987   -7.2637 H   0  0  0  0  0  0
   18.8608   43.3448   -6.0374 H   0  0  0  0  0  0
   17.6924   44.5700   -7.7302 H   0  0  0  0  0  0
   18.6294   45.3757   -8.9694 H   0  0  0  0  0  0
   16.1209   43.2696   -8.9910 H   0  0  0  0  0  0
   17.5012   40.5507  -12.0403 H   0  0  0  0  0  0
   20.2722   43.2254  -10.1157 H   0  0  0  0  0  0
   21.9275   40.5035  -12.2002 H   0  0  0  0  0  0
   20.8486   38.5521  -10.6746 H   0  0  0  0  0  0
   21.8830   38.4917   -9.3025 H   0  0  0  0  0  0
   20.8654   38.4537   -6.9777 H   0  0  0  0  0  0
   19.4575   39.4769   -6.7028 H   0  0  0  0  0  0
   20.9525   40.1877   -7.2617 H   0  0  0  0  0  0
   18.7307   37.7355  -10.0476 H   0  0  0  0  0  0
   19.6937   36.9504   -8.8402 H   0  0  0  0  0  0
   17.3158   36.7258   -8.3155 H   0  0  0  0  0  0
   18.0697   37.6913   -7.0614 H   0  0  0  0  0  0
   15.2631   37.7385   -7.7097 H   0  0  0  0  0  0
   16.0074   38.8683   -6.5914 H   0  0  0  0  0  0
   13.9400   39.7542   -7.3989 H   0  0  0  0  0  0
   15.2079   40.7735   -8.0139 H   0  0  0  0  0  0
   13.9359   38.4964   -9.6324 H   0  0  0  0  0  0
   13.2597   40.0908   -9.6392 H   0  0  0  0  0  0
   16.0711   39.4169  -10.6096 H   0  0  0  0  0  0
   14.6766   39.6788  -11.6250 H   0  0  0  0  0  0
   14.6655   41.8830  -10.0957 H   0  0  0  0  0  0
   23.6359   39.6317   -8.4089 H   0  0  0  0  0  0
   23.4353   42.1380  -11.5457 H   0  0  0  0  0  0
   23.3275   42.7872   -9.9252 H   0  0  0  0  0  0
   25.4497   41.8264   -9.4700 H   0  0  0  0  0  0
   25.6608   43.2541  -12.0389 H   0  0  0  0  0  0
   25.3392   44.0547  -10.5131 H   0  0  0  0  0  0
   27.8204   42.0048  -12.3396 H   0  0  0  0  0  0
   31.0979   43.2808   -9.8079 H   0  0  0  0  0  0
   29.5038   44.4771   -8.3750 H   0  0  0  0  0  0
   27.0796   44.4383   -8.8749 H   0  0  0  0  0  0
   30.9153   40.9503  -11.5499 H   0  0  0  0  0  0
   32.4419   42.8829  -11.4754 H   0  0  0  0  0  0
   31.6211   43.6326  -12.8465 H   0  0  0  0  0  0
   32.5534   42.1565  -13.0557 H   0  0  0  0  0  0
   29.2695   40.5874  -13.3065 H   0  0  0  0  0  0
   30.8057   40.8994  -14.0694 H   0  0  0  0  0  0
   29.5977   42.1725  -14.0261 H   0  0  0  0  0  0
   25.5433   41.1650  -10.9669 H   0  0  0  0  0  0
  1  2  1  0  0  0
  1 42  1  0  0  0
  1 43  1  0  0  0
  1 44  1  0  0  0
  2  3  1  0  0  0
  3  4  1  0  0  0
  3 45  1  0  0  0
  3 46  1  0  0  0
  4  9  1  0  0  0
  4  5  2  0  0  0
  5  6  1  0  0  0
  5 47  1  0  0  0
  6 24  1  0  0  0
  6  7  2  0  0  0
  7  8  1  0  0  0
  7 48  1  0  0  0
  8  9  2  0  0  0
  8 10  1  0  0  0
  9 49  1  0  0  0
 10 11  2  0  0  0
 10 12  1  0  0  0
 12 13  1  0  0  0
 12 50  1  0  0  0
 13 39  1  0  0  0
 13 14  1  0  0  0
 13 25  1  0  0  0
 14 15  1  0  0  0
 14 51  1  0  0  0
 14 52  1  0  0  0
 15 40  1  0  0  0
 15 16  1  0  0  0
 15 17  1  0  0  0
 16 53  1  0  0  0
 16 54  1  0  0  0
 16 55  1  0  0  0
 17 18  1  0  0  0
 17 56  1  0  0  0
 17 57  1  0  0  0
 18 19  1  0  0  0
 18 58  1  0  0  0
 18 59  1  0  0  0
 19 20  1  0  0  0
 20 21  1  0  0  0
 20 60  1  0  0  0
 20 61  1  0  0  0
 21 22  1  0  0  0
 21 62  1  0  0  0
 21 63  1  0  0  0
 22 23  1  0  0  0
 22 64  1  0  0  0
 22 65  1  0  0  0
 23 24  1  0  0  0
 23 66  1  0  0  0
 23 67  1  0  0  0
 24 68  1  0  0  0
 25 41  1  0  0  0
 25 26  1  0  0  0
 25 27  1  0  0  0
 26 69  1  0  0  0
 27 28  1  0  0  0
 27 70  1  0  0  0
 27 71  1  0  0  0
 28 29  1  0  0  0
 28 72  1  0  0  0
 28 86  1  0  0  0
 29 30  1  0  0  0
 29 73  1  0  0  0
 29 74  1  0  0  0
 30 35  1  0  0  0
 30 31  2  0  0  0
 31 32  1  0  0  0
 31 75  1  0  0  0
 32 33  2  0  0  0
 32 36  1  0  0  0
 33 34  1  0  0  0
 33 76  1  0  0  0
 34 35  2  0  0  0
 34 77  1  0  0  0
 35 78  1  0  0  0
 36 37  1  0  0  0
 36 38  1  0  0  0
 36 79  1  0  0  0
 37 80  1  0  0  0
 37 81  1  0  0  0
 37 82  1  0  0  0
 38 83  1  0  0  0
 38 84  1  0  0  0
 38 85  1  0  0  0
M  CHG  1  28   1
M  END
> <s_m_source_file>
BACE_10.smi

> <i_m_source_file_index>
1

> <i_lp_mmshare_version>
42013

> <i_f3d_flags>
0

> <s_epik_input>
W2NIXTFbY0hdW2NIXWMoW0NIXShbQ0gzXSlbQ0gzXSlbY0hdYzFbQ0gyXVtOSF1bQ0gyXVtDQEBIXShbT0hdKVtDQEBIXShbTkhdQyg9TyljKFtjSF0yKVtjSF1jKFtjSF1jMjMpW0NIMl1PW0NIM10pW0NIMl1bQ0BIXShbQ0gzXSlbQ0gyXVtDSDJdT1tDSDJdW0NIMl1bQ0gyXVtDSDJdW05IXTM=

> <s_epik_cmdline>
J2VwaWtfcHl0aG9uJywgJy1waCcsICc3LjAnLCAnLXRuJywgJzgnLCAnLW1hJywgJzIwMCcsICctaW1hZScsICc8aW5maWxlLm1hZT4nLCAnLW9tYWUnLCAnPG91dGZpbGUubWFlPic=

> <r_epik_Ionization_Penalty>
  0.0171

> <r_epik_Ionization_Penalty_Charging>
  0.0167

> <r_epik_Ionization_Penalty_Neutral>
  0.0004

> <r_epik_State_Penalty>
  0.0132

> <r_epik_Charging_Adjusted_Penalty>
0.0299522

> <i_epik_Tot_Q>
1

> <i_epik_Tot_abs_Q>
1

> <s_lp_Force_Field>
OPLS_2005

> <r_lp_Energy>
40.1732

> <b_lp_Chiralities_Consistent>
1

> <s_lp_Variant>
BACE_10.smi:1-1

> <chiral flag>
1

> <version>
0

> <s_i_glide_gridfile>
second_dock_grid_2

> <i_i_glide_lignum>
16

> <i_i_glide_rotatable_bonds>
9

> <r_i_docking_score>
-4.08542

> <r_i_glide_ligand_efficiency>
-0.107511

> <r_i_glide_ligand_efficiency_sa>
-0.36145

> <r_i_glide_ligand_efficiency_ln>
-0.880937

> <r_glide_XP_GScore>
-4.09862

> <r_i_glide_gscore>
-4.09862

> <r_i_glide_evdw>
-41.6868

> <r_i_glide_ecoul>
-13.6009

> <r_i_glide_energy>
-55.2877

> <r_i_glide_einternal>
4.10152

> <r_i_glide_emodel>
-75.9195

> <r_glide_XP_HBond>
-0.840644

> <i_i_glide_confnum>
1

> <i_i_glide_posenum>
11

> <r_i_glide_eff_state_penalty>
0.0132

> <i_glide_XP_PoseRank>
1

$$$$
BACE_10.smi:1
                    3D
 Structure written by MMmdl.
 85 87  0  0  1  0            999 V2000
   18.2924   47.5894   -6.2800 C   0  0  0  0  0  0
   19.1400   46.6437   -5.6450 O   0  0  0  0  0  0
   20.1339   46.1042   -6.5129 C   0  0  0  0  0  0
   19.6171   45.0495   -7.4815 C   0  0  0  0  0  0
   18.4595   44.3092   -7.1762 C   0  0  0  0  0  0
   18.0027   43.2780   -8.0187 C   0  0  0  0  0  0
   18.7151   43.0034   -9.2073 C   0  0  0  0  0  0
   19.8723   43.7415   -9.5301 C   0  0  0  0  0  0
   20.3201   44.7657   -8.6691 C   0  0  0  0  0  0
   20.5756   43.5029  -10.8295 C   0  0  0  0  0  0
   20.6797   44.4271  -11.6330 O   0  0  0  0  0  0
   21.0644   42.2764  -11.1001 N   0  0  0  0  0  0
   21.3724   41.1733  -10.1807 C   0  0  1  0  0  0
   20.6161   39.8987  -10.6514 C   0  0  0  0  0  0
   19.6504   39.2699   -9.6178 C   0  0  2  0  0  0
   20.4062   38.5776   -8.4690 C   0  0  0  0  0  0
   18.6673   38.3018  -10.3222 C   0  0  0  0  0  0
   17.4951   37.8218   -9.4473 C   0  0  0  0  0  0
   16.8160   38.9604   -8.9498 O   0  0  0  0  0  0
   15.6302   38.6640   -8.2336 C   0  0  0  0  0  0
   15.2816   39.8361   -7.3018 C   0  0  0  0  0  0
   14.8693   41.1342   -8.0269 C   0  0  0  0  0  0
   16.0278   41.9254   -8.6530 C   0  0  0  0  0  0
   16.8575   42.5640   -7.6401 N   0  0  0  0  0  0
   22.9174   40.9556  -10.1172 C   0  0  2  0  0  0
   23.2155   40.1505   -8.9935 O   0  0  0  0  0  0
   23.7662   42.2398   -9.9655 C   0  0  0  0  0  0
   23.9344   42.9503  -11.2389 N   0  0  0  0  0  0
   24.6148   44.2380  -11.1326 C   0  0  0  0  0  0
   26.0184   44.2062  -11.7029 C   0  0  0  0  0  0
   27.0058   43.4131  -11.0905 C   0  0  0  0  0  0
   28.3171   43.3762  -11.6088 C   0  0  0  0  0  0
   28.6342   44.1395  -12.7543 C   0  0  0  0  0  0
   27.6521   44.9448  -13.3605 C   0  0  0  0  0  0
   26.3438   44.9731  -12.8400 C   0  0  0  0  0  0
   29.3520   42.4903  -10.9356 C   0  0  0  0  0  0
   30.6336   43.2557  -10.5700 C   0  0  0  0  0  0
   29.6548   41.2488  -11.7865 C   0  0  0  0  0  0
   21.0388   41.4426   -9.1768 H   0  0  0  0  0  0
   19.0589   40.0778   -9.1871 H   0  0  0  0  0  0
   23.2508   40.4132  -11.0008 H   0  0  0  0  0  0
   17.5731   47.9731   -5.5592 H   0  0  0  0  0  0
   17.7360   47.1456   -7.1062 H   0  0  0  0  0  0
   18.8619   48.4363   -6.6610 H   0  0  0  0  0  0
   20.6463   46.9015   -7.0554 H   0  0  0  0  0  0
   20.8888   45.6277   -5.8879 H   0  0  0  0  0  0
   17.9146   44.5501   -6.2810 H   0  0  0  0  0  0
   18.3870   42.2311   -9.8857 H   0  0  0  0  0  0
   21.2046   45.3301   -8.9250 H   0  0  0  0  0  0
   21.5136   42.1987  -12.0018 H   0  0  0  0  0  0
   20.0451   40.1394  -11.5512 H   0  0  0  0  0  0
   21.3241   39.1353  -10.9777 H   0  0  0  0  0  0
   21.0485   37.7753   -8.8381 H   0  0  0  0  0  0
   19.7205   38.1495   -7.7375 H   0  0  0  0  0  0
   21.0261   39.2851   -7.9204 H   0  0  0  0  0  0
   18.2377   38.7991  -11.1917 H   0  0  0  0  0  0
   19.2128   37.4391  -10.7063 H   0  0  0  0  0  0
   16.8140   37.2105  -10.0395 H   0  0  0  0  0  0
   17.8470   37.1998   -8.6239 H   0  0  0  0  0  0
   14.8138   38.4604   -8.9288 H   0  0  0  0  0  0
   15.7658   37.7613   -7.6400 H   0  0  0  0  0  0
   14.4514   39.5244   -6.6658 H   0  0  0  0  0  0
   16.1107   40.0293   -6.6195 H   0  0  0  0  0  0
   14.1368   40.8949   -8.7999 H   0  0  0  0  0  0
   14.3687   41.7856   -7.3129 H   0  0  0  0  0  0
   16.6186   41.2762   -9.2916 H   0  0  0  0  0  0
   15.6209   42.7078   -9.2940 H   0  0  0  0  0  0
   16.4152   42.7621   -6.7456 H   0  0  0  0  0  0
   23.8781   39.5161   -9.2445 H   0  0  0  0  0  0
   23.3054   42.8868   -9.2192 H   0  0  0  0  0  0
   24.7495   41.9770   -9.5765 H   0  0  0  0  0  0
   24.4262   42.3460  -11.8934 H   0  0  0  0  0  0
   24.0374   44.9882  -11.6731 H   0  0  0  0  0  0
   24.6509   44.5831  -10.0983 H   0  0  0  0  0  0
   26.7563   42.8292  -10.2170 H   0  0  0  0  0  0
   29.6320   44.1113  -13.1701 H   0  0  0  0  0  0
   27.9003   45.5321  -14.2308 H   0  0  0  0  0  0
   25.5934   45.5859  -13.3166 H   0  0  0  0  0  0
   28.9193   42.1478   -9.9946 H   0  0  0  0  0  0
   30.4090   44.1173   -9.9433 H   0  0  0  0  0  0
   31.1623   43.6114  -11.4539 H   0  0  0  0  0  0
   31.3181   42.6182  -10.0130 H   0  0  0  0  0  0
   28.7395   40.7170  -12.0422 H   0  0  0  0  0  0
   30.2903   40.5501  -11.2429 H   0  0  0  0  0  0
   30.1558   41.5097  -12.7194 H   0  0  0  0  0  0
  1  2  1  0  0  0
  1 42  1  0  0  0
  1 43  1  0  0  0
  1 44  1  0  0  0
  2  3  1  0  0  0
  3  4  1  0  0  0
  3 45  1  0  0  0
  3 46  1  0  0  0
  4  9  1  0  0  0
  4  5  2  0  0  0
  5  6  1  0  0  0
  5 47  1  0  0  0
  6 24  1  0  0  0
  6  7  2  0  0  0
  7  8  1  0  0  0
  7 48  1  0  0  0
  8  9  2  0  0  0
  8 10  1  0  0  0
  9 49  1  0  0  0
 10 11  2  0  0  0
 10 12  1  0  0  0
 12 13  1  0  0  0
 12 50  1  0  0  0
 13 39  1  0  0  0
 13 14  1  0  0  0
 13 25  1  0  0  0
 14 15  1  0  0  0
 14 51  1  0  0  0
 14 52  1  0  0  0
 15 40  1  0  0  0
 15 16  1  0  0  0
 15 17  1  0  0  0
 16 53  1  0  0  0
 16 54  1  0  0  0
 16 55  1  0  0  0
 17 18  1  0  0  0
 17 56  1  0  0  0
 17 57  1  0  0  0
 18 19  1  0  0  0
 18 58  1  0  0  0
 18 59  1  0  0  0
 19 20  1  0  0  0
 20 21  1  0  0  0
 20 60  1  0  0  0
 20 61  1  0  0  0
 21 22  1  0  0  0
 21 62  1  0  0  0
 21 63  1  0  0  0
 22 23  1  0  0  0
 22 64  1  0  0  0
 22 65  1  0  0  0
 23 24  1  0  0  0
 23 66  1  0  0  0
 23 67  1  0  0  0
 24 68  1  0  0  0
 25 41  1  0  0  0
 25 26  1  0  0  0
 25 27  1  0  0  0
 26 69  1  0  0  0
 27 28  1  0  0  0
 27 70  1  0  0  0
 27 71  1  0  0  0
 28 29  1  0  0  0
 28 72  1  0  0  0
 29 30  1  0  0  0
 29 73  1  0  0  0
 29 74  1  0  0  0
 30 35  1  0  0  0
 30 31  2  0  0  0
 31 32  1  0  0  0
 31 75  1  0  0  0
 32 33  2  0  0  0
 32 36  1  0  0  0
 33 34  1  0  0  0
 33 76  1  0  0  0
 34 35  2  0  0  0
 34 77  1  0  0  0
 35 78  1  0  0  0
 36 37  1  0  0  0
 36 38  1  0  0  0
 36 79  1  0  0  0
 37 80  1  0  0  0
 37 81  1  0  0  0
 37 82  1  0  0  0
 38 83  1  0  0  0
 38 84  1  0  0  0
 38 85  1  0  0  0
M  END
> <s_m_source_file>
BACE_10.smi

> <i_m_source_file_index>
1

> <i_lp_mmshare_version>
42013

> <i_f3d_flags>
0

> <s_epik_input>
W2NIXTFbY0hdW2NIXWMoW0NIXShbQ0gzXSlbQ0gzXSlbY0hdYzFbQ0gyXVtOSF1bQ0gyXVtDQEBIXShbT0hdKVtDQEBIXShbTkhdQyg9TyljKFtjSF0yKVtjSF1jKFtjSF1jMjMpW0NIMl1PW0NIM10pW0NIMl1bQ0BIXShbQ0gzXSlbQ0gyXVtDSDJdT1tDSDJdW0NIMl1bQ0gyXVtDSDJdW05IXTM=

> <s_epik_cmdline>
J2VwaWtfcHl0aG9uJywgJy1waCcsICc3LjAnLCAnLXRuJywgJzgnLCAnLW1hJywgJzIwMCcsICctaW1hZScsICc8aW5maWxlLm1hZT4nLCAnLW9tYWUnLCAnPG91dGZpbGUubWFlPic=

> <r_epik_Ionization_Penalty>
  2.1223

> <r_epik_Ionization_Penalty_Charging>
  0.0000

> <r_epik_Ionization_Penalty_Neutral>
  2.1223

> <r_epik_State_Penalty>
  2.2595

> <r_epik_Charging_Adjusted_Penalty>
2.2595

> <i_epik_Tot_Q>
0

> <i_epik_Tot_abs_Q>
0

> <s_lp_Force_Field>
OPLS_2005

> <r_lp_Energy>
41.2261

> <b_lp_Chiralities_Consistent>
1

> <s_lp_Variant>
BACE_10.smi:1-2

> <chiral flag>
1

> <version>
0

> <s_i_glide_gridfile>
second_dock_grid_2

> <i_i_glide_lignum>
17

> <i_i_glide_rotatable_bonds>
9

> <r_i_docking_score>
-1.10455

> <r_i_glide_ligand_efficiency>
-0.0290672

> <r_i_glide_ligand_efficiency_sa>
-0.0977231

> <r_i_glide_ligand_efficiency_ln>
-0.238174

> <r_glide_XP_GScore>
-3.36405

> <r_i_glide_gscore>
-3.36405

> <r_i_glide_evdw>
-37.261

> <r_i_glide_ecoul>
-9.53406

> <r_i_glide_energy>
-46.795

> <r_i_glide_einternal>
2.36729

> <r_i_glide_emodel>
-65.7739

> <r_glide_XP_HBond>
-1.33

> <i_i_glide_confnum>
1

> <i_i_glide_posenum>
7

> <r_i_glide_eff_state_penalty>
2.2595

> <i_glide_XP_PoseRank>
1

$$$$
BACE_11.smi:1
                    3D
 Structure written by MMmdl.
 81 83  0  0  1  0            999 V2000
   17.0920   36.6884   -8.8399 C   0  0  0  0  0  0
   17.2121   38.1377   -8.3426 C   0  0  0  0  0  0
   16.2579   39.0699   -9.1067 C   0  0  0  0  0  0
   18.6553   38.6322   -8.3905 C   0  0  0  0  0  0
   19.3333   38.9588   -7.1946 C   0  0  0  0  0  0
   20.6619   39.4379   -7.2288 C   0  0  0  0  0  0
   21.3819   39.7848   -5.9362 C   0  0  0  0  0  0
   20.7922   40.9582   -5.2660 N   0  3  0  0  0  0
   21.1641   42.2626   -5.8377 C   0  0  0  0  0  0
   20.4543   43.3897   -5.0643 C   0  0  1  0  0  0
   20.9564   43.3499   -3.7410 O   0  0  0  0  0  0
   20.5798   44.8218   -5.6604 C   0  0  2  0  0  0
   19.3950   45.2102   -6.5831 C   0  0  0  0  0  0
   19.2686   44.4498   -7.8946 C   0  0  0  0  0  0
   19.6862   45.0528   -9.0990 C   0  0  0  0  0  0
   19.5554   44.3728  -10.3371 C   0  0  0  0  0  0
   19.0065   43.0745  -10.3397 C   0  0  0  0  0  0
   18.5620   42.4783   -9.1456 C   0  0  0  0  0  0
   18.6716   43.1716   -7.9279 C   0  0  0  0  0  0
   19.9193   44.8948  -11.5622 O   0  0  0  0  0  0
   20.4339   46.2221  -11.6402 C   0  0  0  0  0  0
   21.9012   46.2938  -11.1869 C   0  0  0  0  0  0
   22.8489   45.4220  -12.0237 C   0  0  0  0  0  0
   24.3053   45.4010  -11.5204 C   0  0  0  0  0  0
   24.5218   44.6352  -10.1926 C   0  0  0  0  0  0
   24.3216   45.4520   -8.8956 C   0  0  0  0  0  0
   24.1418   46.6661   -8.9830 O   0  0  0  0  0  0
   24.3634   44.8054   -7.6999 N   0  0  0  0  0  0
   24.3928   43.3366   -7.6531 C   0  0  0  0  0  0
   24.3277   45.4894   -6.3804 C   0  0  1  0  0  0
   25.1761   46.7788   -6.2845 C   0  0  0  0  0  0
   22.9450   45.5921   -5.7076 C   0  0  0  0  0  0
   22.8600   46.1519   -4.6145 O   0  0  0  0  0  0
   21.8822   45.0206   -6.3077 N   0  0  0  0  0  0
   21.3200   39.5777   -8.4688 C   0  0  0  0  0  0
   20.6556   39.2378   -9.6632 C   0  0  0  0  0  0
   19.3284   38.7685   -9.6248 C   0  0  0  0  0  0
   19.3931   43.1555   -4.9817 H   0  0  0  0  0  0
   20.4848   45.5298   -4.8401 H   0  0  0  0  0  0
   24.8652   44.8226   -5.7040 H   0  0  0  0  0  0
   17.6960   36.0193   -8.2282 H   0  0  0  0  0  0
   17.4133   36.5847   -9.8761 H   0  0  0  0  0  0
   16.0602   36.3428   -8.7734 H   0  0  0  0  0  0
   16.8905   38.1483   -7.2993 H   0  0  0  0  0  0
   16.2891   40.0801   -8.6999 H   0  0  0  0  0  0
   15.2275   38.7221   -9.0244 H   0  0  0  0  0  0
   16.5043   39.1227  -10.1667 H   0  0  0  0  0  0
   18.8253   38.8425   -6.2469 H   0  0  0  0  0  0
   21.2990   38.9500   -5.2496 H   0  0  0  0  0  0
   22.4496   39.9377   -6.1086 H   0  0  0  0  0  0
   19.7803   40.8756   -5.2765 H   0  0  0  0  0  0
   22.2467   42.3772   -5.7704 H   0  0  0  0  0  0
   20.9134   42.2818   -6.8973 H   0  0  0  0  0  0
   20.8604   44.2146   -3.3353 H   0  0  0  0  0  0
   18.4565   45.0974   -6.0402 H   0  0  0  0  0  0
   19.4637   46.2754   -6.8089 H   0  0  0  0  0  0
   20.0928   46.0506   -9.0473 H   0  0  0  0  0  0
   18.9101   42.5363  -11.2710 H   0  0  0  0  0  0
   18.1291   41.4896   -9.1661 H   0  0  0  0  0  0
   18.3044   42.7078   -7.0238 H   0  0  0  0  0  0
   20.3619   46.5504  -12.6758 H   0  0  0  0  0  0
   19.8091   46.9165  -11.0770 H   0  0  0  0  0  0
   22.2393   47.3294  -11.2187 H   0  0  0  0  0  0
   21.9609   45.9906  -10.1476 H   0  0  0  0  0  0
   22.4700   44.3993  -12.0650 H   0  0  0  0  0  0
   22.8430   45.7872  -13.0502 H   0  0  0  0  0  0
   24.9055   44.9049  -12.2835 H   0  0  0  0  0  0
   24.7021   46.4147  -11.4649 H   0  0  0  0  0  0
   23.8841   43.7515  -10.1963 H   0  0  0  0  0  0
   25.5505   44.2727  -10.1750 H   0  0  0  0  0  0
   25.2631   42.9489   -8.1810 H   0  0  0  0  0  0
   23.4955   42.9124   -8.1065 H   0  0  0  0  0  0
   24.4430   42.9500   -6.6359 H   0  0  0  0  0  0
   25.3491   47.0511   -5.2425 H   0  0  0  0  0  0
   24.6900   47.6333   -6.7543 H   0  0  0  0  0  0
   26.1537   46.6446   -6.7474 H   0  0  0  0  0  0
   22.0107   44.6253   -7.2282 H   0  0  0  0  0  0
   22.3393   39.9323   -8.5129 H   0  0  0  0  0  0
   21.1640   39.3397  -10.6104 H   0  0  0  0  0  0
   18.8268   38.5166  -10.5480 H   0  0  0  0  0  0
   21.0894   40.9768   -4.3001 H   0  0  0  0  0  0
  1  2  1  0  0  0
  1 41  1  0  0  0
  1 42  1  0  0  0
  1 43  1  0  0  0
  2  3  1  0  0  0
  2  4  1  0  0  0
  2 44  1  0  0  0
  3 45  1  0  0  0
  3 46  1  0  0  0
  3 47  1  0  0  0
  4 37  1  0  0  0
  4  5  2  0  0  0
  5  6  1  0  0  0
  5 48  1  0  0  0
  6  7  1  0  0  0
  6 35  2  0  0  0
  7  8  1  0  0  0
  7 49  1  0  0  0
  7 50  1  0  0  0
  8  9  1  0  0  0
  8 51  1  0  0  0
  8 81  1  0  0  0
  9 10  1  0  0  0
  9 52  1  0  0  0
  9 53  1  0  0  0
 10 38  1  0  0  0
 10 11  1  0  0  0
 10 12  1  0  0  0
 11 54  1  0  0  0
 12 39  1  0  0  0
 12 34  1  0  0  0
 12 13  1  0  0  0
 13 14  1  0  0  0
 13 55  1  0  0  0
 13 56  1  0  0  0
 14 19  1  0  0  0
 14 15  2  0  0  0
 15 16  1  0  0  0
 15 57  1  0  0  0
 16 17  2  0  0  0
 16 20  1  0  0  0
 17 18  1  0  0  0
 17 58  1  0  0  0
 18 19  2  0  0  0
 18 59  1  0  0  0
 19 60  1  0  0  0
 20 21  1  0  0  0
 21 22  1  0  0  0
 21 61  1  0  0  0
 21 62  1  0  0  0
 22 23  1  0  0  0
 22 63  1  0  0  0
 22 64  1  0  0  0
 23 24  1  0  0  0
 23 65  1  0  0  0
 23 66  1  0  0  0
 24 25  1  0  0  0
 24 67  1  0  0  0
 24 68  1  0  0  0
 25 26  1  0  0  0
 25 69  1  0  0  0
 25 70  1  0  0  0
 26 27  2  0  0  0
 26 28  1  0  0  0
 28 29  1  0  0  0
 28 30  1  0  0  0
 29 71  1  0  0  0
 29 72  1  0  0  0
 29 73  1  0  0  0
 30 40  1  0  0  0
 30 31  1  0  0  0
 30 32  1  0  0  0
 31 74  1  0  0  0
 31 75  1  0  0  0
 31 76  1  0  0  0
 32 33  2  0  0  0
 32 34  1  0  0  0
 34 77  1  0  0  0
 35 36  1  0  0  0
 35 78  1  0  0  0
 36 37  2  0  0  0
 36 79  1  0  0  0
 37 80  1  0  0  0
M  CHG  1   8   1
M  END
> <s_m_source_file>
BACE_11.smi

> <i_m_source_file_index>
1

> <i_lp_mmshare_version>
42013

> <i_f3d_flags>
0

> <s_epik_input>
W0NIM11bQ0hdKFtDSDNdKWMxW2NIXWMoW2NIXVtjSF1bY0hdMSlbQ0gyXVtOSF1bQ0gyXVtDQEBIXShbT0hdKVtDQEhdKFtDSDJdMilbTkhdQyg9TylbQ0BIXShbQ0gzXSlOKFtDSDNdKUMoPU8pW0NIMl1bQ0gyXVtDSDJdW0NIMl1bQ0gyXU9jKFtjSF1jMjMpW2NIXVtjSF1bY0hdMw==

> <s_epik_cmdline>
J2VwaWtfcHl0aG9uJywgJy1waCcsICc3LjAnLCAnLXRuJywgJzgnLCAnLW1hJywgJzIwMCcsICctaW1hZScsICc8aW5maWxlLm1hZT4nLCAnLW9tYWUnLCAnPG91dGZpbGUubWFlPic=

> <r_lp_tautomer_probability>
1

> <r_epik_Ionization_Penalty>
  0.0210

> <r_epik_Ionization_Penalty_Charging>
  0.0210

> <r_epik_Ionization_Penalty_Neutral>
  0.0000

> <r_epik_State_Penalty>
  0.0169

> <r_epik_Charging_Adjusted_Penalty>
0.0378979

> <i_epik_Tot_Q>
1

> <i_epik_Tot_abs_Q>
1

> <s_lp_Force_Field>
OPLS_2005

> <r_lp_Energy>
34.5702

> <b_lp_Chiralities_Consistent>
1

> <s_lp_Variant>
BACE_11.smi:1-1

> <chiral flag>
1

> <version>
0

> <s_i_glide_gridfile>
second_dock_grid_2

> <i_i_glide_lignum>
18

> <i_i_glide_rotatable_bonds>
7

> <r_i_docking_score>
-4.97701

> <r_i_glide_ligand_efficiency>
-0.134514

> <r_i_glide_ligand_efficiency_sa>
-0.44823

> <r_i_glide_ligand_efficiency_ln>
-1.0794

> <r_glide_XP_GScore>
-4.99391

> <r_i_glide_gscore>
-4.99391

> <r_i_glide_evdw>
-30.7623

> <r_i_glide_ecoul>
-11.9102

> <r_i_glide_energy>
-42.6725

> <r_i_glide_einternal>
2.74395

> <r_i_glide_emodel>
-56.9029

> <r_glide_XP_HBond>
-1.40367

> <i_i_glide_confnum>
1

> <i_i_glide_posenum>
1

> <r_i_glide_eff_state_penalty>
0.0169

> <i_glide_XP_PoseRank>
1

$$$$
