BACE_79.smi:1
                    3D
 Structure written by MMmdl.
 84 86  0  0  1  0            999 V2000
   14.7562   38.1512   -8.4008 C   0  0  0  0  0  0
   15.4279   39.5193   -8.2835 C   0  0  2  0  0  0
   14.6990   40.5237   -9.0523 N   0  0  0  0  0  0
   15.1650   41.8854   -8.7959 C   0  0  0  0  0  0
   15.7703   42.4911  -10.0708 C   0  0  1  0  0  0
   14.6741   42.9498  -10.8459 O   0  0  0  0  0  0
   16.7824   43.6426   -9.8184 C   0  0  2  0  0  0
   16.1835   44.7485   -8.8960 C   0  0  0  0  0  0
   17.1273   45.8594   -8.3820 C   0  0  2  0  0  0
   17.5334   46.8600   -9.4816 C   0  0  0  0  0  0
   18.3390   45.2699   -7.6299 C   0  0  0  0  0  0
   19.1248   46.2739   -6.7615 C   0  0  0  0  0  0
   20.5595   45.7914   -6.4857 C   0  0  0  0  0  0
   21.4760   45.9883   -7.7074 C   0  0  0  0  0  0
   22.6993   45.0630   -7.7134 C   0  0  0  0  0  0
   23.5428   45.1757   -8.9994 C   0  0  0  0  0  0
   22.8249   44.6996  -10.2751 C   0  0  0  0  0  0
   22.5096   43.3184  -10.1365 O   0  0  0  0  0  0
   21.4522   42.8141  -10.8579 C   0  0  0  0  0  0
   20.1945   43.4602  -10.9733 C   0  0  0  0  0  0
   19.1472   42.8558  -11.7080 C   0  0  0  0  0  0
   19.3474   41.5804  -12.2783 C   0  0  0  0  0  0
   20.5874   40.9302  -12.1554 C   0  0  0  0  0  0
   21.6392   41.5539  -11.4634 C   0  0  0  0  0  0
   17.9072   43.6219  -12.0615 C   0  0  0  0  0  0
   17.6110   43.7515  -13.2451 O   0  0  0  0  0  0
   17.1626   44.2025  -11.1125 N   0  0  0  0  0  0
   16.9011   39.4772   -8.6295 C   0  0  0  0  0  0
   17.9557   39.9613   -7.8205 C   0  0  0  0  0  0
   19.0668   39.8425   -8.5934 C   0  0  0  0  0  0
   20.4835   40.2539   -8.3470 C   0  0  0  0  0  0
   21.5242   39.1316   -8.1166 C   0  0  0  0  0  0
   22.9344   39.7535   -8.0954 C   0  0  0  0  0  0
   21.4798   38.0775   -9.2380 C   0  0  0  0  0  0
   21.2624   38.4734   -6.7516 C   0  0  0  0  0  0
   18.7322   39.3166   -9.8021 O   0  0  0  0  0  0
   17.3470   39.0959   -9.8194 N   0  0  0  0  0  0
   15.3407   39.7889   -7.2284 H   0  0  0  0  0  0
   16.2779   41.7003  -10.6287 H   0  0  0  0  0  0
   17.6590   43.2091   -9.3331 H   0  0  0  0  0  0
   16.5414   46.4256   -7.6599 H   0  0  0  0  0  0
   15.2092   37.4811   -7.6682 H   0  0  0  0  0  0
   14.8906   37.7219   -9.3934 H   0  0  0  0  0  0
   13.6764   38.2083   -8.2013 H   0  0  0  0  0  0
   13.7166   40.4608   -8.7808 H   0  0  0  0  0  0
   14.3398   42.4965   -8.4267 H   0  0  0  0  0  0
   15.9085   41.8977   -7.9977 H   0  0  0  0  0  0
   14.0225   42.2650  -10.8174 H   0  0  0  0  0  0
   15.3253   45.2051   -9.3897 H   0  0  0  0  0  0
   15.7728   44.2762   -8.0052 H   0  0  0  0  0  0
   18.2698   46.4340  -10.1622 H   0  0  0  0  0  0
   17.9785   47.7618   -9.0573 H   0  0  0  0  0  0
   16.6686   47.1720  -10.0715 H   0  0  0  0  0  0
   18.0074   44.4541   -6.9839 H   0  0  0  0  0  0
   18.9954   44.7996   -8.3569 H   0  0  0  0  0  0
   19.1750   47.2546   -7.2341 H   0  0  0  0  0  0
   18.5912   46.4257   -5.8214 H   0  0  0  0  0  0
   20.9799   46.3284   -5.6344 H   0  0  0  0  0  0
   20.5314   44.7401   -6.1939 H   0  0  0  0  0  0
   20.9068   45.8114   -8.6159 H   0  0  0  0  0  0
   21.7965   47.0298   -7.7601 H   0  0  0  0  0  0
   23.3283   45.2936   -6.8506 H   0  0  0  0  0  0
   22.3786   44.0240   -7.5885 H   0  0  0  0  0  0
   23.8676   46.2085   -9.1344 H   0  0  0  0  0  0
   24.4536   44.5912   -8.8712 H   0  0  0  0  0  0
   21.9687   45.3352  -10.4945 H   0  0  0  0  0  0
   23.4947   44.8069  -11.1305 H   0  0  0  0  0  0
   20.0293   44.4304  -10.5278 H   0  0  0  0  0  0
   18.5539   41.1095  -12.8362 H   0  0  0  0  0  0
   20.7351   39.9556  -12.5996 H   0  0  0  0  0  0
   22.5910   41.0523  -11.3761 H   0  0  0  0  0  0
   16.4625   44.8266  -11.4835 H   0  0  0  0  0  0
   17.8905   40.3935   -6.8400 H   0  0  0  0  0  0
   20.7934   40.8569   -9.1905 H   0  0  0  0  0  0
   20.5070   40.9427   -7.5021 H   0  0  0  0  0  0
   23.6952   38.9912   -7.9196 H   0  0  0  0  0  0
   23.0310   40.5045   -7.3088 H   0  0  0  0  0  0
   23.1770   40.2326   -9.0450 H   0  0  0  0  0  0
   21.6023   38.5396  -10.2180 H   0  0  0  0  0  0
   20.5393   37.5254   -9.2462 H   0  0  0  0  0  0
   22.2815   37.3474   -9.1256 H   0  0  0  0  0  0
   22.0448   37.7610   -6.4814 H   0  0  0  0  0  0
   20.3088   37.9428   -6.7401 H   0  0  0  0  0  0
   21.2265   39.2176   -5.9553 H   0  0  0  0  0  0
  1  2  1  0  0  0
  1 42  1  0  0  0
  1 43  1  0  0  0
  1 44  1  0  0  0
  2 38  1  0  0  0
  2  3  1  0  0  0
  2 28  1  0  0  0
  3  4  1  0  0  0
  3 45  1  0  0  0
  4  5  1  0  0  0
  4 46  1  0  0  0
  4 47  1  0  0  0
  5 39  1  0  0  0
  5  6  1  0  0  0
  5  7  1  0  0  0
  6 48  1  0  0  0
  7 40  1  0  0  0
  7 27  1  0  0  0
  7  8  1  0  0  0
  8  9  1  0  0  0
  8 49  1  0  0  0
  8 50  1  0  0  0
  9 41  1  0  0  0
  9 10  1  0  0  0
  9 11  1  0  0  0
 10 51  1  0  0  0
 10 52  1  0  0  0
 10 53  1  0  0  0
 11 12  1  0  0  0
 11 54  1  0  0  0
 11 55  1  0  0  0
 12 13  1  0  0  0
 12 56  1  0  0  0
 12 57  1  0  0  0
 13 14  1  0  0  0
 13 58  1  0  0  0
 13 59  1  0  0  0
 14 15  1  0  0  0
 14 60  1  0  0  0
 14 61  1  0  0  0
 15 16  1  0  0  0
 15 62  1  0  0  0
 15 63  1  0  0  0
 16 17  1  0  0  0
 16 64  1  0  0  0
 16 65  1  0  0  0
 17 18  1  0  0  0
 17 66  1  0  0  0
 17 67  1  0  0  0
 18 19  1  0  0  0
 19 24  1  0  0  0
 19 20  2  0  0  0
 20 21  1  0  0  0
 20 68  1  0  0  0
 21 22  2  0  0  0
 21 25  1  0  0  0
 22 23  1  0  0  0
 22 69  1  0  0  0
 23 24  2  0  0  0
 23 70  1  0  0  0
 24 71  1  0  0  0
 25 26  2  0  0  0
 25 27  1  0  0  0
 27 72  1  0  0  0
 28 37  2  0  0  0
 28 29  1  0  0  0
 29 30  2  0  0  0
 29 73  1  0  0  0
 30 31  1  0  0  0
 30 36  1  0  0  0
 31 32  1  0  0  0
 31 74  1  0  0  0
 31 75  1  0  0  0
 32 33  1  0  0  0
 32 34  1  0  0  0
 32 35  1  0  0  0
 33 76  1  0  0  0
 33 77  1  0  0  0
 33 78  1  0  0  0
 34 79  1  0  0  0
 34 80  1  0  0  0
 34 81  1  0  0  0
 35 82  1  0  0  0
 35 83  1  0  0  0
 35 84  1  0  0  0
 36 37  1  0  0  0
M  END
> <s_m_source_file>
BACE_79.smi

> <i_m_source_file_index>
1

> <i_lp_mmshare_version>
42013

> <i_f3d_flags>
0

> <s_epik_input>
W0NIM11DKFtDSDNdKShbQ0gzXSlbQ0gyXWMob24xKVtjSF1jMVtDQEhdKFtDSDNdKVtOSF1bQ0gyXVtDQEBIXShbT0hdKVtDQEBIXShbTkhdQyg9TyljKFtjSF1jMjMpW2NIXVtjSF1bY0hdMylbQ0gyXVtDQEhdKFtDSDNdKVtDSDJdW0NIMl1bQ0gyXVtDSDJdW0NIMl1bQ0gyXVtDSDJdTzI=

> <s_epik_cmdline>
J2VwaWtfcHl0aG9uJywgJy1waCcsICc3LjAnLCAnLXRuJywgJzgnLCAnLW1hJywgJzIwMCcsICctaW1hZScsICc8aW5maWxlLm1hZT4nLCAnLW9tYWUnLCAnPG91dGZpbGUubWFlPic=

> <r_lp_tautomer_probability>
1

> <r_epik_Ionization_Penalty>
  0.4264

> <r_epik_Ionization_Penalty_Charging>
  0.0000

> <r_epik_Ionization_Penalty_Neutral>
  0.4264

> <r_epik_State_Penalty>
  0.4274

> <r_epik_Charging_Adjusted_Penalty>
0.427447

> <i_epik_Tot_Q>
0

> <i_epik_Tot_abs_Q>
0

> <s_lp_Force_Field>
OPLS_2005

> <r_lp_Energy>
39.0679

> <b_lp_Chiralities_Consistent>
1

> <s_lp_Variant>
BACE_79.smi:1-2

> <chiral flag>
1

> <version>
0

> <s_i_glide_gridfile>
second_dock_grid_2

> <i_i_glide_lignum>
159

> <i_i_glide_rotatable_bonds>
8

> <r_i_docking_score>
-3.7929

> <r_i_glide_ligand_efficiency>
-0.102511

> <r_i_glide_ligand_efficiency_sa>
-0.341589

> <r_i_glide_ligand_efficiency_ln>
-0.822592

> <r_glide_XP_GScore>
-4.2203

> <r_i_glide_gscore>
-4.2203

> <r_i_glide_evdw>
-35.9583

> <r_i_glide_ecoul>
-11.1902

> <r_i_glide_energy>
-47.1485

> <r_i_glide_einternal>
2.53477

> <r_i_glide_emodel>
-65.0305

> <r_glide_XP_HBond>
-0.7

> <i_i_glide_confnum>
1

> <i_i_glide_posenum>
82

> <r_i_glide_eff_state_penalty>
0.4274

> <i_glide_XP_PoseRank>
1

$$$$
BACE_80.smi:1
                    3D
 Structure written by MMmdl.
 86 89  0  0  1  0            999 V2000
   20.6374   41.6861   -2.4665 C   0  0  0  0  0  0
   21.8968   41.4717   -3.3215 C   0  0  0  0  0  0
   22.8021   42.7096   -3.3149 C   0  0  0  0  0  0
   21.5315   41.0457   -4.7392 C   0  0  0  0  0  0
   20.8186   41.9190   -5.5899 C   0  0  0  0  0  0
   20.3815   41.4894   -6.8621 C   0  0  0  0  0  0
   19.5649   42.4206   -7.7376 C   0  0  0  0  0  0
   18.1829   42.5500   -7.2401 N   0  3  0  0  0  0
   17.6449   43.9270   -7.1755 C   0  0  0  0  0  0
   16.9163   44.4161   -8.4410 C   0  0  1  0  0  0
   15.9606   45.3818   -8.0402 O   0  0  0  0  0  0
   17.8054   45.0009   -9.5718 C   0  0  2  0  0  0
   18.5008   46.3418   -9.2067 C   0  0  0  0  0  0
   19.4441   46.9868  -10.2635 C   0  0  2  0  0  0
   18.6879   47.7142  -11.3899 C   0  0  0  0  0  0
   20.5090   46.0313  -10.8424 C   0  0  0  0  0  0
   21.5297   45.5351   -9.8008 C   0  0  0  0  0  0
   22.5055   44.4675  -10.3245 C   0  0  0  0  0  0
   21.7913   43.1904  -10.7942 C   0  0  0  0  0  0
   22.6932   41.9484  -10.8575 C   0  0  0  0  0  0
   21.9214   40.6194  -11.0253 C   0  0  0  0  0  0
   21.2851   40.3600  -12.4118 C   0  0  0  0  0  0
   20.3377   41.3482  -12.8000 O   0  0  0  0  0  0
   19.1567   41.4628  -12.1026 C   0  0  0  0  0  0
   18.4591   42.6805  -12.2349 C   0  0  0  0  0  0
   17.2444   42.8909  -11.5571 C   0  0  0  0  0  0
   16.6921   41.8586  -10.7783 C   0  0  0  0  0  0
   17.3931   40.6498  -10.6048 C   0  0  0  0  0  0
   18.6206   40.4503  -11.2704 C   0  0  0  0  0  0
   16.8863   39.6455   -9.6819 C   0  0  0  0  0  0
   17.3220   38.4029   -9.4873 N   0  0  0  0  0  0
   16.5524   37.9205   -8.4400 C   0  0  0  0  0  0
   15.6921   38.9110   -8.0428 C   0  0  0  0  0  0
   15.8958   40.0131   -8.8226 O   0  0  0  0  0  0
   16.5686   44.2225  -11.6216 C   0  0  0  0  0  0
   15.6807   44.4287  -12.4388 O   0  0  0  0  0  0
   16.9679   45.1662  -10.7578 N   0  0  0  0  0  0
   20.6958   40.1874   -7.3002 C   0  0  0  0  0  0
   21.4533   39.3330   -6.4787 C   0  0  0  0  0  0
   21.8680   39.7555   -5.2008 C   0  0  0  0  0  0
   16.3256   43.5837   -8.8123 H   0  0  0  0  0  0
   18.5881   44.2721   -9.7848 H   0  0  0  0  0  0
   19.9855   47.7746   -9.7396 H   0  0  0  0  0  0
   20.0492   40.7695   -2.4101 H   0  0  0  0  0  0
   19.9976   42.4693   -2.8735 H   0  0  0  0  0  0
   20.8954   41.9739   -1.4473 H   0  0  0  0  0  0
   22.4597   40.6627   -2.8510 H   0  0  0  0  0  0
   23.7030   42.5379   -3.9041 H   0  0  0  0  0  0
   23.1130   42.9533   -2.2993 H   0  0  0  0  0  0
   22.2990   43.5836   -3.7254 H   0  0  0  0  0  0
   20.5610   42.9087   -5.2434 H   0  0  0  0  0  0
   20.0674   43.3868   -7.7710 H   0  0  0  0  0  0
   19.5186   42.0367   -8.7558 H   0  0  0  0  0  0
   17.5670   41.9608   -7.7811 H   0  0  0  0  0  0
   16.8610   43.8470   -6.4400 H   0  0  0  0  0  0
   18.3697   44.6371   -6.7769 H   0  0  0  0  0  0
   15.3884   44.9750   -7.4047 H   0  0  0  0  0  0
   17.7455   47.0783   -8.9288 H   0  0  0  0  0  0
   19.0804   46.1869   -8.2992 H   0  0  0  0  0  0
   18.2310   47.0213  -12.0952 H   0  0  0  0  0  0
   19.3688   48.3448  -11.9631 H   0  0  0  0  0  0
   17.9053   48.3609  -10.9937 H   0  0  0  0  0  0
   20.0103   45.1950  -11.3272 H   0  0  0  0  0  0
   21.0589   46.5360  -11.6370 H   0  0  0  0  0  0
   22.1066   46.3838   -9.4332 H   0  0  0  0  0  0
   21.0122   45.1350   -8.9318 H   0  0  0  0  0  0
   23.1163   44.8702  -11.1314 H   0  0  0  0  0  0
   23.1982   44.2207   -9.5192 H   0  0  0  0  0  0
   20.9610   42.9839  -10.1253 H   0  0  0  0  0  0
   21.3560   43.3779  -11.7728 H   0  0  0  0  0  0
   23.4380   42.0815  -11.6399 H   0  0  0  0  0  0
   23.2572   41.8826   -9.9258 H   0  0  0  0  0  0
   22.6119   39.7997  -10.8213 H   0  0  0  0  0  0
   21.1657   40.5498  -10.2459 H   0  0  0  0  0  0
   22.0595   40.3528  -13.1755 H   0  0  0  0  0  0
   20.8452   39.3639  -12.4555 H   0  0  0  0  0  0
   18.8751   43.4706  -12.8426 H   0  0  0  0  0  0
   15.7459   42.0122  -10.2780 H   0  0  0  0  0  0
   19.1355   39.5122  -11.1300 H   0  0  0  0  0  0
   16.6878   36.9257   -8.0404 H   0  0  0  0  0  0
   14.9367   38.9788   -7.2708 H   0  0  0  0  0  0
   16.5152   46.0641  -10.8419 H   0  0  0  0  0  0
   20.3574   39.8328   -8.2623 H   0  0  0  0  0  0
   21.6983   38.3380   -6.8221 H   0  0  0  0  0  0
   22.4224   39.0816   -4.5651 H   0  0  0  0  0  0
   18.1655   42.1652   -6.2926 H   0  0  0  0  0  0
  1  2  1  0  0  0
  1 44  1  0  0  0
  1 45  1  0  0  0
  1 46  1  0  0  0
  2  3  1  0  0  0
  2  4  1  0  0  0
  2 47  1  0  0  0
  3 48  1  0  0  0
  3 49  1  0  0  0
  3 50  1  0  0  0
  4 40  1  0  0  0
  4  5  2  0  0  0
  5  6  1  0  0  0
  5 51  1  0  0  0
  6  7  1  0  0  0
  6 38  2  0  0  0
  7  8  1  0  0  0
  7 52  1  0  0  0
  7 53  1  0  0  0
  8  9  1  0  0  0
  8 54  1  0  0  0
  8 86  1  0  0  0
  9 10  1  0  0  0
  9 55  1  0  0  0
  9 56  1  0  0  0
 10 41  1  0  0  0
 10 11  1  0  0  0
 10 12  1  0  0  0
 11 57  1  0  0  0
 12 42  1  0  0  0
 12 37  1  0  0  0
 12 13  1  0  0  0
 13 14  1  0  0  0
 13 58  1  0  0  0
 13 59  1  0  0  0
 14 43  1  0  0  0
 14 15  1  0  0  0
 14 16  1  0  0  0
 15 60  1  0  0  0
 15 61  1  0  0  0
 15 62  1  0  0  0
 16 17  1  0  0  0
 16 63  1  0  0  0
 16 64  1  0  0  0
 17 18  1  0  0  0
 17 65  1  0  0  0
 17 66  1  0  0  0
 18 19  1  0  0  0
 18 67  1  0  0  0
 18 68  1  0  0  0
 19 20  1  0  0  0
 19 69  1  0  0  0
 19 70  1  0  0  0
 20 21  1  0  0  0
 20 71  1  0  0  0
 20 72  1  0  0  0
 21 22  1  0  0  0
 21 73  1  0  0  0
 21 74  1  0  0  0
 22 23  1  0  0  0
 22 75  1  0  0  0
 22 76  1  0  0  0
 23 24  1  0  0  0
 24 29  1  0  0  0
 24 25  2  0  0  0
 25 26  1  0  0  0
 25 77  1  0  0  0
 26 27  2  0  0  0
 26 35  1  0  0  0
 27 28  1  0  0  0
 27 78  1  0  0  0
 28 29  2  0  0  0
 28 30  1  0  0  0
 29 79  1  0  0  0
 30 34  1  0  0  0
 30 31  2  0  0  0
 31 32  1  0  0  0
 32 33  2  0  0  0
 32 80  1  0  0  0
 33 34  1  0  0  0
 33 81  1  0  0  0
 35 36  2  0  0  0
 35 37  1  0  0  0
 37 82  1  0  0  0
 38 39  1  0  0  0
 38 83  1  0  0  0
 39 40  2  0  0  0
 39 84  1  0  0  0
 40 85  1  0  0  0
M  CHG  1   8   1
M  END
> <s_m_source_file>
BACE_80.smi

> <i_m_source_file_index>
1

> <i_lp_mmshare_version>
42013

> <i_f3d_flags>
0

> <s_epik_input>
bzFbY0hdW2NIXW5jMS1jKFtjSF0yKVtjSF1jKFtjSF1jMjMpQyg9TylbTkhdW0NASF0oW0NASF0oW09IXSlbQ0gyXVtOSF1bQ0gyXWMoW2NIXVtjSF1bY0hdNClbY0hdYzRbQ0hdKFtDSDNdKVtDSDNdKVtDSDJdW0NASF0oW0NIM10pW0NIMl1bQ0gyXVtDSDJdW0NIMl1bQ0gyXVtDSDJdW0NIMl1PMw==

> <s_epik_cmdline>
J2VwaWtfcHl0aG9uJywgJy1waCcsICc3LjAnLCAnLXRuJywgJzgnLCAnLW1hJywgJzIwMCcsICctaW1hZScsICc8aW5maWxlLm1hZT4nLCAnLW9tYWUnLCAnPG91dGZpbGUubWFlPic=

> <r_lp_tautomer_probability>
1

> <r_epik_Ionization_Penalty>
  0.0165

> <r_epik_Ionization_Penalty_Charging>
  0.0165

> <r_epik_Ionization_Penalty_Neutral>
  0.0000

> <r_epik_State_Penalty>
  0.0130

> <r_epik_Charging_Adjusted_Penalty>
0.0295552

> <i_epik_Tot_Q>
1

> <i_epik_Tot_abs_Q>
1

> <s_lp_Force_Field>
OPLS_2005

> <r_lp_Energy>
31.2081

> <b_lp_Chiralities_Consistent>
1

> <s_lp_Variant>
BACE_80.smi:1-1

> <chiral flag>
1

> <version>
0

> <s_i_glide_gridfile>
second_dock_grid_2

> <i_i_glide_lignum>
160

> <i_i_glide_rotatable_bonds>
8

> <r_i_docking_score>
-6.32485

> <r_i_glide_ligand_efficiency>
-0.158121

> <r_i_glide_ligand_efficiency_sa>
-0.540767

> <r_i_glide_ligand_efficiency_ln>
-1.3489

> <r_glide_XP_GScore>
-6.33785

> <r_i_glide_gscore>
-6.33785

> <r_i_glide_evdw>
-41.1355

> <r_i_glide_ecoul>
-13.1425

> <r_i_glide_energy>
-54.278

> <r_i_glide_einternal>
9.13903

> <r_i_glide_emodel>
-74.6945

> <r_glide_XP_HBond>
-0.656109

> <i_i_glide_confnum>
1

> <i_i_glide_posenum>
2

> <r_i_glide_eff_state_penalty>
0.013

> <i_glide_XP_PoseRank>
1

$$$$
BACE_80.smi:1
                    3D
 Structure written by MMmdl.
 85 88  0  0  1  0            999 V2000
   30.5103   45.6731  -10.1056 C   0  0  0  0  0  0
   30.2256   44.4156   -9.2713 C   0  0  0  0  0  0
   31.5139   43.7369   -8.7843 C   0  0  0  0  0  0
   29.3055   43.4607  -10.0217 C   0  0  0  0  0  0
   27.9302   43.4504   -9.7082 C   0  0  0  0  0  0
   27.0386   42.6094  -10.4053 C   0  0  0  0  0  0
   25.5614   42.6445  -10.0481 C   0  0  0  0  0  0
   24.6969   42.8245  -11.2145 N   0  0  0  0  0  0
   23.4865   43.6236  -10.9794 C   0  0  0  0  0  0
   22.6082   43.1477   -9.7935 C   0  0  1  0  0  0
   21.6719   44.1705   -9.5262 O   0  0  0  0  0  0
   21.8339   41.7943   -9.9272 C   0  0  2  0  0  0
   22.5054   40.7133   -9.0344 C   0  0  0  0  0  0
   21.7041   39.4332   -8.6988 C   0  0  2  0  0  0
   21.5242   38.4950   -9.8999 C   0  0  0  0  0  0
   20.3758   39.7191   -7.9712 C   0  0  0  0  0  0
   19.7408   38.4573   -7.3559 C   0  0  0  0  0  0
   18.4996   38.7412   -6.4973 C   0  0  0  0  0  0
   17.1497   38.6009   -7.2218 C   0  0  0  0  0  0
   16.8797   39.6561   -8.3046 C   0  0  0  0  0  0
   15.4697   39.5253   -8.9033 C   0  0  0  0  0  0
   15.1071   40.6418   -9.8947 C   0  0  0  0  0  0
   15.9367   40.5654  -11.0532 O   0  0  0  0  0  0
   16.9938   41.4422  -11.1423 C   0  0  0  0  0  0
   18.2391   40.9367  -11.5618 C   0  0  0  0  0  0
   19.3626   41.7814  -11.6820 C   0  0  0  0  0  0
   19.2116   43.1644  -11.4485 C   0  0  0  0  0  0
   17.9686   43.6914  -11.0351 C   0  0  0  0  0  0
   16.8655   42.8261  -10.8797 C   0  0  0  0  0  0
   17.8324   45.1224  -10.7749 C   0  0  0  0  0  0
   18.7179   46.0918  -10.9974 N   0  0  0  0  0  0
   18.0982   47.2588  -10.5758 C   0  0  0  0  0  0
   16.8524   46.9322  -10.1120 C   0  0  0  0  0  0
   16.6658   45.5827  -10.2372 O   0  0  0  0  0  0
   20.6764   41.2111  -12.1236 C   0  0  0  0  0  0
   20.7480   40.6313  -13.2049 O   0  0  0  0  0  0
   21.7539   41.3329  -11.3213 N   0  0  0  0  0  0
   27.5297   41.7514  -11.4099 C   0  0  0  0  0  0
   28.9039   41.7572  -11.7309 C   0  0  0  0  0  0
   29.7883   42.6118  -11.0428 C   0  0  0  0  0  0
   23.2236   43.1333   -8.8928 H   0  0  0  0  0  0
   20.8306   41.9346   -9.5232 H   0  0  0  0  0  0
   22.3372   38.8926   -7.9928 H   0  0  0  0  0  0
   29.5826   46.1872  -10.3614 H   0  0  0  0  0  0
   31.0230   45.4314  -11.0370 H   0  0  0  0  0  0
   31.1323   46.3781   -9.5538 H   0  0  0  0  0  0
   29.6947   44.7408   -8.3755 H   0  0  0  0  0  0
   31.2835   42.8640   -8.1709 H   0  0  0  0  0  0
   32.1078   44.4191   -8.1739 H   0  0  0  0  0  0
   32.1339   43.4139   -9.6191 H   0  0  0  0  0  0
   27.5545   44.1023   -8.9354 H   0  0  0  0  0  0
   25.3043   41.7309   -9.5138 H   0  0  0  0  0  0
   25.4170   43.4649   -9.3473 H   0  0  0  0  0  0
   24.4277   41.9109  -11.5687 H   0  0  0  0  0  0
   23.7901   44.6530  -10.7798 H   0  0  0  0  0  0
   22.8899   43.6649  -11.8920 H   0  0  0  0  0  0
   21.1275   44.2940  -10.2901 H   0  0  0  0  0  0
   23.4617   40.4247   -9.4726 H   0  0  0  0  0  0
   22.7533   41.1649   -8.0723 H   0  0  0  0  0  0
   20.7743   38.8593  -10.6000 H   0  0  0  0  0  0
   21.2082   37.5037   -9.5773 H   0  0  0  0  0  0
   22.4588   38.3640  -10.4388 H   0  0  0  0  0  0
   20.5586   40.4419   -7.1754 H   0  0  0  0  0  0
   19.6758   40.1925   -8.6567 H   0  0  0  0  0  0
   19.4891   37.7322   -8.1294 H   0  0  0  0  0  0
   20.4881   37.9767   -6.7232 H   0  0  0  0  0  0
   18.4819   38.0324   -5.6693 H   0  0  0  0  0  0
   18.5922   39.7231   -6.0410 H   0  0  0  0  0  0
   17.0671   37.6009   -7.6492 H   0  0  0  0  0  0
   16.3599   38.6636   -6.4703 H   0  0  0  0  0  0
   17.0145   40.6526   -7.8821 H   0  0  0  0  0  0
   17.6113   39.5444   -9.1027 H   0  0  0  0  0  0
   15.3723   38.5557   -9.3926 H   0  0  0  0  0  0
   14.7378   39.5316   -8.0938 H   0  0  0  0  0  0
   14.0764   40.5011  -10.2199 H   0  0  0  0  0  0
   15.1312   41.6035   -9.3839 H   0  0  0  0  0  0
   18.3374   39.8802  -11.7720 H   0  0  0  0  0  0
   20.0521   43.8237  -11.6023 H   0  0  0  0  0  0
   15.9105   43.2333  -10.5857 H   0  0  0  0  0  0
   18.5872   48.2194  -10.6380 H   0  0  0  0  0  0
   16.0369   47.5014   -9.6927 H   0  0  0  0  0  0
   22.6021   40.9411  -11.7071 H   0  0  0  0  0  0
   26.8592   41.0936  -11.9434 H   0  0  0  0  0  0
   29.2765   41.1072  -12.5114 H   0  0  0  0  0  0
   30.8334   42.6190  -11.3141 H   0  0  0  0  0  0
  1  2  1  0  0  0
  1 44  1  0  0  0
  1 45  1  0  0  0
  1 46  1  0  0  0
  2  3  1  0  0  0
  2  4  1  0  0  0
  2 47  1  0  0  0
  3 48  1  0  0  0
  3 49  1  0  0  0
  3 50  1  0  0  0
  4 40  1  0  0  0
  4  5  2  0  0  0
  5  6  1  0  0  0
  5 51  1  0  0  0
  6  7  1  0  0  0
  6 38  2  0  0  0
  7  8  1  0  0  0
  7 52  1  0  0  0
  7 53  1  0  0  0
  8  9  1  0  0  0
  8 54  1  0  0  0
  9 10  1  0  0  0
  9 55  1  0  0  0
  9 56  1  0  0  0
 10 41  1  0  0  0
 10 11  1  0  0  0
 10 12  1  0  0  0
 11 57  1  0  0  0
 12 42  1  0  0  0
 12 37  1  0  0  0
 12 13  1  0  0  0
 13 14  1  0  0  0
 13 58  1  0  0  0
 13 59  1  0  0  0
 14 43  1  0  0  0
 14 15  1  0  0  0
 14 16  1  0  0  0
 15 60  1  0  0  0
 15 61  1  0  0  0
 15 62  1  0  0  0
 16 17  1  0  0  0
 16 63  1  0  0  0
 16 64  1  0  0  0
 17 18  1  0  0  0
 17 65  1  0  0  0
 17 66  1  0  0  0
 18 19  1  0  0  0
 18 67  1  0  0  0
 18 68  1  0  0  0
 19 20  1  0  0  0
 19 69  1  0  0  0
 19 70  1  0  0  0
 20 21  1  0  0  0
 20 71  1  0  0  0
 20 72  1  0  0  0
 21 22  1  0  0  0
 21 73  1  0  0  0
 21 74  1  0  0  0
 22 23  1  0  0  0
 22 75  1  0  0  0
 22 76  1  0  0  0
 23 24  1  0  0  0
 24 29  1  0  0  0
 24 25  2  0  0  0
 25 26  1  0  0  0
 25 77  1  0  0  0
 26 27  2  0  0  0
 26 35  1  0  0  0
 27 28  1  0  0  0
 27 78  1  0  0  0
 28 29  2  0  0  0
 28 30  1  0  0  0
 29 79  1  0  0  0
 30 34  1  0  0  0
 30 31  2  0  0  0
 31 32  1  0  0  0
 32 33  2  0  0  0
 32 80  1  0  0  0
 33 34  1  0  0  0
 33 81  1  0  0  0
 35 36  2  0  0  0
 35 37  1  0  0  0
 37 82  1  0  0  0
 38 39  1  0  0  0
 38 83  1  0  0  0
 39 40  2  0  0  0
 39 84  1  0  0  0
 40 85  1  0  0  0
M  END
> <s_m_source_file>
BACE_80.smi

> <i_m_source_file_index>
1

> <i_lp_mmshare_version>
42013

> <i_f3d_flags>
0

> <s_epik_input>
bzFbY0hdW2NIXW5jMS1jKFtjSF0yKVtjSF1jKFtjSF1jMjMpQyg9TylbTkhdW0NASF0oW0NASF0oW09IXSlbQ0gyXVtOSF1bQ0gyXWMoW2NIXVtjSF1bY0hdNClbY0hdYzRbQ0hdKFtDSDNdKVtDSDNdKVtDSDJdW0NASF0oW0NIM10pW0NIMl1bQ0gyXVtDSDJdW0NIMl1bQ0gyXVtDSDJdW0NIMl1PMw==

> <s_epik_cmdline>
J2VwaWtfcHl0aG9uJywgJy1waCcsICc3LjAnLCAnLXRuJywgJzgnLCAnLW1hJywgJzIwMCcsICctaW1hZScsICc8aW5maWxlLm1hZT4nLCAnLW9tYWUnLCAnPG91dGZpbGUubWFlPic=

> <r_lp_tautomer_probability>
1

> <r_epik_Ionization_Penalty>
  2.1294

> <r_epik_Ionization_Penalty_Charging>
  0.0000

> <r_epik_Ionization_Penalty_Neutral>
  2.1294

> <r_epik_State_Penalty>
  2.2676

> <r_epik_Charging_Adjusted_Penalty>
2.26762

> <i_epik_Tot_Q>
0

> <i_epik_Tot_abs_Q>
0

> <s_lp_Force_Field>
OPLS_2005

> <r_lp_Energy>
50.2258

> <b_lp_Chiralities_Consistent>
1

> <s_lp_Variant>
BACE_80.smi:1-2

> <chiral flag>
1

> <version>
0

> <s_i_glide_gridfile>
second_dock_grid_2

> <i_i_glide_lignum>
161

> <i_i_glide_rotatable_bonds>
8

> <r_i_docking_score>
-2.07432

> <r_i_glide_ligand_efficiency>
-0.0518581

> <r_i_glide_ligand_efficiency_sa>
-0.177352

> <r_i_glide_ligand_efficiency_ln>
-0.442392

> <r_glide_XP_GScore>
-4.34192

> <r_i_glide_gscore>
-4.34192

> <r_i_glide_evdw>
-42.1479

> <r_i_glide_ecoul>
-8.68897

> <r_i_glide_energy>
-50.8368

> <r_i_glide_einternal>
5.92107

> <r_i_glide_emodel>
-72.4668

> <r_glide_XP_HBond>
-0.94233

> <i_i_glide_confnum>
1

> <i_i_glide_posenum>
1

> <r_i_glide_eff_state_penalty>
2.2676

> <i_glide_XP_PoseRank>
1

$$$$
BACE_81.smi:1
                    3D
 Structure written by MMmdl.
 91 95  0  0  1  0            999 V2000
   23.8706   44.2360  -11.1519 C   0  0  0  0  0  0
   23.0608   43.6005  -10.0006 C   0  0  2  0  0  0
   23.8500   43.5769   -8.6579 C   0  0  0  0  0  0
   24.3964   44.9229   -8.1160 C   0  0  0  0  0  0
   23.3532   45.9466   -7.6127 C   0  0  0  0  0  0
   22.9113   45.7628   -6.1403 C   0  0  0  0  0  0
   21.9215   46.8470   -5.6393 C   0  0  0  0  0  0
   20.4218   46.4677   -5.6403 C   0  0  0  0  0  0
   19.9157   45.9614   -6.9949 C   0  0  0  0  0  0
   18.5006   45.7788   -7.0247 O   0  0  0  0  0  0
   17.9687   45.0881   -8.1009 C   0  0  0  0  0  0
   16.5711   44.9038   -8.1514 C   0  0  0  0  0  0
   15.9643   44.1805   -9.2072 C   0  0  0  0  0  0
   16.7767   43.6089  -10.2163 C   0  0  0  0  0  0
   18.1784   43.7643  -10.1722 C   0  0  0  0  0  0
   18.7521   44.5385   -9.1440 C   0  0  0  0  0  0
   19.0755   43.1274  -11.1962 C   0  0  0  0  0  0
   18.7879   43.1194  -12.3934 O   0  0  0  0  0  0
   20.1860   42.5785  -10.6663 N   0  0  0  0  0  0
   21.3721   42.0560  -11.3455 C   0  0  1  0  0  0
   22.5963   42.1636  -10.3842 C   0  0  0  0  0  0
   21.1106   40.6231  -11.8985 C   0  0  2  0  0  0
   20.3686   40.6956  -13.1028 O   0  0  0  0  0  0
   20.3238   39.7322  -10.9120 C   0  0  0  0  0  0
   21.0530   39.5640   -9.6504 N   0  0  0  0  0  0
   20.3124   39.2054   -8.4311 C   0  0  0  0  0  0
   20.5265   40.0613   -7.2057 C   0  0  0  0  0  0
   21.1054   38.6679   -7.2639 C   0  0  0  0  0  0
   18.9193   38.6361   -8.6587 C   0  0  0  0  0  0
   17.7525   39.3951   -8.4096 C   0  0  0  0  0  0
   16.4763   38.8092   -8.6179 C   0  0  0  0  0  0
   16.4555   37.4657   -9.0672 C   0  0  0  0  0  0
   17.6720   36.7877   -9.2786 C   0  0  0  0  0  0
   18.8802   37.3517   -9.0777 N   0  0  0  0  0  0
   15.1518   39.5680   -8.3747 C   0  0  0  0  0  0
   14.0448   39.2021   -9.3941 C   0  0  0  0  0  0
   14.6105   39.2361   -6.9650 C   0  0  0  0  0  0
   15.3948   41.0911   -8.4821 C   0  0  0  0  0  0
   14.5099   44.0138   -9.2402 C   0  0  0  0  0  0
   13.5917   44.5480   -8.4323 N   0  0  0  0  0  0
   12.3723   44.0745   -8.8939 C   0  0  0  0  0  0
   12.6137   43.2665   -9.9727 C   0  0  0  0  0  0
   13.9618   43.2194  -10.2029 O   0  0  0  0  0  0
   22.1779   44.2171   -9.8424 H   0  0  0  0  0  0
   21.5520   42.7041  -12.2036 H   0  0  0  0  0  0
   22.0660   40.1430  -12.1146 H   0  0  0  0  0  0
   24.0818   45.2887  -10.9667 H   0  0  0  0  0  0
   23.3288   44.1990  -12.0962 H   0  0  0  0  0  0
   24.8228   43.7257  -11.3014 H   0  0  0  0  0  0
   23.2303   43.1250   -7.8826 H   0  0  0  0  0  0
   24.6989   42.9019   -8.7761 H   0  0  0  0  0  0
   25.0129   45.3958   -8.8794 H   0  0  0  0  0  0
   25.0938   44.7115   -7.3046 H   0  0  0  0  0  0
   22.4954   45.9663   -8.2816 H   0  0  0  0  0  0
   23.8036   46.9365   -7.6973 H   0  0  0  0  0  0
   23.8054   45.8168   -5.5178 H   0  0  0  0  0  0
   22.5053   44.7649   -5.9730 H   0  0  0  0  0  0
   22.0663   47.7703   -6.2016 H   0  0  0  0  0  0
   22.1871   47.0993   -4.6119 H   0  0  0  0  0  0
   19.8399   47.3402   -5.3412 H   0  0  0  0  0  0
   20.2357   45.7061   -4.8821 H   0  0  0  0  0  0
   20.4164   45.0093   -7.1673 H   0  0  0  0  0  0
   20.1978   46.6606   -7.7838 H   0  0  0  0  0  0
   15.9668   45.3274   -7.3623 H   0  0  0  0  0  0
   16.3330   43.0323  -11.0152 H   0  0  0  0  0  0
   19.8197   44.6826   -9.1705 H   0  0  0  0  0  0
   20.2618   42.6237   -9.6602 H   0  0  0  0  0  0
   23.4489   41.6287  -10.8038 H   0  0  0  0  0  0
   22.3480   41.6250   -9.4685 H   0  0  0  0  0  0
   20.0278   39.8359  -13.2972 H   0  0  0  0  0  0
   20.1184   38.7642  -11.3707 H   0  0  0  0  0  0
   19.3581   40.1943  -10.7076 H   0  0  0  0  0  0
   21.8699   38.9728   -9.7661 H   0  0  0  0  0  0
   21.2184   40.8993   -7.2898 H   0  0  0  0  0  0
   19.6719   40.2259   -6.5493 H   0  0  0  0  0  0
   20.6379   37.9008   -6.6464 H   0  0  0  0  0  0
   22.1843   38.5742   -7.3869 H   0  0  0  0  0  0
   17.8666   40.4098   -8.0615 H   0  0  0  0  0  0
   15.5266   36.9462   -9.2495 H   0  0  0  0  0  0
   17.6734   35.7622   -9.6176 H   0  0  0  0  0  0
   14.3357   39.4432  -10.4175 H   0  0  0  0  0  0
   13.1240   39.7523   -9.1954 H   0  0  0  0  0  0
   13.7879   38.1425   -9.3556 H   0  0  0  0  0  0
   15.2938   39.5439   -6.1733 H   0  0  0  0  0  0
   14.4383   38.1653   -6.8479 H   0  0  0  0  0  0
   13.6618   39.7387   -6.7721 H   0  0  0  0  0  0
   14.4718   41.6545   -8.3388 H   0  0  0  0  0  0
   16.1015   41.4537   -7.7355 H   0  0  0  0  0  0
   15.7896   41.3620   -9.4623 H   0  0  0  0  0  0
   11.4390   44.3468   -8.4237 H   0  0  0  0  0  0
   11.9852   42.6932  -10.6381 H   0  0  0  0  0  0
  1  2  1  0  0  0
  1 47  1  0  0  0
  1 48  1  0  0  0
  1 49  1  0  0  0
  2 44  1  0  0  0
  2 21  1  0  0  0
  2  3  1  0  0  0
  3  4  1  0  0  0
  3 50  1  0  0  0
  3 51  1  0  0  0
  4  5  1  0  0  0
  4 52  1  0  0  0
  4 53  1  0  0  0
  5  6  1  0  0  0
  5 54  1  0  0  0
  5 55  1  0  0  0
  6  7  1  0  0  0
  6 56  1  0  0  0
  6 57  1  0  0  0
  7  8  1  0  0  0
  7 58  1  0  0  0
  7 59  1  0  0  0
  8  9  1  0  0  0
  8 60  1  0  0  0
  8 61  1  0  0  0
  9 10  1  0  0  0
  9 62  1  0  0  0
  9 63  1  0  0  0
 10 11  1  0  0  0
 11 16  1  0  0  0
 11 12  2  0  0  0
 12 13  1  0  0  0
 12 64  1  0  0  0
 13 14  2  0  0  0
 13 39  1  0  0  0
 14 15  1  0  0  0
 14 65  1  0  0  0
 15 16  2  0  0  0
 15 17  1  0  0  0
 16 66  1  0  0  0
 17 18  2  0  0  0
 17 19  1  0  0  0
 19 20  1  0  0  0
 19 67  1  0  0  0
 20 45  1  0  0  0
 20 21  1  0  0  0
 20 22  1  0  0  0
 21 68  1  0  0  0
 21 69  1  0  0  0
 22 46  1  0  0  0
 22 23  1  0  0  0
 22 24  1  0  0  0
 23 70  1  0  0  0
 24 25  1  0  0  0
 24 71  1  0  0  0
 24 72  1  0  0  0
 25 26  1  0  0  0
 25 73  1  0  0  0
 26 28  1  0  0  0
 26 27  1  0  0  0
 26 29  1  0  0  0
 27 28  1  0  0  0
 27 74  1  0  0  0
 27 75  1  0  0  0
 28 76  1  0  0  0
 28 77  1  0  0  0
 29 34  1  0  0  0
 29 30  2  0  0  0
 30 31  1  0  0  0
 30 78  1  0  0  0
 31 32  2  0  0  0
 31 35  1  0  0  0
 32 33  1  0  0  0
 32 79  1  0  0  0
 33 34  2  0  0  0
 33 80  1  0  0  0
 35 36  1  0  0  0
 35 37  1  0  0  0
 35 38  1  0  0  0
 36 81  1  0  0  0
 36 82  1  0  0  0
 36 83  1  0  0  0
 37 84  1  0  0  0
 37 85  1  0  0  0
 37 86  1  0  0  0
 38 87  1  0  0  0
 38 88  1  0  0  0
 38 89  1  0  0  0
 39 43  1  0  0  0
 39 40  2  0  0  0
 40 41  1  0  0  0
 41 42  2  0  0  0
 41 90  1  0  0  0
 42 43  1  0  0  0
 42 91  1  0  0  0
M  END
> <s_m_source_file>
BACE_81.smi

> <i_m_source_file_index>
1

> <i_lp_mmshare_version>
42013

> <i_f3d_flags>
0

> <s_epik_input>
TzFbQ0gyXVtDSDJdW0NIMl1bQ0gyXVtDSDJdW0NIMl1bQ0gyXVtDQEBIXShbQ0gzXSlbQ0gyXVtDQEhdKFtOSF1DKD1PKWMoW2NIXTIpW2NIXWMoW2NIXWMxMiktYzNuW2NIXVtjSF1vMylbQ0BIXShbT0hdKVtDSDJdW05IXUM0KFtDSDJdW0NIMl00KWM1W2NIXWMoW2NIXVtjSF1uNSlDKFtDSDNdKShbQ0gzXSlbQ0gzXQ==

> <s_epik_cmdline>
J2VwaWtfcHl0aG9uJywgJy1waCcsICc3LjAnLCAnLXRuJywgJzgnLCAnLW1hJywgJzIwMCcsICctaW1hZScsICc8aW5maWxlLm1hZT4nLCAnLW9tYWUnLCAnPG91dGZpbGUubWFlPic=

> <r_lp_tautomer_probability>
1

> <r_epik_Ionization_Penalty>
  0.2176

> <r_epik_Ionization_Penalty_Charging>
  0.0000

> <r_epik_Ionization_Penalty_Neutral>
  0.2176

> <r_epik_State_Penalty>
  0.0835

> <r_epik_Charging_Adjusted_Penalty>
0.0835319

> <i_epik_Tot_Q>
0

> <i_epik_Tot_abs_Q>
0

> <s_lp_Force_Field>
OPLS_2005

> <r_lp_Energy>
54.7295

> <b_lp_Chiralities_Consistent>
1

> <s_lp_Variant>
BACE_81.smi:1-1

> <chiral flag>
1

> <version>
0

> <s_i_glide_gridfile>
second_dock_grid_2

> <i_i_glide_lignum>
162

> <i_i_glide_rotatable_bonds>
8

> <r_i_docking_score>
-1.95047

> <r_i_glide_ligand_efficiency>
-0.0453598

> <r_i_glide_ligand_efficiency_sa>
-0.158913

> <r_i_glide_ligand_efficiency_ln>
-0.409659

> <r_glide_XP_GScore>
-2.03397

> <r_i_glide_gscore>
-2.03397

> <r_i_glide_evdw>
-45.5289

> <r_i_glide_ecoul>
-7.97994

> <r_i_glide_energy>
-53.5088

> <r_i_glide_einternal>
6.69124

> <r_i_glide_emodel>
-75.7498

> <r_glide_XP_HBond>
-0.574291

> <i_i_glide_confnum>
1

> <i_i_glide_posenum>
4

> <r_i_glide_eff_state_penalty>
0.0835

> <i_glide_XP_PoseRank>
1

$$$$
BACE_81.smi:1
                    3D
 Structure written by MMmdl.
 92 96  0  0  1  0            999 V2000
   22.4373   47.7487   -7.4659 C   0  0  0  0  0  0
   21.9144   46.3136   -7.2825 C   0  0  2  0  0  0
   23.0910   45.3227   -7.1200 C   0  0  0  0  0  0
   23.6218   45.2102   -5.6778 C   0  0  0  0  0  0
   22.7322   44.3664   -4.7466 C   0  0  0  0  0  0
   22.8436   42.8592   -5.0110 C   0  0  0  0  0  0
   21.8681   42.0239   -4.1689 C   0  0  0  0  0  0
   21.8814   40.5136   -4.4851 C   0  0  0  0  0  0
   21.3288   40.1420   -5.8771 C   0  0  0  0  0  0
   22.3898   40.1217   -6.8328 O   0  0  0  0  0  0
   22.3591   40.9136   -7.9642 C   0  0  0  0  0  0
   23.5886   41.0705   -8.6393 C   0  0  0  0  0  0
   23.7010   41.9000   -9.7750 C   0  0  0  0  0  0
   22.5537   42.5502  -10.2668 C   0  0  0  0  0  0
   21.3154   42.4025   -9.6154 C   0  0  0  0  0  0
   21.2127   41.5759   -8.4728 C   0  0  0  0  0  0
   20.1201   43.1171  -10.1660 C   0  0  0  0  0  0
   19.6245   42.7633  -11.2333 O   0  0  0  0  0  0
   19.6365   44.1780   -9.4960 N   0  0  0  0  0  0
   20.0228   44.7276   -8.1959 C   0  0  1  0  0  0
   20.9879   45.9170   -8.4563 C   0  0  0  0  0  0
   18.7385   45.1329   -7.4005 C   0  0  2  0  0  0
   19.0800   45.3468   -6.0446 O   0  0  0  0  0  0
   17.5844   44.0950   -7.3675 C   0  0  0  0  0  0
   16.8954   43.9772   -8.6580 N   0  0  0  0  0  0
   15.6848   43.1595   -8.6686 C   0  0  0  0  0  0
   14.7372   43.3935   -9.8235 C   0  0  0  0  0  0
   14.3513   43.8431   -8.4397 C   0  0  0  0  0  0
   15.9259   41.7309   -8.2565 C   0  0  0  0  0  0
   16.7612   40.8467   -8.9753 C   0  0  0  0  0  0
   16.9857   39.5282   -8.5004 C   0  0  0  0  0  0
   16.3204   39.1400   -7.3134 C   0  0  0  0  0  0
   15.4917   40.0495   -6.6389 C   0  0  0  0  0  0
   15.3467   41.3039   -7.1156 N   0  3  0  0  0  0
   17.9193   38.5315   -9.2071 C   0  0  0  0  0  0
   17.1649   37.2175   -9.4879 C   0  0  0  0  0  0
   18.4637   39.0696  -10.5492 C   0  0  0  0  0  0
   19.1257   38.2246   -8.3004 C   0  0  0  0  0  0
   24.9838   42.1058  -10.4397 C   0  0  0  0  0  0
   25.3047   43.0498  -11.3268 N   0  0  0  0  0  0
   26.6360   42.8243  -11.6377 C   0  0  0  0  0  0
   27.0632   41.7502  -10.9058 C   0  0  0  0  0  0
   26.0284   41.2887  -10.1363 O   0  0  0  0  0  0
   21.3291   46.3232   -6.3667 H   0  0  0  0  0  0
   20.5415   43.9613   -7.6212 H   0  0  0  0  0  0
   18.3442   46.0718   -7.7900 H   0  0  0  0  0  0
   23.0221   47.8432   -8.3814 H   0  0  0  0  0  0
   23.0739   48.0481   -6.6326 H   0  0  0  0  0  0
   21.6149   48.4634   -7.5207 H   0  0  0  0  0  0
   23.9059   45.6284   -7.7758 H   0  0  0  0  0  0
   22.8121   44.3352   -7.4801 H   0  0  0  0  0  0
   23.7463   46.2070   -5.2561 H   0  0  0  0  0  0
   24.6218   44.7756   -5.6901 H   0  0  0  0  0  0
   21.6929   44.6842   -4.8301 H   0  0  0  0  0  0
   23.0249   44.5570   -3.7133 H   0  0  0  0  0  0
   23.8679   42.5410   -4.8214 H   0  0  0  0  0  0
   22.6520   42.6722   -6.0608 H   0  0  0  0  0  0
   22.1103   42.1641   -3.1149 H   0  0  0  0  0  0
   20.8525   42.4043   -4.2958 H   0  0  0  0  0  0
   21.2554   40.0245   -3.7376 H   0  0  0  0  0  0
   22.8809   40.0986   -4.3479 H   0  0  0  0  0  0
   20.4848   40.7862   -6.1083 H   0  0  0  0  0  0
   20.9295   39.1288   -5.8414 H   0  0  0  0  0  0
   24.4602   40.5597   -8.2569 H   0  0  0  0  0  0
   22.6253   43.1797  -11.1421 H   0  0  0  0  0  0
   20.2409   41.4698   -8.0162 H   0  0  0  0  0  0
   18.9090   44.6888   -9.9714 H   0  0  0  0  0  0
   21.6248   45.6965   -9.3145 H   0  0  0  0  0  0
   20.3935   46.7797   -8.7615 H   0  0  0  0  0  0
   19.5274   44.5741   -5.7300 H   0  0  0  0  0  0
   16.8614   44.4077   -6.6169 H   0  0  0  0  0  0
   17.9628   43.1238   -7.0427 H   0  0  0  0  0  0
   17.5459   43.6015   -9.3384 H   0  0  0  0  0  0
   14.9798   44.1743  -10.5413 H   0  0  0  0  0  0
   14.1992   42.5375  -10.2260 H   0  0  0  0  0  0
   13.5591   43.2901   -7.9410 H   0  0  0  0  0  0
   14.3655   44.9135   -8.2455 H   0  0  0  0  0  0
   17.2373   41.2079   -9.8739 H   0  0  0  0  0  0
   16.4524   38.1523   -6.8904 H   0  0  0  0  0  0
   14.9781   39.8226   -5.7105 H   0  0  0  0  0  0
   16.8571   36.7097   -8.5724 H   0  0  0  0  0  0
   17.7935   36.5188  -10.0382 H   0  0  0  0  0  0
   16.2675   37.3926  -10.0813 H   0  0  0  0  0  0
   19.0764   39.9627  -10.4098 H   0  0  0  0  0  0
   17.6574   39.3174  -11.2403 H   0  0  0  0  0  0
   19.0952   38.3289  -11.0426 H   0  0  0  0  0  0
   19.6858   39.1290   -8.0712 H   0  0  0  0  0  0
   19.8155   37.5275   -8.7789 H   0  0  0  0  0  0
   18.8216   37.7778   -7.3535 H   0  0  0  0  0  0
   27.1686   43.4365  -12.3496 H   0  0  0  0  0  0
   28.0001   41.2182  -10.8304 H   0  0  0  0  0  0
   14.7878   41.9516   -6.5471 H   0  0  0  0  0  0
  1  2  1  0  0  0
  1 47  1  0  0  0
  1 48  1  0  0  0
  1 49  1  0  0  0
  2 44  1  0  0  0
  2 21  1  0  0  0
  2  3  1  0  0  0
  3  4  1  0  0  0
  3 50  1  0  0  0
  3 51  1  0  0  0
  4  5  1  0  0  0
  4 52  1  0  0  0
  4 53  1  0  0  0
  5  6  1  0  0  0
  5 54  1  0  0  0
  5 55  1  0  0  0
  6  7  1  0  0  0
  6 56  1  0  0  0
  6 57  1  0  0  0
  7  8  1  0  0  0
  7 58  1  0  0  0
  7 59  1  0  0  0
  8  9  1  0  0  0
  8 60  1  0  0  0
  8 61  1  0  0  0
  9 10  1  0  0  0
  9 62  1  0  0  0
  9 63  1  0  0  0
 10 11  1  0  0  0
 11 16  1  0  0  0
 11 12  2  0  0  0
 12 13  1  0  0  0
 12 64  1  0  0  0
 13 14  2  0  0  0
 13 39  1  0  0  0
 14 15  1  0  0  0
 14 65  1  0  0  0
 15 16  2  0  0  0
 15 17  1  0  0  0
 16 66  1  0  0  0
 17 18  2  0  0  0
 17 19  1  0  0  0
 19 20  1  0  0  0
 19 67  1  0  0  0
 20 45  1  0  0  0
 20 21  1  0  0  0
 20 22  1  0  0  0
 21 68  1  0  0  0
 21 69  1  0  0  0
 22 46  1  0  0  0
 22 23  1  0  0  0
 22 24  1  0  0  0
 23 70  1  0  0  0
 24 25  1  0  0  0
 24 71  1  0  0  0
 24 72  1  0  0  0
 25 26  1  0  0  0
 25 73  1  0  0  0
 26 28  1  0  0  0
 26 27  1  0  0  0
 26 29  1  0  0  0
 27 28  1  0  0  0
 27 74  1  0  0  0
 27 75  1  0  0  0
 28 76  1  0  0  0
 28 77  1  0  0  0
 29 34  1  0  0  0
 29 30  2  0  0  0
 30 31  1  0  0  0
 30 78  1  0  0  0
 31 32  2  0  0  0
 31 35  1  0  0  0
 32 33  1  0  0  0
 32 79  1  0  0  0
 33 34  2  0  0  0
 33 80  1  0  0  0
 34 92  1  0  0  0
 35 36  1  0  0  0
 35 37  1  0  0  0
 35 38  1  0  0  0
 36 81  1  0  0  0
 36 82  1  0  0  0
 36 83  1  0  0  0
 37 84  1  0  0  0
 37 85  1  0  0  0
 37 86  1  0  0  0
 38 87  1  0  0  0
 38 88  1  0  0  0
 38 89  1  0  0  0
 39 43  1  0  0  0
 39 40  2  0  0  0
 40 41  1  0  0  0
 41 42  2  0  0  0
 41 90  1  0  0  0
 42 43  1  0  0  0
 42 91  1  0  0  0
M  CHG  1  34   1
M  END
> <s_m_source_file>
BACE_81.smi

> <i_m_source_file_index>
1

> <i_lp_mmshare_version>
42013

> <i_f3d_flags>
0

> <s_epik_input>
TzFbQ0gyXVtDSDJdW0NIMl1bQ0gyXVtDSDJdW0NIMl1bQ0gyXVtDQEBIXShbQ0gzXSlbQ0gyXVtDQEhdKFtOSF1DKD1PKWMoW2NIXTIpW2NIXWMoW2NIXWMxMiktYzNuW2NIXVtjSF1vMylbQ0BIXShbT0hdKVtDSDJdW05IXUM0KFtDSDJdW0NIMl00KWM1W2NIXWMoW2NIXVtjSF1uNSlDKFtDSDNdKShbQ0gzXSlbQ0gzXQ==

> <s_epik_cmdline>
J2VwaWtfcHl0aG9uJywgJy1waCcsICc3LjAnLCAnLXRuJywgJzgnLCAnLW1hJywgJzIwMCcsICctaW1hZScsICc8aW5maWxlLm1hZT4nLCAnLW9tYWUnLCAnPG91dGZpbGUubWFlPic=

> <r_epik_Ionization_Penalty>
  2.3769

> <r_epik_Ionization_Penalty_Charging>
  2.3769

> <r_epik_Ionization_Penalty_Neutral>
  0.0000

> <r_epik_State_Penalty>
  1.5172

> <r_epik_Charging_Adjusted_Penalty>
3.89406

> <i_epik_Tot_Q>
1

> <i_epik_Tot_abs_Q>
1

> <s_lp_Force_Field>
OPLS_2005

> <r_lp_Energy>
60.7398

> <b_lp_Chiralities_Consistent>
1

> <s_lp_Variant>
BACE_81.smi:1-2

> <chiral flag>
1

> <version>
0

> <s_i_glide_gridfile>
second_dock_grid_2

> <i_i_glide_lignum>
163

> <i_i_glide_rotatable_bonds>
8

> <r_i_docking_score>
-4.83871

> <r_i_glide_ligand_efficiency>
-0.112528

> <r_i_glide_ligand_efficiency_sa>
-0.394231

> <r_i_glide_ligand_efficiency_ln>
-1.01628

> <r_glide_XP_GScore>
-6.35591

> <r_i_glide_gscore>
-6.35591

> <r_i_glide_evdw>
-45.1277

> <r_i_glide_ecoul>
-11.6072

> <r_i_glide_energy>
-56.7349

> <r_i_glide_einternal>
2.97217

> <r_i_glide_emodel>
-74.8006

> <r_glide_XP_HBond>
-0.900003

> <i_i_glide_confnum>
1

> <i_i_glide_posenum>
5

> <r_i_glide_eff_state_penalty>
1.5172

> <i_glide_XP_PoseRank>
1

$$$$
BACE_81.smi:1
                    3D
 Structure written by MMmdl.
 92 96  0  0  1  0            999 V2000
   20.0115   39.0246   -6.9070 C   0  0  0  0  0  0
   19.3112   38.8675   -8.2676 C   0  0  2  0  0  0
   18.3230   37.6800   -8.2544 C   0  0  0  0  0  0
   17.1438   37.8556   -9.2245 C   0  0  0  0  0  0
   16.0717   38.8051   -8.6691 C   0  0  0  0  0  0
   15.1955   39.4239   -9.7672 C   0  0  0  0  0  0
   14.4600   40.7033   -9.3320 C   0  0  0  0  0  0
   15.2282   42.0213   -9.5590 C   0  0  0  0  0  0
   16.2266   42.3973   -8.4438 C   0  0  0  0  0  0
   16.9057   43.6129   -8.7392 O   0  0  0  0  0  0
   18.0113   43.5763   -9.5632 C   0  0  0  0  0  0
   18.7337   44.7790   -9.7038 C   0  0  0  0  0  0
   19.8748   44.8513  -10.5326 C   0  0  0  0  0  0
   20.2858   43.7062  -11.2400 C   0  0  0  0  0  0
   19.5735   42.4958  -11.1182 C   0  0  0  0  0  0
   18.4502   42.4272  -10.2710 C   0  0  0  0  0  0
   19.9751   41.3104  -11.9420 C   0  0  0  0  0  0
   19.8575   41.3500  -13.1646 O   0  0  0  0  0  0
   20.4894   40.2380  -11.3235 N   0  0  0  0  0  0
   20.9076   40.0777   -9.9239 C   0  0  1  0  0  0
   20.3383   38.7278   -9.4163 C   0  0  0  0  0  0
   22.4567   40.1586   -9.8379 C   0  0  2  0  0  0
   22.8908   39.9688   -8.5079 O   0  0  0  0  0  0
   23.0320   41.5156  -10.3005 C   0  0  0  0  0  0
   24.5121   41.5048  -10.4389 N   0  3  0  0  0  0
   25.2136   42.7433  -10.8939 C   0  0  0  0  0  0
   24.6250   43.3984  -12.1311 C   0  0  0  0  0  0
   24.4733   44.0689  -10.7841 C   0  0  0  0  0  0
   26.7072   42.6428  -10.7956 C   0  0  0  0  0  0
   27.4754   43.4729   -9.9512 C   0  0  0  0  0  0
   28.8889   43.4118  -10.0144 C   0  0  0  0  0  0
   29.4522   42.4886  -10.9265 C   0  0  0  0  0  0
   28.6004   41.6826  -11.7040 C   0  0  0  0  0  0
   27.2558   41.7501  -11.6401 N   0  0  0  0  0  0
   29.7873   44.3645   -9.2016 C   0  0  0  0  0  0
   30.1934   45.5390  -10.1078 C   0  0  0  0  0  0
   29.0667   44.9388   -7.9623 C   0  0  0  0  0  0
   31.0745   43.6563   -8.7150 C   0  0  0  0  0  0
   20.6151   46.1037  -10.6615 C   0  0  0  0  0  0
   20.3498   47.2882  -10.1110 N   0  0  0  0  0  0
   21.3604   48.1295  -10.5532 C   0  0  0  0  0  0
   22.1971   47.4032  -11.3550 C   0  0  0  0  0  0
   21.7356   46.1166  -11.4365 O   0  0  0  0  0  0
   18.7334   39.7777   -8.4275 H   0  0  0  0  0  0
   20.5072   40.8838   -9.3079 H   0  0  0  0  0  0
   22.8599   39.3495  -10.4403 H   0  0  0  0  0  0
   19.2864   39.1574   -6.1046 H   0  0  0  0  0  0
   20.6645   39.8959   -6.8970 H   0  0  0  0  0  0
   20.6175   38.1499   -6.6667 H   0  0  0  0  0  0
   18.8592   36.7755   -8.5190 H   0  0  0  0  0  0
   17.9266   37.5109   -7.2504 H   0  0  0  0  0  0
   16.6823   36.8899   -9.4267 H   0  0  0  0  0  0
   17.5180   38.2146  -10.1827 H   0  0  0  0  0  0
   15.4428   38.2700   -7.9539 H   0  0  0  0  0  0
   16.5432   39.5834   -8.0813 H   0  0  0  0  0  0
   14.4584   38.6679  -10.0401 H   0  0  0  0  0  0
   15.7718   39.6240  -10.6716 H   0  0  0  0  0  0
   13.5374   40.7606   -9.9120 H   0  0  0  0  0  0
   14.1482   40.6142   -8.2923 H   0  0  0  0  0  0
   14.5004   42.8293   -9.6235 H   0  0  0  0  0  0
   15.7144   41.9990  -10.5338 H   0  0  0  0  0  0
   16.9538   41.6185   -8.2318 H   0  0  0  0  0  0
   15.6789   42.5474   -7.5139 H   0  0  0  0  0  0
   18.4050   45.6543   -9.1632 H   0  0  0  0  0  0
   21.1450   43.7533  -11.8924 H   0  0  0  0  0  0
   17.9229   41.4886  -10.2000 H   0  0  0  0  0  0
   20.6862   39.4532  -11.9267 H   0  0  0  0  0  0
   19.8697   38.1937  -10.2446 H   0  0  0  0  0  0
   21.1394   38.0583   -9.0993 H   0  0  0  0  0  0
   23.3358   39.1282   -8.4627 H   0  0  0  0  0  0
   22.7135   42.2849   -9.5933 H   0  0  0  0  0  0
   22.6091   41.7689  -11.2698 H   0  0  0  0  0  0
   24.7599   40.7786  -11.1004 H   0  0  0  0  0  0
   25.3237   43.8582  -12.8282 H   0  0  0  0  0  0
   23.7306   42.9987  -12.5979 H   0  0  0  0  0  0
   23.4616   44.1320  -10.3970 H   0  0  0  0  0  0
   25.0656   44.9678  -10.6224 H   0  0  0  0  0  0
   26.9688   44.1758   -9.3115 H   0  0  0  0  0  0
   30.5184   42.4012  -11.0656 H   0  0  0  0  0  0
   29.0119   40.9692  -12.4029 H   0  0  0  0  0  0
   30.7378   45.1949  -10.9888 H   0  0  0  0  0  0
   30.8359   46.2461   -9.5825 H   0  0  0  0  0  0
   29.3201   46.0885  -10.4603 H   0  0  0  0  0  0
   28.6720   44.1501   -7.3210 H   0  0  0  0  0  0
   28.2365   45.5900   -8.2358 H   0  0  0  0  0  0
   29.7404   45.5409   -7.3547 H   0  0  0  0  0  0
   30.8600   42.7682   -8.1221 H   0  0  0  0  0  0
   31.6773   44.3193   -8.0926 H   0  0  0  0  0  0
   31.7174   43.3535   -9.5409 H   0  0  0  0  0  0
   21.4042   49.1697  -10.2624 H   0  0  0  0  0  0
   23.0968   47.6348  -11.9086 H   0  0  0  0  0  0
   24.8897   41.2409   -9.5371 H   0  0  0  0  0  0
  1  2  1  0  0  0
  1 47  1  0  0  0
  1 48  1  0  0  0
  1 49  1  0  0  0
  2 44  1  0  0  0
  2 21  1  0  0  0
  2  3  1  0  0  0
  3  4  1  0  0  0
  3 50  1  0  0  0
  3 51  1  0  0  0
  4  5  1  0  0  0
  4 52  1  0  0  0
  4 53  1  0  0  0
  5  6  1  0  0  0
  5 54  1  0  0  0
  5 55  1  0  0  0
  6  7  1  0  0  0
  6 56  1  0  0  0
  6 57  1  0  0  0
  7  8  1  0  0  0
  7 58  1  0  0  0
  7 59  1  0  0  0
  8  9  1  0  0  0
  8 60  1  0  0  0
  8 61  1  0  0  0
  9 10  1  0  0  0
  9 62  1  0  0  0
  9 63  1  0  0  0
 10 11  1  0  0  0
 11 16  1  0  0  0
 11 12  2  0  0  0
 12 13  1  0  0  0
 12 64  1  0  0  0
 13 14  2  0  0  0
 13 39  1  0  0  0
 14 15  1  0  0  0
 14 65  1  0  0  0
 15 16  2  0  0  0
 15 17  1  0  0  0
 16 66  1  0  0  0
 17 18  2  0  0  0
 17 19  1  0  0  0
 19 20  1  0  0  0
 19 67  1  0  0  0
 20 45  1  0  0  0
 20 21  1  0  0  0
 20 22  1  0  0  0
 21 68  1  0  0  0
 21 69  1  0  0  0
 22 46  1  0  0  0
 22 23  1  0  0  0
 22 24  1  0  0  0
 23 70  1  0  0  0
 24 25  1  0  0  0
 24 71  1  0  0  0
 24 72  1  0  0  0
 25 26  1  0  0  0
 25 73  1  0  0  0
 25 92  1  0  0  0
 26 28  1  0  0  0
 26 27  1  0  0  0
 26 29  1  0  0  0
 27 28  1  0  0  0
 27 74  1  0  0  0
 27 75  1  0  0  0
 28 76  1  0  0  0
 28 77  1  0  0  0
 29 34  1  0  0  0
 29 30  2  0  0  0
 30 31  1  0  0  0
 30 78  1  0  0  0
 31 32  2  0  0  0
 31 35  1  0  0  0
 32 33  1  0  0  0
 32 79  1  0  0  0
 33 34  2  0  0  0
 33 80  1  0  0  0
 35 36  1  0  0  0
 35 37  1  0  0  0
 35 38  1  0  0  0
 36 81  1  0  0  0
 36 82  1  0  0  0
 36 83  1  0  0  0
 37 84  1  0  0  0
 37 85  1  0  0  0
 37 86  1  0  0  0
 38 87  1  0  0  0
 38 88  1  0  0  0
 38 89  1  0  0  0
 39 43  1  0  0  0
 39 40  2  0  0  0
 40 41  1  0  0  0
 41 42  2  0  0  0
 41 90  1  0  0  0
 42 43  1  0  0  0
 42 91  1  0  0  0
M  CHG  1  25   1
M  END
> <s_m_source_file>
BACE_81.smi

> <i_m_source_file_index>
1

> <i_lp_mmshare_version>
42013

> <i_f3d_flags>
0

> <s_epik_input>
TzFbQ0gyXVtDSDJdW0NIMl1bQ0gyXVtDSDJdW0NIMl1bQ0gyXVtDQEBIXShbQ0gzXSlbQ0gyXVtDQEhdKFtOSF1DKD1PKWMoW2NIXTIpW2NIXWMoW2NIXWMxMiktYzNuW2NIXVtjSF1vMylbQ0BIXShbT0hdKVtDSDJdW05IXUM0KFtDSDJdW0NIMl00KWM1W2NIXWMoW2NIXVtjSF1uNSlDKFtDSDNdKShbQ0gzXSlbQ0gzXQ==

> <s_epik_cmdline>
J2VwaWtfcHl0aG9uJywgJy1waCcsICc3LjAnLCAnLXRuJywgJzgnLCAnLW1hJywgJzIwMCcsICctaW1hZScsICc8aW5maWxlLm1hZT4nLCAnLW9tYWUnLCAnPG91dGZpbGUubWFlPic=

> <r_lp_tautomer_probability>
1

> <r_epik_Ionization_Penalty>
  0.7256

> <r_epik_Ionization_Penalty_Charging>
  0.7242

> <r_epik_Ionization_Penalty_Neutral>
  0.0014

> <r_epik_State_Penalty>
  1.7267

> <r_epik_Charging_Adjusted_Penalty>
2.45089

> <i_epik_Tot_Q>
1

> <i_epik_Tot_abs_Q>
1

> <s_lp_Force_Field>
OPLS_2005

> <r_lp_Energy>
46.0364

> <b_lp_Chiralities_Consistent>
1

> <s_lp_Variant>
BACE_81.smi:1-3

> <chiral flag>
1

> <version>
0

> <s_i_glide_gridfile>
second_dock_grid_2

> <i_i_glide_lignum>
164

> <i_i_glide_rotatable_bonds>
8

> <r_i_docking_score>
-3.66152

> <r_i_glide_ligand_efficiency>
-0.0851517

> <r_i_glide_ligand_efficiency_sa>
-0.29832

> <r_i_glide_ligand_efficiency_ln>
-0.769034

> <r_glide_XP_GScore>
-5.38822

> <r_i_glide_gscore>
-5.38822

> <r_i_glide_evdw>
-39.6536

> <r_i_glide_ecoul>
-10.5993

> <r_i_glide_energy>
-50.253

> <r_i_glide_einternal>
8.27004

> <r_i_glide_emodel>
-70.0959

> <r_glide_XP_HBond>
-0.645927

> <i_i_glide_confnum>
1

> <i_i_glide_posenum>
7

> <r_i_glide_eff_state_penalty>
1.7267

> <i_glide_XP_PoseRank>
1

$$$$
BACE_82.smi:1
                    3D
 Structure written by MMmdl.
 91 93  0  0  1  0            999 V2000
   15.4411   38.3844   -7.9370 C   0  0  0  0  0  0
   16.6303   39.2919   -7.5871 C   0  0  0  0  0  0
   16.1757   40.7538   -7.4474 C   0  0  0  0  0  0
   17.7619   39.1594   -8.6017 C   0  0  0  0  0  0
   19.0643   38.8035   -8.1842 C   0  0  0  0  0  0
   20.1220   38.7126   -9.1171 C   0  0  0  0  0  0
   21.5417   38.3945   -8.6750 C   0  0  0  0  0  0
   22.4600   39.4293   -9.1902 N   0  3  0  0  0  0
   23.3309   40.1119   -8.2108 C   0  0  0  0  0  0
   24.0328   41.3526   -8.8176 C   0  0  1  0  0  0
   24.9195   40.9500   -9.8431 O   0  0  0  0  0  0
   23.0556   42.4459   -9.3420 C   0  0  2  0  0  0
   22.6211   42.2505  -10.8218 C   0  0  0  0  0  0
   21.3533   42.9905  -11.3026 C   0  0  2  0  0  0
   21.5782   44.4971  -11.5273 C   0  0  0  0  0  0
   20.1120   42.7178  -10.4321 C   0  0  0  0  0  0
   18.7805   42.9766  -11.1679 C   0  0  0  0  0  0
   17.5399   42.8022  -10.2752 C   0  0  0  0  0  0
   17.0173   44.0977   -9.6332 C   0  0  0  0  0  0
   18.0280   44.7576   -8.6897 C   0  0  0  0  0  0
   17.4324   45.9025   -7.8642 C   0  0  0  0  0  0
   18.4645   46.6240   -6.9809 C   0  0  0  0  0  0
   18.9796   45.7512   -5.9774 O   0  0  0  0  0  0
   20.1563   45.0534   -6.1757 C   0  0  0  0  0  0
   20.4590   44.0778   -5.2103 C   0  0  0  0  0  0
   21.6628   43.3530   -5.2480 C   0  0  0  0  0  0
   22.5700   43.5641   -6.2987 C   0  0  0  0  0  0
   22.2779   44.5112   -7.2989 C   0  0  0  0  0  0
   21.0818   45.2618   -7.2317 C   0  0  0  0  0  0
   23.2784   44.7830   -8.3806 C   0  0  0  0  0  0
   23.7267   45.9170   -8.5288 O   0  0  0  0  0  0
   23.6640   43.7685   -9.1758 N   0  0  0  0  0  0
   22.0054   42.4989   -4.1997 N   0  0  0  0  0  0
   22.4220   43.2070   -2.9991 C   0  0  0  0  0  0
   21.8034   40.7864   -4.1085 S   0  0  0  0  0  0
   20.6839   40.3468   -5.4798 C   0  0  0  0  0  0
   23.1297   40.2142   -4.3783 O   0  0  0  0  0  0
   21.1079   40.5502   -2.8401 O   0  0  0  0  0  0
   19.8601   38.9544  -10.4808 C   0  0  0  0  0  0
   18.5721   39.3240  -10.8970 C   0  0  0  0  0  0
   17.5228   39.4114   -9.9675 C   0  0  0  0  0  0
   24.6495   41.7825   -8.0293 H   0  0  0  0  0  0
   22.1606   42.3797   -8.7263 H   0  0  0  0  0  0
   21.1506   42.5452  -12.2741 H   0  0  0  0  0  0
   15.7633   37.3501   -8.0424 H   0  0  0  0  0  0
   14.9555   38.6812   -8.8661 H   0  0  0  0  0  0
   14.6888   38.4144   -7.1475 H   0  0  0  0  0  0
   17.0091   38.9706   -6.6154 H   0  0  0  0  0  0
   17.0190   41.4127   -7.2398 H   0  0  0  0  0  0
   15.4579   40.8651   -6.6317 H   0  0  0  0  0  0
   15.6962   41.1130   -8.3572 H   0  0  0  0  0  0
   19.2420   38.6034   -7.1392 H   0  0  0  0  0  0
   21.6009   38.3136   -7.5901 H   0  0  0  0  0  0
   21.8378   37.4273   -9.0832 H   0  0  0  0  0  0
   23.0750   39.0031   -9.8751 H   0  0  0  0  0  0
   22.7464   40.4284   -7.3506 H   0  0  0  0  0  0
   24.0642   39.3988   -7.8339 H   0  0  0  0  0  0
   25.2741   40.0907   -9.6415 H   0  0  0  0  0  0
   23.4531   42.5093  -11.4795 H   0  0  0  0  0  0
   22.4548   41.1946  -11.0212 H   0  0  0  0  0  0
   21.6869   45.0394  -10.5904 H   0  0  0  0  0  0
   20.7359   44.9545  -12.0400 H   0  0  0  0  0  0
   22.4684   44.6826  -12.1288 H   0  0  0  0  0  0
   20.1209   41.6813  -10.0977 H   0  0  0  0  0  0
   20.1740   43.3123   -9.5215 H   0  0  0  0  0  0
   18.7621   43.9660  -11.6205 H   0  0  0  0  0  0
   18.7135   42.2703  -11.9976 H   0  0  0  0  0  0
   16.7343   42.3754  -10.8744 H   0  0  0  0  0  0
   17.7478   42.0705   -9.4965 H   0  0  0  0  0  0
   16.7197   44.8027  -10.4089 H   0  0  0  0  0  0
   16.1112   43.8578   -9.0745 H   0  0  0  0  0  0
   18.4197   43.9982   -8.0141 H   0  0  0  0  0  0
   18.8687   45.1416   -9.2670 H   0  0  0  0  0  0
   16.9720   46.6293   -8.5344 H   0  0  0  0  0  0
   16.6312   45.5079   -7.2404 H   0  0  0  0  0  0
   19.2267   47.1241   -7.5748 H   0  0  0  0  0  0
   17.9549   47.4293   -6.4530 H   0  0  0  0  0  0
   19.7762   43.9142   -4.3895 H   0  0  0  0  0  0
   23.5074   43.0270   -6.3079 H   0  0  0  0  0  0
   20.9094   45.9997   -8.0005 H   0  0  0  0  0  0
   24.3849   43.9915   -9.8457 H   0  0  0  0  0  0
   22.8595   44.1797   -3.2252 H   0  0  0  0  0  0
   23.1718   42.6253   -2.4630 H   0  0  0  0  0  0
   21.5681   43.3502   -2.3352 H   0  0  0  0  0  0
   20.7768   39.2795   -5.6502 H   0  0  0  0  0  0
   20.9060   40.9196   -6.3747 H   0  0  0  0  0  0
   19.6677   40.5506   -5.1714 H   0  0  0  0  0  0
   20.6469   38.8849  -11.2188 H   0  0  0  0  0  0
   18.3843   39.5283  -11.9407 H   0  0  0  0  0  0
   16.5353   39.6904  -10.3066 H   0  0  0  0  0  0
   21.8977   40.1258   -9.6581 H   0  0  0  0  0  0
  1  2  1  0  0  0
  1 45  1  0  0  0
  1 46  1  0  0  0
  1 47  1  0  0  0
  2  3  1  0  0  0
  2  4  1  0  0  0
  2 48  1  0  0  0
  3 49  1  0  0  0
  3 50  1  0  0  0
  3 51  1  0  0  0
  4 41  1  0  0  0
  4  5  2  0  0  0
  5  6  1  0  0  0
  5 52  1  0  0  0
  6  7  1  0  0  0
  6 39  2  0  0  0
  7  8  1  0  0  0
  7 53  1  0  0  0
  7 54  1  0  0  0
  8  9  1  0  0  0
  8 55  1  0  0  0
  8 91  1  0  0  0
  9 10  1  0  0  0
  9 56  1  0  0  0
  9 57  1  0  0  0
 10 42  1  0  0  0
 10 11  1  0  0  0
 10 12  1  0  0  0
 11 58  1  0  0  0
 12 43  1  0  0  0
 12 32  1  0  0  0
 12 13  1  0  0  0
 13 14  1  0  0  0
 13 59  1  0  0  0
 13 60  1  0  0  0
 14 44  1  0  0  0
 14 15  1  0  0  0
 14 16  1  0  0  0
 15 61  1  0  0  0
 15 62  1  0  0  0
 15 63  1  0  0  0
 16 17  1  0  0  0
 16 64  1  0  0  0
 16 65  1  0  0  0
 17 18  1  0  0  0
 17 66  1  0  0  0
 17 67  1  0  0  0
 18 19  1  0  0  0
 18 68  1  0  0  0
 18 69  1  0  0  0
 19 20  1  0  0  0
 19 70  1  0  0  0
 19 71  1  0  0  0
 20 21  1  0  0  0
 20 72  1  0  0  0
 20 73  1  0  0  0
 21 22  1  0  0  0
 21 74  1  0  0  0
 21 75  1  0  0  0
 22 23  1  0  0  0
 22 76  1  0  0  0
 22 77  1  0  0  0
 23 24  1  0  0  0
 24 29  1  0  0  0
 24 25  2  0  0  0
 25 26  1  0  0  0
 25 78  1  0  0  0
 26 27  2  0  0  0
 26 33  1  0  0  0
 27 28  1  0  0  0
 27 79  1  0  0  0
 28 29  2  0  0  0
 28 30  1  0  0  0
 29 80  1  0  0  0
 30 31  2  0  0  0
 30 32  1  0  0  0
 32 81  1  0  0  0
 33 34  1  0  0  0
 33 35  1  0  0  0
 34 82  1  0  0  0
 34 83  1  0  0  0
 34 84  1  0  0  0
 35 36  1  0  0  0
 35 37  2  0  0  0
 35 38  2  0  0  0
 36 85  1  0  0  0
 36 86  1  0  0  0
 36 87  1  0  0  0
 39 40  1  0  0  0
 39 88  1  0  0  0
 40 41  2  0  0  0
 40 89  1  0  0  0
 41 90  1  0  0  0
M  CHG  1   8   1
M  END
> <s_m_source_file>
BACE_82.smi

> <i_m_source_file_index>
1

> <i_lp_mmshare_version>
42013

> <i_f3d_flags>
0

> <s_epik_input>
W0NIM11bQ0hdKFtDSDNdKWMxW2NIXWMoW2NIXVtjSF1bY0hdMSlbQ0gyXVtOSF1bQ0gyXVtDQEBIXShbT0hdKVtDQEBIXShbTkhdQyg9TyljKFtjSF0yKVtjSF1jKFtjSF1jMjMpTihbQ0gzXSlTKD1PKSg9TylbQ0gzXSlbQ0gyXVtDQEhdKFtDSDNdKVtDSDJdW0NIMl1bQ0gyXVtDSDJdW0NIMl1bQ0gyXVtDSDJdTzM=

> <s_epik_cmdline>
J2VwaWtfcHl0aG9uJywgJy1waCcsICc3LjAnLCAnLXRuJywgJzgnLCAnLW1hJywgJzIwMCcsICctaW1hZScsICc8aW5maWxlLm1hZT4nLCAnLW9tYWUnLCAnPG91dGZpbGUubWFlPic=

> <r_lp_tautomer_probability>
1

> <r_epik_Ionization_Penalty>
  0.0165

> <r_epik_Ionization_Penalty_Charging>
  0.0165

> <r_epik_Ionization_Penalty_Neutral>
  0.0000

> <r_epik_State_Penalty>
  0.0130

> <r_epik_Charging_Adjusted_Penalty>
0.0295552

> <i_epik_Tot_Q>
1

> <i_epik_Tot_abs_Q>
1

> <s_lp_Force_Field>
OPLS_2005

> <r_lp_Energy>
35.9635

> <b_lp_Chiralities_Consistent>
1

> <s_lp_Variant>
BACE_82.smi:1-1

> <chiral flag>
1

> <version>
0

> <s_i_glide_gridfile>
second_dock_grid_2

> <i_i_glide_lignum>
165

> <i_i_glide_rotatable_bonds>
9

> <r_i_docking_score>
-6.63049

> <r_i_glide_ligand_efficiency>
-0.161719

> <r_i_glide_ligand_efficiency_sa>
-0.557643

> <r_i_glide_ligand_efficiency_ln>
-1.40668

> <r_glide_XP_GScore>
-6.64349

> <r_i_glide_gscore>
-6.64349

> <r_i_glide_evdw>
-44.7583

> <r_i_glide_ecoul>
-11.312

> <r_i_glide_energy>
-56.0703

> <r_i_glide_einternal>
7.89428

> <r_i_glide_emodel>
-83.7639

> <r_glide_XP_HBond>
-1.12001

> <i_i_glide_confnum>
1

> <i_i_glide_posenum>
10

> <r_i_glide_eff_state_penalty>
0.013

> <i_glide_XP_PoseRank>
1

$$$$
BACE_82.smi:1
                    3D
 Structure written by MMmdl.
 90 92  0  0  1  0            999 V2000
   30.6175   45.8915  -10.4292 C   0  0  0  0  0  0
   30.3314   44.6724   -9.5405 C   0  0  0  0  0  0
   31.6271   44.0482   -9.0031 C   0  0  0  0  0  0
   29.4618   43.6499  -10.2606 C   0  0  0  0  0  0
   28.1433   43.4177   -9.8147 C   0  0  0  0  0  0
   27.3256   42.4696  -10.4623 C   0  0  0  0  0  0
   25.9343   42.1831   -9.9392 C   0  0  0  0  0  0
   24.8656   42.5482  -10.8693 N   0  0  0  0  0  0
   23.5152   42.4088  -10.3044 C   0  0  0  0  0  0
   23.1631   40.9422   -9.9419 C   0  0  1  0  0  0
   23.6474   40.7112   -8.6323 O   0  0  0  0  0  0
   21.6529   40.5593   -9.9437 C   0  0  2  0  0  0
   21.5234   39.0207   -9.7414 C   0  0  0  0  0  0
   20.1239   38.4036   -9.5045 C   0  0  2  0  0  0
   19.2396   38.3760  -10.7571 C   0  0  0  0  0  0
   19.4051   39.0173   -8.2933 C   0  0  0  0  0  0
   18.1736   38.2205   -7.8202 C   0  0  0  0  0  0
   17.4968   38.8874   -6.6159 C   0  0  0  0  0  0
   16.1471   39.5402   -6.9510 C   0  0  0  0  0  0
   16.2902   40.6720   -7.9722 C   0  0  0  0  0  0
   14.9633   41.3574   -8.3084 C   0  0  0  0  0  0
   15.0517   42.3590   -9.4720 C   0  0  0  0  0  0
   15.8812   43.4750   -9.1540 O   0  0  0  0  0  0
   17.2474   43.3847   -9.3194 C   0  0  0  0  0  0
   18.0308   44.2069   -8.4896 C   0  0  0  0  0  0
   19.4343   44.2289   -8.6012 C   0  0  0  0  0  0
   20.0612   43.3989   -9.5553 C   0  0  0  0  0  0
   19.3044   42.5428  -10.3840 C   0  0  0  0  0  0
   17.8949   42.5551  -10.2714 C   0  0  0  0  0  0
   19.9537   41.7233  -11.4717 C   0  0  0  0  0  0
   19.4738   41.7482  -12.6049 O   0  0  0  0  0  0
   21.0303   40.9535  -11.2140 N   0  0  0  0  0  0
   20.1846   45.0859   -7.7793 N   0  0  0  0  0  0
   21.1686   45.9031   -8.4816 C   0  0  0  0  0  0
   20.1475   45.1442   -6.0404 S   0  0  0  0  0  0
   20.1382   43.3750   -5.5700 C   0  0  0  0  0  0
   21.4195   45.7539   -5.6279 O   0  0  0  0  0  0
   18.8642   45.7565   -5.6582 O   0  0  0  0  0  0
   27.8281   41.7501  -11.5655 C   0  0  0  0  0  0
   29.1410   41.9783  -12.0189 C   0  0  0  0  0  0
   29.9549   42.9259  -11.3693 C   0  0  0  0  0  0
   23.6856   40.2824  -10.6360 H   0  0  0  0  0  0
   21.1693   41.0605   -9.1074 H   0  0  0  0  0  0
   20.3180   37.3598   -9.2538 H   0  0  0  0  0  0
   29.6909   46.3581  -10.7651 H   0  0  0  0  0  0
   31.1891   45.6170  -11.3154 H   0  0  0  0  0  0
   31.1900   46.6442   -9.8873 H   0  0  0  0  0  0
   29.7705   45.0311   -8.6749 H   0  0  0  0  0  0
   31.4158   43.1801   -8.3775 H   0  0  0  0  0  0
   32.1811   44.7626   -8.3950 H   0  0  0  0  0  0
   32.2826   43.7316   -9.8132 H   0  0  0  0  0  0
   27.7588   43.9579   -8.9616 H   0  0  0  0  0  0
   25.8982   41.1173   -9.7095 H   0  0  0  0  0  0
   25.7930   42.7142   -8.9972 H   0  0  0  0  0  0
   24.9250   41.9403  -11.6843 H   0  0  0  0  0  0
   23.3945   43.0552   -9.4352 H   0  0  0  0  0  0
   22.8172   42.7765  -11.0542 H   0  0  0  0  0  0
   23.8721   39.7926   -8.5655 H   0  0  0  0  0  0
   21.9985   38.5183  -10.5813 H   0  0  0  0  0  0
   22.1225   38.7292   -8.8795 H   0  0  0  0  0  0
   18.7297   39.3211  -10.9234 H   0  0  0  0  0  0
   18.4645   37.6141  -10.6700 H   0  0  0  0  0  0
   19.8287   38.1508  -11.6418 H   0  0  0  0  0  0
   20.1103   39.0882   -7.4642 H   0  0  0  0  0  0
   19.1093   40.0402   -8.5247 H   0  0  0  0  0  0
   17.4546   38.0896   -8.6308 H   0  0  0  0  0  0
   18.4600   37.2091   -7.5415 H   0  0  0  0  0  0
   17.3414   38.1501   -5.8345 H   0  0  0  0  0  0
   18.1807   39.6123   -6.1835 H   0  0  0  0  0  0
   15.4580   38.7789   -7.3198 H   0  0  0  0  0  0
   15.6964   39.9265   -6.0351 H   0  0  0  0  0  0
   16.9936   41.4031   -7.5711 H   0  0  0  0  0  0
   16.7234   40.2833   -8.8937 H   0  0  0  0  0  0
   14.2370   40.5887   -8.5770 H   0  0  0  0  0  0
   14.5747   41.8527   -7.4167 H   0  0  0  0  0  0
   15.3182   41.8650  -10.4037 H   0  0  0  0  0  0
   14.0532   42.7594   -9.6475 H   0  0  0  0  0  0
   17.5378   44.8381   -7.7654 H   0  0  0  0  0  0
   21.1327   43.4319   -9.6572 H   0  0  0  0  0  0
   17.3287   41.9320  -10.9458 H   0  0  0  0  0  0
   21.4126   40.4888  -12.0250 H   0  0  0  0  0  0
   21.0741   45.8697   -9.5698 H   0  0  0  0  0  0
   22.1798   45.5857   -8.2187 H   0  0  0  0  0  0
   21.0566   46.9465   -8.1828 H   0  0  0  0  0  0
   20.1152   43.2872   -4.4859 H   0  0  0  0  0  0
   21.0338   42.8907   -5.9541 H   0  0  0  0  0  0
   19.2593   42.8885   -5.9856 H   0  0  0  0  0  0
   27.2179   40.9985  -12.0401 H   0  0  0  0  0  0
   29.5230   41.4191  -12.8609 H   0  0  0  0  0  0
   30.9611   43.0933  -11.7251 H   0  0  0  0  0  0
  1  2  1  0  0  0
  1 45  1  0  0  0
  1 46  1  0  0  0
  1 47  1  0  0  0
  2  3  1  0  0  0
  2  4  1  0  0  0
  2 48  1  0  0  0
  3 49  1  0  0  0
  3 50  1  0  0  0
  3 51  1  0  0  0
  4 41  1  0  0  0
  4  5  2  0  0  0
  5  6  1  0  0  0
  5 52  1  0  0  0
  6  7  1  0  0  0
  6 39  2  0  0  0
  7  8  1  0  0  0
  7 53  1  0  0  0
  7 54  1  0  0  0
  8  9  1  0  0  0
  8 55  1  0  0  0
  9 10  1  0  0  0
  9 56  1  0  0  0
  9 57  1  0  0  0
 10 42  1  0  0  0
 10 11  1  0  0  0
 10 12  1  0  0  0
 11 58  1  0  0  0
 12 43  1  0  0  0
 12 32  1  0  0  0
 12 13  1  0  0  0
 13 14  1  0  0  0
 13 59  1  0  0  0
 13 60  1  0  0  0
 14 44  1  0  0  0
 14 15  1  0  0  0
 14 16  1  0  0  0
 15 61  1  0  0  0
 15 62  1  0  0  0
 15 63  1  0  0  0
 16 17  1  0  0  0
 16 64  1  0  0  0
 16 65  1  0  0  0
 17 18  1  0  0  0
 17 66  1  0  0  0
 17 67  1  0  0  0
 18 19  1  0  0  0
 18 68  1  0  0  0
 18 69  1  0  0  0
 19 20  1  0  0  0
 19 70  1  0  0  0
 19 71  1  0  0  0
 20 21  1  0  0  0
 20 72  1  0  0  0
 20 73  1  0  0  0
 21 22  1  0  0  0
 21 74  1  0  0  0
 21 75  1  0  0  0
 22 23  1  0  0  0
 22 76  1  0  0  0
 22 77  1  0  0  0
 23 24  1  0  0  0
 24 29  1  0  0  0
 24 25  2  0  0  0
 25 26  1  0  0  0
 25 78  1  0  0  0
 26 27  2  0  0  0
 26 33  1  0  0  0
 27 28  1  0  0  0
 27 79  1  0  0  0
 28 29  2  0  0  0
 28 30  1  0  0  0
 29 80  1  0  0  0
 30 31  2  0  0  0
 30 32  1  0  0  0
 32 81  1  0  0  0
 33 34  1  0  0  0
 33 35  1  0  0  0
 34 82  1  0  0  0
 34 83  1  0  0  0
 34 84  1  0  0  0
 35 36  1  0  0  0
 35 37  2  0  0  0
 35 38  2  0  0  0
 36 85  1  0  0  0
 36 86  1  0  0  0
 36 87  1  0  0  0
 39 40  1  0  0  0
 39 88  1  0  0  0
 40 41  2  0  0  0
 40 89  1  0  0  0
 41 90  1  0  0  0
M  END
> <s_m_source_file>
BACE_82.smi

> <i_m_source_file_index>
1

> <i_lp_mmshare_version>
42013

> <i_f3d_flags>
0

> <s_epik_input>
W0NIM11bQ0hdKFtDSDNdKWMxW2NIXWMoW2NIXVtjSF1bY0hdMSlbQ0gyXVtOSF1bQ0gyXVtDQEBIXShbT0hdKVtDQEBIXShbTkhdQyg9TyljKFtjSF0yKVtjSF1jKFtjSF1jMjMpTihbQ0gzXSlTKD1PKSg9TylbQ0gzXSlbQ0gyXVtDQEhdKFtDSDNdKVtDSDJdW0NIMl1bQ0gyXVtDSDJdW0NIMl1bQ0gyXVtDSDJdTzM=

> <s_epik_cmdline>
J2VwaWtfcHl0aG9uJywgJy1waCcsICc3LjAnLCAnLXRuJywgJzgnLCAnLW1hJywgJzIwMCcsICctaW1hZScsICc8aW5maWxlLm1hZT4nLCAnLW9tYWUnLCAnPG91dGZpbGUubWFlPic=

> <r_lp_tautomer_probability>
1

> <r_epik_Ionization_Penalty>
  2.1294

> <r_epik_Ionization_Penalty_Charging>
  0.0000

> <r_epik_Ionization_Penalty_Neutral>
  2.1294

> <r_epik_State_Penalty>
  2.2676

> <r_epik_Charging_Adjusted_Penalty>
2.26762

> <i_epik_Tot_Q>
0

> <i_epik_Tot_abs_Q>
0

> <s_lp_Force_Field>
OPLS_2005

> <r_lp_Energy>
40.8149

> <b_lp_Chiralities_Consistent>
1

> <s_lp_Variant>
BACE_82.smi:1-2

> <chiral flag>
1

> <version>
0

> <s_i_glide_gridfile>
second_dock_grid_2

> <i_i_glide_lignum>
166

> <i_i_glide_rotatable_bonds>
9

> <r_i_docking_score>
-2.26369

> <r_i_glide_ligand_efficiency>
-0.0552119

> <r_i_glide_ligand_efficiency_sa>
-0.190382

> <r_i_glide_ligand_efficiency_ln>
-0.480249

> <r_glide_XP_GScore>
-4.53129

> <r_i_glide_gscore>
-4.53129

> <r_i_glide_evdw>
-43.7576

> <r_i_glide_ecoul>
-12.127

> <r_i_glide_energy>
-55.8846

> <r_i_glide_einternal>
6.90259

> <r_i_glide_emodel>
-68.0063

> <r_glide_XP_HBond>
-0.7

> <i_i_glide_confnum>
1

> <i_i_glide_posenum>
6

> <r_i_glide_eff_state_penalty>
2.2676

> <i_glide_XP_PoseRank>
1

$$$$
BACE_83.smi:1
                    3D
 Structure written by MMmdl.
 95 98  0  0  1  0            999 V2000
   24.1153   43.7542   -5.9610 C   0  0  0  0  0  0
   23.1058   44.3943   -6.9398 C   0  0  2  0  0  0
   21.9362   45.0406   -6.1453 C   0  0  0  0  0  0
   22.0705   46.5361   -5.7476 C   0  0  0  0  0  0
   23.2413   46.9236   -4.8112 C   0  0  0  0  0  0
   24.4721   47.4477   -5.5813 C   0  0  0  0  0  0
   25.8417   47.1166   -4.9295 C   0  0  0  0  0  0
   27.0469   47.0775   -5.9039 C   0  0  0  0  0  0
   26.7369   46.2763   -7.1783 C   0  0  0  0  0  0
   27.8565   45.7534   -7.8837 O   0  0  0  0  0  0
   27.5475   44.9403   -8.9621 C   0  0  0  0  0  0
   28.5769   44.1649   -9.5354 C   0  0  0  0  0  0
   28.3237   43.3123  -10.6344 C   0  0  0  0  0  0
   27.0051   43.1973  -11.1373 C   0  0  0  0  0  0
   25.9616   43.9584  -10.5738 C   0  0  0  0  0  0
   26.2465   44.8411   -9.5160 C   0  0  0  0  0  0
   24.5610   43.8647  -11.1094 C   0  0  0  0  0  0
   24.3369   44.1096  -12.2921 O   0  0  0  0  0  0
   23.5674   43.5547  -10.2518 N   0  0  0  0  0  0
   23.6881   42.8462   -8.9678 C   0  0  1  0  0  0
   22.6071   43.3350   -7.9612 C   0  0  0  0  0  0
   23.6659   41.3087   -9.1880 C   0  0  2  0  0  0
   24.9544   40.9500   -9.6399 O   0  0  0  0  0  0
   22.6519   40.7616  -10.2140 C   0  0  0  0  0  0
   21.2721   40.7564   -9.7167 N   0  0  0  0  0  0
   20.2505   40.2412  -10.6425 C   0  0  0  0  0  0
   20.6218   39.7940  -12.0510 C   0  0  0  0  0  0
   19.9000   41.0959  -11.8476 C   0  0  0  0  0  0
   19.1524   39.5000   -9.9276 C   0  0  0  0  0  0
   17.9991   40.1557   -9.4429 C   0  0  0  0  0  0
   16.9731   39.3961   -8.8264 C   0  0  0  0  0  0
   17.1717   38.0009   -8.7373 C   0  0  0  0  0  0
   18.3573   37.4402   -9.2399 C   0  0  0  0  0  0
   19.3377   38.1682   -9.8123 N   0  0  0  0  0  0
   15.6510   40.0266   -8.3526 C   0  0  0  0  0  0
   14.6141   39.8298   -9.4751 C   0  0  0  0  0  0
   15.1318   39.3612   -7.0560 C   0  0  0  0  0  0
   15.7932   41.5370   -8.0590 C   0  0  0  0  0  0
   29.4449   42.4854  -11.2036 C   0  0  0  0  0  0
   30.0811   41.7523  -10.4428 O   0  0  0  0  0  0
   29.7293   42.6053  -12.5243 N   0  0  0  0  0  0
   29.1188   43.6041  -13.4082 C   0  0  0  0  0  0
   30.7549   41.7757  -13.1626 C   0  0  0  0  0  0
   23.6006   45.1748   -7.5154 H   0  0  0  0  0  0
   24.6549   43.0604   -8.5230 H   0  0  0  0  0  0
   23.5346   40.7980   -8.2326 H   0  0  0  0  0  0
   24.4910   44.4713   -5.2387 H   0  0  0  0  0  0
   24.9958   43.3494   -6.4559 H   0  0  0  0  0  0
   23.6583   42.9425   -5.3948 H   0  0  0  0  0  0
   21.7214   44.4447   -5.2564 H   0  0  0  0  0  0
   21.0297   44.9690   -6.7464 H   0  0  0  0  0  0
   21.1434   46.8074   -5.2408 H   0  0  0  0  0  0
   22.0856   47.1573   -6.6447 H   0  0  0  0  0  0
   23.4918   46.0852   -4.1643 H   0  0  0  0  0  0
   22.9153   47.7110   -4.1322 H   0  0  0  0  0  0
   24.4151   47.0262   -6.5788 H   0  0  0  0  0  0
   24.3883   48.5233   -5.7348 H   0  0  0  0  0  0
   26.0425   47.8212   -4.1217 H   0  0  0  0  0  0
   25.7821   46.1428   -4.4482 H   0  0  0  0  0  0
   27.3540   48.0865   -6.1760 H   0  0  0  0  0  0
   27.8948   46.6261   -5.3899 H   0  0  0  0  0  0
   26.0968   45.4366   -6.9077 H   0  0  0  0  0  0
   26.1842   46.9367   -7.8485 H   0  0  0  0  0  0
   29.5744   44.2295   -9.1231 H   0  0  0  0  0  0
   26.7837   42.5103  -11.9426 H   0  0  0  0  0  0
   25.4208   45.4225   -9.1333 H   0  0  0  0  0  0
   22.6385   43.5795  -10.6415 H   0  0  0  0  0  0
   21.7534   43.7207   -8.5199 H   0  0  0  0  0  0
   22.2104   42.4877   -7.3994 H   0  0  0  0  0  0
   24.9886   40.0009   -9.7208 H   0  0  0  0  0  0
   22.9308   39.7355  -10.4404 H   0  0  0  0  0  0
   22.7337   41.3130  -11.1505 H   0  0  0  0  0  0
   21.2001   40.2547   -8.8356 H   0  0  0  0  0  0
   21.6437   39.8589  -12.4207 H   0  0  0  0  0  0
   20.0597   38.9461  -12.4223 H   0  0  0  0  0  0
   18.8586   41.1381  -12.1631 H   0  0  0  0  0  0
   20.4749   42.0032  -12.0194 H   0  0  0  0  0  0
   17.9159   41.2231   -9.5738 H   0  0  0  0  0  0
   16.4338   37.3472   -8.2973 H   0  0  0  0  0  0
   18.4998   36.3723   -9.1994 H   0  0  0  0  0  0
   14.9613   40.2586  -10.4146 H   0  0  0  0  0  0
   13.6606   40.2978   -9.2384 H   0  0  0  0  0  0
   14.4185   38.7703   -9.6488 H   0  0  0  0  0  0
   15.8739   39.4031   -6.2573 H   0  0  0  0  0  0
   14.8590   38.3150   -7.1918 H   0  0  0  0  0  0
   14.2342   39.8550   -6.6825 H   0  0  0  0  0  0
   16.5727   41.7245   -7.3179 H   0  0  0  0  0  0
   14.8660   41.9462   -7.6551 H   0  0  0  0  0  0
   16.0256   42.1135   -8.9536 H   0  0  0  0  0  0
   29.1997   44.6055  -12.9795 H   0  0  0  0  0  0
   28.0645   43.3851  -13.5839 H   0  0  0  0  0  0
   29.5960   43.6337  -14.3898 H   0  0  0  0  0  0
   31.3404   42.3462  -13.8832 H   0  0  0  0  0  0
   30.2805   40.9506  -13.6939 H   0  0  0  0  0  0
   31.4673   41.3508  -12.4547 H   0  0  0  0  0  0
  1  2  1  0  0  0
  1 47  1  0  0  0
  1 48  1  0  0  0
  1 49  1  0  0  0
  2 44  1  0  0  0
  2 21  1  0  0  0
  2  3  1  0  0  0
  3  4  1  0  0  0
  3 50  1  0  0  0
  3 51  1  0  0  0
  4  5  1  0  0  0
  4 52  1  0  0  0
  4 53  1  0  0  0
  5  6  1  0  0  0
  5 54  1  0  0  0
  5 55  1  0  0  0
  6  7  1  0  0  0
  6 56  1  0  0  0
  6 57  1  0  0  0
  7  8  1  0  0  0
  7 58  1  0  0  0
  7 59  1  0  0  0
  8  9  1  0  0  0
  8 60  1  0  0  0
  8 61  1  0  0  0
  9 10  1  0  0  0
  9 62  1  0  0  0
  9 63  1  0  0  0
 10 11  1  0  0  0
 11 16  1  0  0  0
 11 12  2  0  0  0
 12 13  1  0  0  0
 12 64  1  0  0  0
 13 14  2  0  0  0
 13 39  1  0  0  0
 14 15  1  0  0  0
 14 65  1  0  0  0
 15 16  2  0  0  0
 15 17  1  0  0  0
 16 66  1  0  0  0
 17 18  2  0  0  0
 17 19  1  0  0  0
 19 20  1  0  0  0
 19 67  1  0  0  0
 20 45  1  0  0  0
 20 21  1  0  0  0
 20 22  1  0  0  0
 21 68  1  0  0  0
 21 69  1  0  0  0
 22 46  1  0  0  0
 22 23  1  0  0  0
 22 24  1  0  0  0
 23 70  1  0  0  0
 24 25  1  0  0  0
 24 71  1  0  0  0
 24 72  1  0  0  0
 25 26  1  0  0  0
 25 73  1  0  0  0
 26 28  1  0  0  0
 26 27  1  0  0  0
 26 29  1  0  0  0
 27 28  1  0  0  0
 27 74  1  0  0  0
 27 75  1  0  0  0
 28 76  1  0  0  0
 28 77  1  0  0  0
 29 34  1  0  0  0
 29 30  2  0  0  0
 30 31  1  0  0  0
 30 78  1  0  0  0
 31 32  2  0  0  0
 31 35  1  0  0  0
 32 33  1  0  0  0
 32 79  1  0  0  0
 33 34  2  0  0  0
 33 80  1  0  0  0
 35 36  1  0  0  0
 35 37  1  0  0  0
 35 38  1  0  0  0
 36 81  1  0  0  0
 36 82  1  0  0  0
 36 83  1  0  0  0
 37 84  1  0  0  0
 37 85  1  0  0  0
 37 86  1  0  0  0
 38 87  1  0  0  0
 38 88  1  0  0  0
 38 89  1  0  0  0
 39 40  2  0  0  0
 39 41  1  0  0  0
 41 42  1  0  0  0
 41 43  1  0  0  0
 42 90  1  0  0  0
 42 91  1  0  0  0
 42 92  1  0  0  0
 43 93  1  0  0  0
 43 94  1  0  0  0
 43 95  1  0  0  0
M  END
> <s_m_source_file>
BACE_83.smi

> <i_m_source_file_index>
1

> <i_lp_mmshare_version>
42013

> <i_f3d_flags>
0

> <s_epik_input>
TzFbQ0gyXVtDSDJdW0NIMl1bQ0gyXVtDSDJdW0NIMl1bQ0gyXVtDQEBIXShbQ0gzXSlbQ0gyXVtDQEhdKFtOSF1DKD1PKWMoW2NIXTIpW2NIXWMoW2NIXWMxMilDKD1PKU4oW0NIM10pW0NIM10pW0NASF0oW09IXSlbQ0gyXVtOSF1DMyhbQ0gyXVtDSDJdMyljNFtjSF1jKFtjSF1bY0hdbjQpQyhbQ0gzXSkoW0NIM10pW0NIM10=

> <s_epik_cmdline>
J2VwaWtfcHl0aG9uJywgJy1waCcsICc3LjAnLCAnLXRuJywgJzgnLCAnLW1hJywgJzIwMCcsICctaW1hZScsICc8aW5maWxlLm1hZT4nLCAnLW9tYWUnLCAnPG91dGZpbGUubWFlPic=

> <r_lp_tautomer_probability>
1

> <r_epik_Ionization_Penalty>
  0.2176

> <r_epik_Ionization_Penalty_Charging>
  0.0000

> <r_epik_Ionization_Penalty_Neutral>
  0.2176

> <r_epik_State_Penalty>
  0.0835

> <r_epik_Charging_Adjusted_Penalty>
0.0835319

> <i_epik_Tot_Q>
0

> <i_epik_Tot_abs_Q>
0

> <s_lp_Force_Field>
OPLS_2005

> <r_lp_Energy>
61.4103

> <b_lp_Chiralities_Consistent>
1

> <s_lp_Variant>
BACE_83.smi:1-1

> <chiral flag>
1

> <version>
0

> <s_i_glide_gridfile>
second_dock_grid_2

> <i_i_glide_lignum>
167

> <i_i_glide_rotatable_bonds>
9

> <r_i_docking_score>
-3.22427

> <r_i_glide_ligand_efficiency>
-0.074983

> <r_i_glide_ligand_efficiency_sa>
-0.262695

> <r_i_glide_ligand_efficiency_ln>
-0.677197

> <r_glide_XP_GScore>
-3.30777

> <r_i_glide_gscore>
-3.30777

> <r_i_glide_evdw>
-44.9584

> <r_i_glide_ecoul>
-8.40942

> <r_i_glide_energy>
-53.3678

> <r_i_glide_einternal>
8.00475

> <r_i_glide_emodel>
-68.2519

> <r_glide_XP_HBond>
-1.65181

> <i_i_glide_confnum>
1

> <i_i_glide_posenum>
11

> <r_i_glide_eff_state_penalty>
0.0835

> <i_glide_XP_PoseRank>
1

$$$$
BACE_83.smi:1
                    3D
 Structure written by MMmdl.
 96 99  0  0  1  0            999 V2000
   21.8848   46.5963  -12.4044 C   0  0  0  0  0  0
   21.4575   45.4721  -11.4419 C   0  0  2  0  0  0
   20.3406   45.9388  -10.4907 C   0  0  0  0  0  0
   19.0161   46.3275  -11.1731 C   0  0  0  0  0  0
   17.8847   46.5351  -10.1558 C   0  0  0  0  0  0
   18.0048   47.8431   -9.3470 C   0  0  0  0  0  0
   17.3116   47.7628   -7.9755 C   0  0  0  0  0  0
   18.2510   47.4242   -6.7990 C   0  0  0  0  0  0
   19.0292   46.1088   -6.9512 C   0  0  0  0  0  0
   19.7602   45.8511   -5.7633 O   0  0  0  0  0  0
   20.6096   44.7726   -5.8278 C   0  0  0  0  0  0
   20.4268   43.7409   -4.8908 C   0  0  0  0  0  0
   21.2662   42.6112   -4.8833 C   0  0  0  0  0  0
   22.3166   42.5233   -5.8149 C   0  0  0  0  0  0
   22.5407   43.5635   -6.7428 C   0  0  0  0  0  0
   21.6776   44.6861   -6.7535 C   0  0  0  0  0  0
   23.7758   43.5156   -7.5952 C   0  0  0  0  0  0
   24.8649   43.3508   -7.0584 O   0  0  0  0  0  0
   23.6963   43.6312   -8.9292 N   0  0  0  0  0  0
   22.5447   43.6701   -9.8297 C   0  0  1  0  0  0
   22.6949   44.9780  -10.6546 C   0  0  0  0  0  0
   22.5450   42.3364  -10.6433 C   0  0  2  0  0  0
   22.4600   42.5499  -12.0378 O   0  0  0  0  0  0
   21.4203   41.3519  -10.2475 C   0  0  0  0  0  0
   21.5726   40.8750   -8.8672 N   0  0  0  0  0  0
   21.0777   39.5216   -8.5975 C   0  0  0  0  0  0
   22.0704   38.5766   -7.9514 C   0  0  0  0  0  0
   21.6761   38.3702   -9.3849 C   0  0  0  0  0  0
   19.6312   39.4546   -8.1755 C   0  0  0  0  0  0
   18.5421   39.7835   -9.0156 C   0  0  0  0  0  0
   17.2081   39.6505   -8.5418 C   0  0  0  0  0  0
   17.0232   39.1423   -7.2378 C   0  0  0  0  0  0
   18.1357   38.8320   -6.4402 C   0  0  0  0  0  0
   19.3791   39.0267   -6.9186 N   0  3  0  0  0  0
   15.9754   40.0583   -9.3665 C   0  0  0  0  0  0
   15.0028   38.8658   -9.4920 C   0  0  0  0  0  0
   15.2501   41.2172   -8.6512 C   0  0  0  0  0  0
   16.3457   40.5315  -10.7885 C   0  0  0  0  0  0
   20.9892   41.4877   -3.9290 C   0  0  0  0  0  0
   20.8622   40.3447   -4.3722 O   0  0  0  0  0  0
   20.7827   41.8192   -2.6339 N   0  0  0  0  0  0
   21.4146   42.9499   -1.9511 C   0  0  0  0  0  0
   19.8886   41.0420   -1.7851 C   0  0  0  0  0  0
   21.0668   44.6520  -12.0399 H   0  0  0  0  0  0
   21.6285   43.7148   -9.2479 H   0  0  0  0  0  0
   23.4992   41.8243  -10.5104 H   0  0  0  0  0  0
   22.6592   46.2508  -13.0902 H   0  0  0  0  0  0
   21.0552   46.9507  -13.0148 H   0  0  0  0  0  0
   22.2861   47.4522  -11.8598 H   0  0  0  0  0  0
   20.7105   46.7669   -9.8872 H   0  0  0  0  0  0
   20.1132   45.1314   -9.7972 H   0  0  0  0  0  0
   19.1346   47.2249  -11.7799 H   0  0  0  0  0  0
   18.7263   45.5303  -11.8571 H   0  0  0  0  0  0
   16.9247   46.5311  -10.6730 H   0  0  0  0  0  0
   17.8523   45.6728   -9.4901 H   0  0  0  0  0  0
   19.0439   48.1354   -9.2092 H   0  0  0  0  0  0
   17.5591   48.6460   -9.9341 H   0  0  0  0  0  0
   16.4861   47.0509   -8.0287 H   0  0  0  0  0  0
   16.8615   48.7327   -7.7648 H   0  0  0  0  0  0
   18.9638   48.2376   -6.6606 H   0  0  0  0  0  0
   17.6602   47.3864   -5.8848 H   0  0  0  0  0  0
   18.3466   45.2791   -7.1397 H   0  0  0  0  0  0
   19.7038   46.1848   -7.7998 H   0  0  0  0  0  0
   19.6202   43.8038   -4.1786 H   0  0  0  0  0  0
   22.9686   41.6623   -5.7996 H   0  0  0  0  0  0
   21.8649   45.4988   -7.4386 H   0  0  0  0  0  0
   24.5891   43.6095   -9.3982 H   0  0  0  0  0  0
   23.5345   44.8561  -11.3415 H   0  0  0  0  0  0
   22.9949   45.7860   -9.9846 H   0  0  0  0  0  0
   22.9707   41.8719  -12.4739 H   0  0  0  0  0  0
   21.4534   40.5099  -10.9397 H   0  0  0  0  0  0
   20.4439   41.8179  -10.3816 H   0  0  0  0  0  0
   22.5409   40.9454   -8.5720 H   0  0  0  0  0  0
   23.0764   38.9500   -7.7708 H   0  0  0  0  0  0
   21.7163   37.8367   -7.2363 H   0  0  0  0  0  0
   21.0321   37.5223   -9.6076 H   0  0  0  0  0  0
   22.4584   38.5696  -10.1158 H   0  0  0  0  0  0
   18.7560   40.1399  -10.0088 H   0  0  0  0  0  0
   16.0356   39.0080   -6.8136 H   0  0  0  0  0  0
   18.0616   38.4622   -5.4283 H   0  0  0  0  0  0
   15.4638   38.0285  -10.0159 H   0  0  0  0  0  0
   14.1021   39.1483  -10.0389 H   0  0  0  0  0  0
   14.6678   38.4992   -8.5200 H   0  0  0  0  0  0
   15.9049   42.0809   -8.5298 H   0  0  0  0  0  0
   14.9035   40.9307   -7.6569 H   0  0  0  0  0  0
   14.3711   41.5411   -9.2104 H   0  0  0  0  0  0
   16.9746   41.4212  -10.7659 H   0  0  0  0  0  0
   15.4576   40.7833  -11.3669 H   0  0  0  0  0  0
   16.8774   39.7554  -11.3364 H   0  0  0  0  0  0
   20.6602   43.5888   -1.4824 H   0  0  0  0  0  0
   22.0377   43.5766   -2.5944 H   0  0  0  0  0  0
   22.0601   42.5545   -1.1651 H   0  0  0  0  0  0
   20.0602   41.2225   -0.7256 H   0  0  0  0  0  0
   19.9797   39.9726   -1.9571 H   0  0  0  0  0  0
   18.8626   41.3502   -2.0000 H   0  0  0  0  0  0
   20.1700   38.8307   -6.3033 H   0  0  0  0  0  0
  1  2  1  0  0  0
  1 47  1  0  0  0
  1 48  1  0  0  0
  1 49  1  0  0  0
  2 44  1  0  0  0
  2 21  1  0  0  0
  2  3  1  0  0  0
  3  4  1  0  0  0
  3 50  1  0  0  0
  3 51  1  0  0  0
  4  5  1  0  0  0
  4 52  1  0  0  0
  4 53  1  0  0  0
  5  6  1  0  0  0
  5 54  1  0  0  0
  5 55  1  0  0  0
  6  7  1  0  0  0
  6 56  1  0  0  0
  6 57  1  0  0  0
  7  8  1  0  0  0
  7 58  1  0  0  0
  7 59  1  0  0  0
  8  9  1  0  0  0
  8 60  1  0  0  0
  8 61  1  0  0  0
  9 10  1  0  0  0
  9 62  1  0  0  0
  9 63  1  0  0  0
 10 11  1  0  0  0
 11 16  1  0  0  0
 11 12  2  0  0  0
 12 13  1  0  0  0
 12 64  1  0  0  0
 13 14  2  0  0  0
 13 39  1  0  0  0
 14 15  1  0  0  0
 14 65  1  0  0  0
 15 16  2  0  0  0
 15 17  1  0  0  0
 16 66  1  0  0  0
 17 18  2  0  0  0
 17 19  1  0  0  0
 19 20  1  0  0  0
 19 67  1  0  0  0
 20 45  1  0  0  0
 20 21  1  0  0  0
 20 22  1  0  0  0
 21 68  1  0  0  0
 21 69  1  0  0  0
 22 46  1  0  0  0
 22 23  1  0  0  0
 22 24  1  0  0  0
 23 70  1  0  0  0
 24 25  1  0  0  0
 24 71  1  0  0  0
 24 72  1  0  0  0
 25 26  1  0  0  0
 25 73  1  0  0  0
 26 28  1  0  0  0
 26 27  1  0  0  0
 26 29  1  0  0  0
 27 28  1  0  0  0
 27 74  1  0  0  0
 27 75  1  0  0  0
 28 76  1  0  0  0
 28 77  1  0  0  0
 29 34  1  0  0  0
 29 30  2  0  0  0
 30 31  1  0  0  0
 30 78  1  0  0  0
 31 32  2  0  0  0
 31 35  1  0  0  0
 32 33  1  0  0  0
 32 79  1  0  0  0
 33 34  2  0  0  0
 33 80  1  0  0  0
 34 96  1  0  0  0
 35 36  1  0  0  0
 35 37  1  0  0  0
 35 38  1  0  0  0
 36 81  1  0  0  0
 36 82  1  0  0  0
 36 83  1  0  0  0
 37 84  1  0  0  0
 37 85  1  0  0  0
 37 86  1  0  0  0
 38 87  1  0  0  0
 38 88  1  0  0  0
 38 89  1  0  0  0
 39 40  2  0  0  0
 39 41  1  0  0  0
 41 42  1  0  0  0
 41 43  1  0  0  0
 42 90  1  0  0  0
 42 91  1  0  0  0
 42 92  1  0  0  0
 43 93  1  0  0  0
 43 94  1  0  0  0
 43 95  1  0  0  0
M  CHG  1  34   1
M  END
> <s_m_source_file>
BACE_83.smi

> <i_m_source_file_index>
1

> <i_lp_mmshare_version>
42013

> <i_f3d_flags>
0

> <s_epik_input>
TzFbQ0gyXVtDSDJdW0NIMl1bQ0gyXVtDSDJdW0NIMl1bQ0gyXVtDQEBIXShbQ0gzXSlbQ0gyXVtDQEhdKFtOSF1DKD1PKWMoW2NIXTIpW2NIXWMoW2NIXWMxMilDKD1PKU4oW0NIM10pW0NIM10pW0NASF0oW09IXSlbQ0gyXVtOSF1DMyhbQ0gyXVtDSDJdMyljNFtjSF1jKFtjSF1bY0hdbjQpQyhbQ0gzXSkoW0NIM10pW0NIM10=

> <s_epik_cmdline>
J2VwaWtfcHl0aG9uJywgJy1waCcsICc3LjAnLCAnLXRuJywgJzgnLCAnLW1hJywgJzIwMCcsICctaW1hZScsICc8aW5maWxlLm1hZT4nLCAnLW9tYWUnLCAnPG91dGZpbGUubWFlPic=

> <r_epik_Ionization_Penalty>
  2.3769

> <r_epik_Ionization_Penalty_Charging>
  2.3769

> <r_epik_Ionization_Penalty_Neutral>
  0.0000

> <r_epik_State_Penalty>
  1.5172

> <r_epik_Charging_Adjusted_Penalty>
3.89406

> <i_epik_Tot_Q>
1

> <i_epik_Tot_abs_Q>
1

> <s_lp_Force_Field>
OPLS_2005

> <r_lp_Energy>
73.3534

> <b_lp_Chiralities_Consistent>
1

> <s_lp_Variant>
BACE_83.smi:1-2

> <chiral flag>
1

> <version>
0

> <s_i_glide_gridfile>
second_dock_grid_2

> <i_i_glide_lignum>
168

> <i_i_glide_rotatable_bonds>
9

> <r_i_docking_score>
-3.33601

> <r_i_glide_ligand_efficiency>
-0.0775817

> <r_i_glide_ligand_efficiency_sa>
-0.2718

> <r_i_glide_ligand_efficiency_ln>
-0.700666

> <r_glide_XP_GScore>
-4.85321

> <r_i_glide_gscore>
-4.85321

> <r_i_glide_evdw>
-44.9243

> <r_i_glide_ecoul>
-8.4807

> <r_i_glide_energy>
-53.405

> <r_i_glide_einternal>
6.15253

> <r_i_glide_emodel>
-67.2413

> <r_glide_XP_HBond>
-1.73831

> <i_i_glide_confnum>
1

> <i_i_glide_posenum>
3

> <r_i_glide_eff_state_penalty>
1.5172

> <i_glide_XP_PoseRank>
1

$$$$
BACE_83.smi:1
                    3D
 Structure written by MMmdl.
 96 99  0  0  1  0            999 V2000
   19.8347   39.0887   -6.7199 C   0  0  0  0  0  0
   19.2245   38.9358   -8.1262 C   0  0  2  0  0  0
   18.1623   37.8023   -8.1386 C   0  0  0  0  0  0
   17.0292   38.0133   -9.1665 C   0  0  0  0  0  0
   15.9691   39.0346   -8.7006 C   0  0  0  0  0  0
   15.1855   39.6870   -9.8565 C   0  0  0  0  0  0
   14.4421   40.9895   -9.4792 C   0  0  0  0  0  0
   15.2340   42.2976   -9.7199 C   0  0  0  0  0  0
   16.2365   42.6847   -8.6098 C   0  0  0  0  0  0
   16.9788   43.8565   -8.9409 O   0  0  0  0  0  0
   18.1411   43.7511   -9.6839 C   0  0  0  0  0  0
   18.8947   44.9330   -9.8430 C   0  0  0  0  0  0
   20.0896   44.9464  -10.5983 C   0  0  0  0  0  0
   20.5131   43.7612  -11.2375 C   0  0  0  0  0  0
   19.7864   42.5621  -11.0793 C   0  0  0  0  0  0
   18.6066   42.5609  -10.3021 C   0  0  0  0  0  0
   20.2013   41.3317  -11.8356 C   0  0  0  0  0  0
   20.1669   41.3476  -13.0651 O   0  0  0  0  0  0
   20.5719   40.2206  -11.1658 N   0  0  0  0  0  0
   20.9749   40.0323   -9.7642 C   0  0  1  0  0  0
   20.3220   38.7274   -9.2056 C   0  0  0  0  0  0
   22.5314   40.0729   -9.6968 C   0  0  2  0  0  0
   22.9823   39.6016   -8.4382 O   0  0  0  0  0  0
   23.1361   41.4719   -9.9396 C   0  0  0  0  0  0
   24.5580   41.3812  -10.3443 N   0  3  0  0  0  0
   25.1660   42.6212  -10.8509 C   0  0  0  0  0  0
   24.4627   43.3339  -11.9812 C   0  0  0  0  0  0
   24.4354   43.9164  -10.5883 C   0  0  0  0  0  0
   26.6875   42.6545  -10.8350 C   0  0  0  0  0  0
   27.3982   43.5768  -10.0331 C   0  0  0  0  0  0
   28.8177   43.5754  -10.0519 C   0  0  0  0  0  0
   29.4448   42.6261  -10.8962 C   0  0  0  0  0  0
   28.6508   41.7491  -11.6610 C   0  0  0  0  0  0
   27.3027   41.7576  -11.6376 N   0  0  0  0  0  0
   29.6716   44.5476   -9.2064 C   0  0  0  0  0  0
   30.0486   45.7845  -10.0540 C   0  0  0  0  0  0
   28.8694   45.0046   -7.9662 C   0  0  0  0  0  0
   30.9905   43.9146   -8.6981 C   0  0  0  0  0  0
   20.8617   46.2227  -10.8050 C   0  0  0  0  0  0
   21.2436   46.4966  -11.9445 O   0  0  0  0  0  0
   21.1025   47.0255   -9.7365 N   0  0  0  0  0  0
   20.5722   46.6830   -8.4129 C   0  0  0  0  0  0
   21.7873   48.3224   -9.8027 C   0  0  0  0  0  0
   18.7120   39.8718   -8.3411 H   0  0  0  0  0  0
   20.6171   40.8774   -9.1778 H   0  0  0  0  0  0
   22.9293   39.4040  -10.4618 H   0  0  0  0  0  0
   19.0635   39.2846   -5.9740 H   0  0  0  0  0  0
   20.5323   39.9239   -6.6756 H   0  0  0  0  0  0
   20.3688   38.1888   -6.4127 H   0  0  0  0  0  0
   17.7070   37.6934   -7.1532 H   0  0  0  0  0  0
   18.6554   36.8480   -8.3292 H   0  0  0  0  0  0
   17.4638   38.3161  -10.1192 H   0  0  0  0  0  0
   16.5321   37.0620   -9.3601 H   0  0  0  0  0  0
   16.4493   39.8031   -8.1055 H   0  0  0  0  0  0
   15.2733   38.5505   -8.0140 H   0  0  0  0  0  0
   15.8423   39.8845  -10.7041 H   0  0  0  0  0  0
   14.4597   38.9581  -10.2195 H   0  0  0  0  0  0
   14.0610   40.9435   -8.4582 H   0  0  0  0  0  0
   13.5552   41.0410  -10.1121 H   0  0  0  0  0  0
   15.7274   42.2503  -10.6903 H   0  0  0  0  0  0
   14.5174   43.1151   -9.8083 H   0  0  0  0  0  0
   15.6786   42.9067   -7.6996 H   0  0  0  0  0  0
   16.9130   41.8808   -8.3364 H   0  0  0  0  0  0
   18.5344   45.8438   -9.3863 H   0  0  0  0  0  0
   21.4025   43.7704  -11.8525 H   0  0  0  0  0  0
   18.0498   41.6395  -10.2306 H   0  0  0  0  0  0
   20.7502   39.4158  -11.7493 H   0  0  0  0  0  0
   21.0749   38.0521   -8.7990 H   0  0  0  0  0  0
   19.9005   38.1666  -10.0413 H   0  0  0  0  0  0
   23.7682   39.0941   -8.5722 H   0  0  0  0  0  0
   23.0403   42.0914   -9.0480 H   0  0  0  0  0  0
   22.5909   41.9712  -10.7413 H   0  0  0  0  0  0
   24.6255   40.6865  -11.0743 H   0  0  0  0  0  0
   25.0821   43.8342  -12.7255 H   0  0  0  0  0  0
   23.5419   42.8916  -12.3615 H   0  0  0  0  0  0
   23.4963   43.8635  -10.0374 H   0  0  0  0  0  0
   25.0366   44.8062  -10.4014 H   0  0  0  0  0  0
   26.8335   44.2648   -9.4234 H   0  0  0  0  0  0
   30.5200   42.5589  -10.9686 H   0  0  0  0  0  0
   29.1132   41.0204  -12.3104 H   0  0  0  0  0  0
   30.6067   45.4989  -10.9467 H   0  0  0  0  0  0
   30.6731   46.4798   -9.4914 H   0  0  0  0  0  0
   29.1741   46.3461  -10.3832 H   0  0  0  0  0  0
   28.5747   44.1548   -7.3489 H   0  0  0  0  0  0
   27.9600   45.5430   -8.2336 H   0  0  0  0  0  0
   29.4553   45.6743   -7.3352 H   0  0  0  0  0  0
   30.8086   43.0511   -8.0566 H   0  0  0  0  0  0
   31.5697   44.6246   -8.1061 H   0  0  0  0  0  0
   31.6344   43.5969   -9.5194 H   0  0  0  0  0  0
   21.0937   47.2145   -7.6157 H   0  0  0  0  0  0
   20.6810   45.6193   -8.1944 H   0  0  0  0  0  0
   19.5138   46.9393   -8.3483 H   0  0  0  0  0  0
   21.4504   48.9939   -9.0117 H   0  0  0  0  0  0
   21.5978   48.8463  -10.7404 H   0  0  0  0  0  0
   22.8640   48.1947   -9.6865 H   0  0  0  0  0  0
   25.0964   41.0621   -9.5516 H   0  0  0  0  0  0
  1  2  1  0  0  0
  1 47  1  0  0  0
  1 48  1  0  0  0
  1 49  1  0  0  0
  2 44  1  0  0  0
  2 21  1  0  0  0
  2  3  1  0  0  0
  3  4  1  0  0  0
  3 50  1  0  0  0
  3 51  1  0  0  0
  4  5  1  0  0  0
  4 52  1  0  0  0
  4 53  1  0  0  0
  5  6  1  0  0  0
  5 54  1  0  0  0
  5 55  1  0  0  0
  6  7  1  0  0  0
  6 56  1  0  0  0
  6 57  1  0  0  0
  7  8  1  0  0  0
  7 58  1  0  0  0
  7 59  1  0  0  0
  8  9  1  0  0  0
  8 60  1  0  0  0
  8 61  1  0  0  0
  9 10  1  0  0  0
  9 62  1  0  0  0
  9 63  1  0  0  0
 10 11  1  0  0  0
 11 16  1  0  0  0
 11 12  2  0  0  0
 12 13  1  0  0  0
 12 64  1  0  0  0
 13 14  2  0  0  0
 13 39  1  0  0  0
 14 15  1  0  0  0
 14 65  1  0  0  0
 15 16  2  0  0  0
 15 17  1  0  0  0
 16 66  1  0  0  0
 17 18  2  0  0  0
 17 19  1  0  0  0
 19 20  1  0  0  0
 19 67  1  0  0  0
 20 45  1  0  0  0
 20 21  1  0  0  0
 20 22  1  0  0  0
 21 68  1  0  0  0
 21 69  1  0  0  0
 22 46  1  0  0  0
 22 23  1  0  0  0
 22 24  1  0  0  0
 23 70  1  0  0  0
 24 25  1  0  0  0
 24 71  1  0  0  0
 24 72  1  0  0  0
 25 26  1  0  0  0
 25 73  1  0  0  0
 25 96  1  0  0  0
 26 28  1  0  0  0
 26 27  1  0  0  0
 26 29  1  0  0  0
 27 28  1  0  0  0
 27 74  1  0  0  0
 27 75  1  0  0  0
 28 76  1  0  0  0
 28 77  1  0  0  0
 29 34  1  0  0  0
 29 30  2  0  0  0
 30 31  1  0  0  0
 30 78  1  0  0  0
 31 32  2  0  0  0
 31 35  1  0  0  0
 32 33  1  0  0  0
 32 79  1  0  0  0
 33 34  2  0  0  0
 33 80  1  0  0  0
 35 36  1  0  0  0
 35 37  1  0  0  0
 35 38  1  0  0  0
 36 81  1  0  0  0
 36 82  1  0  0  0
 36 83  1  0  0  0
 37 84  1  0  0  0
 37 85  1  0  0  0
 37 86  1  0  0  0
 38 87  1  0  0  0
 38 88  1  0  0  0
 38 89  1  0  0  0
 39 40  2  0  0  0
 39 41  1  0  0  0
 41 42  1  0  0  0
 41 43  1  0  0  0
 42 90  1  0  0  0
 42 91  1  0  0  0
 42 92  1  0  0  0
 43 93  1  0  0  0
 43 94  1  0  0  0
 43 95  1  0  0  0
M  CHG  1  25   1
M  END
> <s_m_source_file>
BACE_83.smi

> <i_m_source_file_index>
1

> <i_lp_mmshare_version>
42013

> <i_f3d_flags>
0

> <s_epik_input>
TzFbQ0gyXVtDSDJdW0NIMl1bQ0gyXVtDSDJdW0NIMl1bQ0gyXVtDQEBIXShbQ0gzXSlbQ0gyXVtDQEhdKFtOSF1DKD1PKWMoW2NIXTIpW2NIXWMoW2NIXWMxMilDKD1PKU4oW0NIM10pW0NIM10pW0NASF0oW09IXSlbQ0gyXVtOSF1DMyhbQ0gyXVtDSDJdMyljNFtjSF1jKFtjSF1bY0hdbjQpQyhbQ0gzXSkoW0NIM10pW0NIM10=

> <s_epik_cmdline>
J2VwaWtfcHl0aG9uJywgJy1waCcsICc3LjAnLCAnLXRuJywgJzgnLCAnLW1hJywgJzIwMCcsICctaW1hZScsICc8aW5maWxlLm1hZT4nLCAnLW9tYWUnLCAnPG91dGZpbGUubWFlPic=

> <r_lp_tautomer_probability>
1

> <r_epik_Ionization_Penalty>
  0.7256

> <r_epik_Ionization_Penalty_Charging>
  0.7242

> <r_epik_Ionization_Penalty_Neutral>
  0.0014

> <r_epik_State_Penalty>
  1.7267

> <r_epik_Charging_Adjusted_Penalty>
2.45089

> <i_epik_Tot_Q>
1

> <i_epik_Tot_abs_Q>
1

> <s_lp_Force_Field>
OPLS_2005

> <r_lp_Energy>
57.6177

> <b_lp_Chiralities_Consistent>
1

> <s_lp_Variant>
BACE_83.smi:1-3

> <chiral flag>
1

> <version>
0

> <s_i_glide_gridfile>
second_dock_grid_2

> <i_i_glide_lignum>
169

> <i_i_glide_rotatable_bonds>
9

> <r_i_docking_score>
-3.99321

> <r_i_glide_ligand_efficiency>
-0.0928653

> <r_i_glide_ligand_efficiency_sa>
-0.325344

> <r_i_glide_ligand_efficiency_ln>
-0.838698

> <r_glide_XP_GScore>
-5.71991

> <r_i_glide_gscore>
-5.71991

> <r_i_glide_evdw>
-37.5459

> <r_i_glide_ecoul>
-11.9994

> <r_i_glide_energy>
-49.5453

> <r_i_glide_einternal>
11.875

> <r_i_glide_emodel>
-69.5053

> <r_glide_XP_HBond>
-0.950513

> <i_i_glide_confnum>
1

> <i_i_glide_posenum>
9

> <r_i_glide_eff_state_penalty>
1.7267

> <i_glide_XP_PoseRank>
1

$$$$
BACE_84.smi:1
                    3D
 Structure written by MMmdl.
 87 89  0  0  1  0            999 V2000
   17.7830   36.9393   -9.7059 C   0  0  0  0  0  0
   18.1654   38.0389   -8.7264 C   0  0  2  0  0  0
   17.2111   39.2572   -8.8482 C   0  0  0  0  0  0
   15.7198   38.8947   -8.7020 C   0  0  0  0  0  0
   14.7803   40.1003   -8.5449 C   0  0  0  0  0  0
   14.7865   41.0812   -9.7342 C   0  0  0  0  0  0
   15.4113   42.4444   -9.3832 C   0  0  0  0  0  0
   15.5876   43.3884  -10.5912 C   0  0  0  0  0  0
   16.7411   42.9759  -11.5178 C   0  0  0  0  0  0
   17.9300   43.0108  -10.7463 O   0  0  0  0  0  0
   18.9935   42.2297  -11.1324 C   0  0  0  0  0  0
   19.9707   41.9435  -10.1686 C   0  0  0  0  0  0
   21.0166   41.0626  -10.5086 C   0  0  0  0  0  0
   21.0798   40.5784  -11.8292 C   0  0  0  0  0  0
   20.0679   40.9500  -12.7284 C   0  0  0  0  0  0
   19.0330   41.7520  -12.3979 N   0  0  0  0  0  0
   22.0274   40.6210   -9.4965 C   0  0  0  0  0  0
   23.2122   40.9141   -9.6435 O   0  0  0  0  0  0
   21.6119   39.8661   -8.4631 N   0  0  0  0  0  0
   20.2480   39.5069   -8.0388 C   0  0  1  0  0  0
   19.6564   38.4011   -8.9496 C   0  0  0  0  0  0
   20.2742   39.1232   -6.5356 C   0  0  2  0  0  0
   18.9717   38.9500   -6.0289 O   0  0  0  0  0  0
   20.9892   40.1410   -5.6245 C   0  0  0  0  0  0
   20.4601   41.5071   -5.8512 N   0  3  0  0  0  0
   21.1590   42.6624   -5.2334 C   0  0  0  0  0  0
   21.0339   42.5836   -3.7002 C   0  0  0  0  0  0
   22.6440   42.6839   -5.6616 C   0  0  0  0  0  0
   20.4636   43.9124   -5.7513 C   0  0  0  0  0  0
   19.2612   44.0384   -6.5143 C   0  0  0  0  0  0
   19.0898   45.3885   -6.6468 C   0  0  0  0  0  0
   18.0245   46.2312   -7.2753 C   0  0  0  0  0  0
   18.4234   47.0118   -8.5556 C   0  0  0  0  0  0
   19.4497   48.1152   -8.2312 C   0  0  0  0  0  0
   17.1611   47.6760   -9.1366 C   0  0  0  0  0  0
   19.0160   46.0671   -9.6175 C   0  0  0  0  0  0
   20.0951   46.0466   -6.0222 O   0  0  0  0  0  0
   20.9661   45.1040   -5.4726 N   0  0  0  0  0  0
   18.0315   37.5853   -7.7471 H   0  0  0  0  0  0
   19.6273   40.3934   -8.1372 H   0  0  0  0  0  0
   20.7740   38.1574   -6.4396 H   0  0  0  0  0  0
   17.8412   37.3498  -10.7114 H   0  0  0  0  0  0
   16.7767   36.5573   -9.5368 H   0  0  0  0  0  0
   18.4601   36.0903   -9.6399 H   0  0  0  0  0  0
   17.4468   39.9878   -8.0755 H   0  0  0  0  0  0
   17.3766   39.7592   -9.8025 H   0  0  0  0  0  0
   15.3877   38.3111   -9.5616 H   0  0  0  0  0  0
   15.5944   38.2497   -7.8293 H   0  0  0  0  0  0
   13.7703   39.7010   -8.4375 H   0  0  0  0  0  0
   14.9875   40.6200   -7.6074 H   0  0  0  0  0  0
   15.2942   40.6270  -10.5857 H   0  0  0  0  0  0
   13.7584   41.2449  -10.0613 H   0  0  0  0  0  0
   14.7757   42.9332   -8.6425 H   0  0  0  0  0  0
   16.3715   42.2941   -8.8877 H   0  0  0  0  0  0
   14.6555   43.4429  -11.1565 H   0  0  0  0  0  0
   15.7822   44.3973  -10.2242 H   0  0  0  0  0  0
   16.5435   41.9842  -11.9245 H   0  0  0  0  0  0
   16.8301   43.6698  -12.3544 H   0  0  0  0  0  0
   19.8908   42.3664   -9.1784 H   0  0  0  0  0  0
   21.8807   39.9217  -12.1436 H   0  0  0  0  0  0
   20.0744   40.5714  -13.7403 H   0  0  0  0  0  0
   22.3596   39.4991   -7.8934 H   0  0  0  0  0  0
   20.2620   37.5018   -8.8407 H   0  0  0  0  0  0
   19.7700   38.6977   -9.9924 H   0  0  0  0  0  0
   18.4443   39.7309   -6.1370 H   0  0  0  0  0  0
   20.8684   39.8574   -4.5780 H   0  0  0  0  0  0
   22.0576   40.0959   -5.8334 H   0  0  0  0  0  0
   20.4592   41.6694   -6.8460 H   0  0  0  0  0  0
   21.5022   43.4451   -3.2244 H   0  0  0  0  0  0
   21.5256   41.6996   -3.2954 H   0  0  0  0  0  0
   19.9902   42.5623   -3.3828 H   0  0  0  0  0  0
   23.1474   43.5819   -5.3018 H   0  0  0  0  0  0
   22.7550   42.6604   -6.7477 H   0  0  0  0  0  0
   23.2058   41.8477   -5.2431 H   0  0  0  0  0  0
   18.5975   43.2702   -6.8894 H   0  0  0  0  0  0
   17.1764   45.5819   -7.5027 H   0  0  0  0  0  0
   17.6593   46.9384   -6.5301 H   0  0  0  0  0  0
   19.6577   48.7284   -9.1081 H   0  0  0  0  0  0
   20.4029   47.7002   -7.9037 H   0  0  0  0  0  0
   19.0893   48.7782   -7.4437 H   0  0  0  0  0  0
   16.7257   48.3786   -8.4264 H   0  0  0  0  0  0
   16.3969   46.9382   -9.3846 H   0  0  0  0  0  0
   17.3864   48.2307  -10.0477 H   0  0  0  0  0  0
   19.2661   46.6060  -10.5316 H   0  0  0  0  0  0
   18.2994   45.2920   -9.8835 H   0  0  0  0  0  0
   19.9261   45.5757   -9.2712 H   0  0  0  0  0  0
   19.4966   41.5193   -5.5261 H   0  0  0  0  0  0
  1  2  1  0  0  0
  1 42  1  0  0  0
  1 43  1  0  0  0
  1 44  1  0  0  0
  2 39  1  0  0  0
  2 21  1  0  0  0
  2  3  1  0  0  0
  3  4  1  0  0  0
  3 45  1  0  0  0
  3 46  1  0  0  0
  4  5  1  0  0  0
  4 47  1  0  0  0
  4 48  1  0  0  0
  5  6  1  0  0  0
  5 49  1  0  0  0
  5 50  1  0  0  0
  6  7  1  0  0  0
  6 51  1  0  0  0
  6 52  1  0  0  0
  7  8  1  0  0  0
  7 53  1  0  0  0
  7 54  1  0  0  0
  8  9  1  0  0  0
  8 55  1  0  0  0
  8 56  1  0  0  0
  9 10  1  0  0  0
  9 57  1  0  0  0
  9 58  1  0  0  0
 10 11  1  0  0  0
 11 16  1  0  0  0
 11 12  2  0  0  0
 12 13  1  0  0  0
 12 59  1  0  0  0
 13 14  2  0  0  0
 13 17  1  0  0  0
 14 15  1  0  0  0
 14 60  1  0  0  0
 15 16  2  0  0  0
 15 61  1  0  0  0
 17 18  2  0  0  0
 17 19  1  0  0  0
 19 20  1  0  0  0
 19 62  1  0  0  0
 20 40  1  0  0  0
 20 21  1  0  0  0
 20 22  1  0  0  0
 21 63  1  0  0  0
 21 64  1  0  0  0
 22 41  1  0  0  0
 22 23  1  0  0  0
 22 24  1  0  0  0
 23 65  1  0  0  0
 24 25  1  0  0  0
 24 66  1  0  0  0
 24 67  1  0  0  0
 25 26  1  0  0  0
 25 68  1  0  0  0
 25 87  1  0  0  0
 26 27  1  0  0  0
 26 28  1  0  0  0
 26 29  1  0  0  0
 27 69  1  0  0  0
 27 70  1  0  0  0
 27 71  1  0  0  0
 28 72  1  0  0  0
 28 73  1  0  0  0
 28 74  1  0  0  0
 29 38  2  0  0  0
 29 30  1  0  0  0
 30 31  2  0  0  0
 30 75  1  0  0  0
 31 32  1  0  0  0
 31 37  1  0  0  0
 32 33  1  0  0  0
 32 76  1  0  0  0
 32 77  1  0  0  0
 33 34  1  0  0  0
 33 35  1  0  0  0
 33 36  1  0  0  0
 34 78  1  0  0  0
 34 79  1  0  0  0
 34 80  1  0  0  0
 35 81  1  0  0  0
 35 82  1  0  0  0
 35 83  1  0  0  0
 36 84  1  0  0  0
 36 85  1  0  0  0
 36 86  1  0  0  0
 37 38  1  0  0  0
M  CHG  1  25   1
M  END
> <s_m_source_file>
BACE_84.smi

> <i_m_source_file_index>
1

> <i_lp_mmshare_version>
42013

> <i_f3d_flags>
0

> <s_epik_input>
TzFbQ0gyXVtDSDJdW0NIMl1bQ0gyXVtDSDJdW0NIMl1bQ0gyXVtDQEBIXShbQ0gzXSlbQ0gyXVtDQEhdKFtOSF1DKD1PKWMoW2NIXWMxMilbY0hdW2NIXW4yKVtDQEhdKFtPSF0pW0NIMl1bTkhdQyhbQ0gzXSkoW0NIM10pYzNbY0hdYyhvbjMpW0NIMl1DKFtDSDNdKShbQ0gzXSlbQ0gzXQ==

> <s_epik_cmdline>
J2VwaWtfcHl0aG9uJywgJy1waCcsICc3LjAnLCAnLXRuJywgJzgnLCAnLW1hJywgJzIwMCcsICctaW1hZScsICc8aW5maWxlLm1hZT4nLCAnLW9tYWUnLCAnPG91dGZpbGUubWFlPic=

> <r_lp_tautomer_probability>
1

> <r_epik_Ionization_Penalty>
  0.2155

> <r_epik_Ionization_Penalty_Charging>
  0.2155

> <r_epik_Ionization_Penalty_Neutral>
  0.0000

> <r_epik_State_Penalty>
  0.2057

> <r_epik_Charging_Adjusted_Penalty>
0.421183

> <i_epik_Tot_Q>
1

> <i_epik_Tot_abs_Q>
1

> <s_lp_Force_Field>
OPLS_2005

> <r_lp_Energy>
33.8734

> <b_lp_Chiralities_Consistent>
1

> <s_lp_Variant>
BACE_84.smi:1-1

> <chiral flag>
1

> <version>
0

> <s_i_glide_gridfile>
second_dock_grid_2

> <i_i_glide_lignum>
170

> <i_i_glide_rotatable_bonds>
8

> <r_i_docking_score>
-4.92036

> <r_i_glide_ligand_efficiency>
-0.129483

> <r_i_glide_ligand_efficiency_sa>
-0.435319

> <r_i_glide_ligand_efficiency_ln>
-1.06097

> <r_glide_XP_GScore>
-5.12606

> <r_i_glide_gscore>
-5.12606

> <r_i_glide_evdw>
-39.001

> <r_i_glide_ecoul>
-8.97551

> <r_i_glide_energy>
-47.9765

> <r_i_glide_einternal>
4.12317

> <r_i_glide_emodel>
-67.5736

> <r_glide_XP_HBond>
-0.464804

> <i_i_glide_confnum>
1

> <i_i_glide_posenum>
1

> <r_i_glide_eff_state_penalty>
0.2057

> <i_glide_XP_PoseRank>
1

$$$$
BACE_84.smi:1
                    3D
 Structure written by MMmdl.
 86 88  0  0  1  0            999 V2000
   21.7885   38.7175   -8.6145 C   0  0  0  0  0  0
   22.2144   40.0718   -8.0245 C   0  0  2  0  0  0
   20.9988   40.8666   -7.4910 C   0  0  0  0  0  0
   21.3663   42.0778   -6.6119 C   0  0  0  0  0  0
   20.1763   43.0167   -6.3495 C   0  0  0  0  0  0
   20.0029   44.0833   -7.4476 C   0  0  0  0  0  0
   18.7418   44.9513   -7.2748 C   0  0  0  0  0  0
   17.4303   44.2707   -7.7168 C   0  0  0  0  0  0
   17.0596   44.5022   -9.1979 C   0  0  0  0  0  0
   18.0661   44.0546  -10.1044 O   0  0  0  0  0  0
   18.2548   42.7021  -10.3012 C   0  0  0  0  0  0
   19.4234   42.2865  -10.9682 C   0  0  0  0  0  0
   19.6942   40.9064  -11.0802 C   0  0  0  0  0  0
   18.7241   39.9988  -10.6048 C   0  0  0  0  0  0
   17.5676   40.5094   -9.9851 C   0  0  0  0  0  0
   17.3372   41.8285   -9.8199 N   0  0  0  0  0  0
   20.9522   40.3930  -11.7203 C   0  0  0  0  0  0
   20.8711   39.5865  -12.6442 O   0  0  0  0  0  0
   22.1532   40.7689  -11.2335 N   0  0  0  0  0  0
   22.5086   41.6737  -10.1322 C   0  0  1  0  0  0
   23.1546   40.8759   -8.9645 C   0  0  0  0  0  0
   23.4499   42.7919  -10.6571 C   0  0  2  0  0  0
   23.2064   42.9556  -12.0424 O   0  0  0  0  0  0
   24.9491   42.4571  -10.5148 C   0  0  0  0  0  0
   25.7583   43.6609  -10.3042 N   0  0  0  0  0  0
   26.6086   44.0922  -11.4283 C   0  0  0  0  0  0
   25.8528   43.7788  -12.7331 C   0  0  0  0  0  0
   26.8416   45.6197  -11.3731 C   0  0  0  0  0  0
   27.9310   43.3404  -11.4374 C   0  0  0  0  0  0
   29.1520   43.6902  -12.0830 C   0  0  0  0  0  0
   30.0096   42.6841  -11.7425 C   0  0  0  0  0  0
   31.4478   42.4236  -12.0663 C   0  0  0  0  0  0
   31.9052   42.8354  -13.4898 C   0  0  0  0  0  0
   31.3205   41.8800  -14.5489 C   0  0  0  0  0  0
   33.4429   42.7588  -13.5529 C   0  0  0  0  0  0
   31.4665   44.2785  -13.8130 C   0  0  0  0  0  0
   29.3756   41.7763  -10.9587 O   0  0  0  0  0  0
   28.0561   42.1995  -10.7711 N   0  0  0  0  0  0
   22.8201   39.8180   -7.1537 H   0  0  0  0  0  0
   21.6335   42.1864   -9.7499 H   0  0  0  0  0  0
   23.2279   43.7270  -10.1407 H   0  0  0  0  0  0
   21.0788   38.8288   -9.4296 H   0  0  0  0  0  0
   21.3081   38.0991   -7.8559 H   0  0  0  0  0  0
   22.6466   38.1605   -8.9914 H   0  0  0  0  0  0
   20.3591   41.1771   -8.3142 H   0  0  0  0  0  0
   20.3751   40.1998   -6.8945 H   0  0  0  0  0  0
   21.7481   41.7062   -5.6603 H   0  0  0  0  0  0
   22.1787   42.6550   -7.0525 H   0  0  0  0  0  0
   19.2658   42.4300   -6.2266 H   0  0  0  0  0  0
   20.3334   43.5278   -5.3991 H   0  0  0  0  0  0
   20.8767   44.7355   -7.4289 H   0  0  0  0  0  0
   20.0107   43.6183   -8.4303 H   0  0  0  0  0  0
   18.6612   45.2413   -6.2265 H   0  0  0  0  0  0
   18.8640   45.8845   -7.8259 H   0  0  0  0  0  0
   17.4540   43.2071   -7.4826 H   0  0  0  0  0  0
   16.6184   44.6782   -7.1138 H   0  0  0  0  0  0
   16.0925   44.0552   -9.4323 H   0  0  0  0  0  0
   16.9308   45.5716   -9.3667 H   0  0  0  0  0  0
   20.1160   43.0224  -11.3439 H   0  0  0  0  0  0
   18.8682   38.9318  -10.6936 H   0  0  0  0  0  0
   16.8133   39.8395   -9.5993 H   0  0  0  0  0  0
   22.9470   40.3573  -11.7024 H   0  0  0  0  0  0
   23.7076   41.5675   -8.3301 H   0  0  0  0  0  0
   23.9246   40.2135   -9.3627 H   0  0  0  0  0  0
   23.4847   42.1719  -12.4911 H   0  0  0  0  0  0
   25.0873   41.7852   -9.6697 H   0  0  0  0  0  0
   25.2905   41.9210  -11.3998 H   0  0  0  0  0  0
   26.3042   43.5860   -9.4522 H   0  0  0  0  0  0
   26.4373   44.0632  -13.6091 H   0  0  0  0  0  0
   24.9043   44.3151  -12.7835 H   0  0  0  0  0  0
   25.6298   42.7144  -12.8223 H   0  0  0  0  0  0
   27.3572   45.9726  -12.2669 H   0  0  0  0  0  0
   27.4511   45.9158  -10.5192 H   0  0  0  0  0  0
   25.8982   46.1629  -11.3102 H   0  0  0  0  0  0
   29.3723   44.5507  -12.6965 H   0  0  0  0  0  0
   32.0575   42.9511  -11.3316 H   0  0  0  0  0  0
   31.6595   41.3655  -11.9069 H   0  0  0  0  0  0
   31.6955   42.1177  -15.5450 H   0  0  0  0  0  0
   30.2331   41.9414  -14.5938 H   0  0  0  0  0  0
   31.5843   40.8430  -14.3384 H   0  0  0  0  0  0
   33.7993   41.7518  -13.3334 H   0  0  0  0  0  0
   33.9058   43.4351  -12.8333 H   0  0  0  0  0  0
   33.8160   43.0295  -14.5413 H   0  0  0  0  0  0
   31.8450   44.5984  -14.7844 H   0  0  0  0  0  0
   31.8394   44.9822  -13.0680 H   0  0  0  0  0  0
   30.3810   44.3762  -13.8443 H   0  0  0  0  0  0
  1  2  1  0  0  0
  1 42  1  0  0  0
  1 43  1  0  0  0
  1 44  1  0  0  0
  2 39  1  0  0  0
  2 21  1  0  0  0
  2  3  1  0  0  0
  3  4  1  0  0  0
  3 45  1  0  0  0
  3 46  1  0  0  0
  4  5  1  0  0  0
  4 47  1  0  0  0
  4 48  1  0  0  0
  5  6  1  0  0  0
  5 49  1  0  0  0
  5 50  1  0  0  0
  6  7  1  0  0  0
  6 51  1  0  0  0
  6 52  1  0  0  0
  7  8  1  0  0  0
  7 53  1  0  0  0
  7 54  1  0  0  0
  8  9  1  0  0  0
  8 55  1  0  0  0
  8 56  1  0  0  0
  9 10  1  0  0  0
  9 57  1  0  0  0
  9 58  1  0  0  0
 10 11  1  0  0  0
 11 16  1  0  0  0
 11 12  2  0  0  0
 12 13  1  0  0  0
 12 59  1  0  0  0
 13 14  2  0  0  0
 13 17  1  0  0  0
 14 15  1  0  0  0
 14 60  1  0  0  0
 15 16  2  0  0  0
 15 61  1  0  0  0
 17 18  2  0  0  0
 17 19  1  0  0  0
 19 20  1  0  0  0
 19 62  1  0  0  0
 20 40  1  0  0  0
 20 21  1  0  0  0
 20 22  1  0  0  0
 21 63  1  0  0  0
 21 64  1  0  0  0
 22 41  1  0  0  0
 22 23  1  0  0  0
 22 24  1  0  0  0
 23 65  1  0  0  0
 24 25  1  0  0  0
 24 66  1  0  0  0
 24 67  1  0  0  0
 25 26  1  0  0  0
 25 68  1  0  0  0
 26 27  1  0  0  0
 26 28  1  0  0  0
 26 29  1  0  0  0
 27 69  1  0  0  0
 27 70  1  0  0  0
 27 71  1  0  0  0
 28 72  1  0  0  0
 28 73  1  0  0  0
 28 74  1  0  0  0
 29 38  2  0  0  0
 29 30  1  0  0  0
 30 31  2  0  0  0
 30 75  1  0  0  0
 31 32  1  0  0  0
 31 37  1  0  0  0
 32 33  1  0  0  0
 32 76  1  0  0  0
 32 77  1  0  0  0
 33 34  1  0  0  0
 33 35  1  0  0  0
 33 36  1  0  0  0
 34 78  1  0  0  0
 34 79  1  0  0  0
 34 80  1  0  0  0
 35 81  1  0  0  0
 35 82  1  0  0  0
 35 83  1  0  0  0
 36 84  1  0  0  0
 36 85  1  0  0  0
 36 86  1  0  0  0
 37 38  1  0  0  0
M  END
> <s_m_source_file>
BACE_84.smi

> <i_m_source_file_index>
1

> <i_lp_mmshare_version>
42013

> <i_f3d_flags>
0

> <s_epik_input>
TzFbQ0gyXVtDSDJdW0NIMl1bQ0gyXVtDSDJdW0NIMl1bQ0gyXVtDQEBIXShbQ0gzXSlbQ0gyXVtDQEhdKFtOSF1DKD1PKWMoW2NIXWMxMilbY0hdW2NIXW4yKVtDQEhdKFtPSF0pW0NIMl1bTkhdQyhbQ0gzXSkoW0NIM10pYzNbY0hdYyhvbjMpW0NIMl1DKFtDSDNdKShbQ0gzXSlbQ0gzXQ==

> <s_epik_cmdline>
J2VwaWtfcHl0aG9uJywgJy1waCcsICc3LjAnLCAnLXRuJywgJzgnLCAnLW1hJywgJzIwMCcsICctaW1hZScsICc8aW5maWxlLm1hZT4nLCAnLW9tYWUnLCAnPG91dGZpbGUubWFlPic=

> <r_lp_tautomer_probability>
1

> <r_epik_Ionization_Penalty>
  0.7037

> <r_epik_Ionization_Penalty_Charging>
  0.0000

> <r_epik_Ionization_Penalty_Neutral>
  0.7037

> <r_epik_State_Penalty>
  0.7267

> <r_epik_Charging_Adjusted_Penalty>
0.726688

> <i_epik_Tot_Q>
0

> <i_epik_Tot_abs_Q>
0

> <s_lp_Force_Field>
OPLS_2005

> <r_lp_Energy>
37.0409

> <b_lp_Chiralities_Consistent>
1

> <s_lp_Variant>
BACE_84.smi:1-2

> <chiral flag>
1

> <version>
0

> <s_i_glide_gridfile>
second_dock_grid_2

> <i_i_glide_lignum>
171

> <i_i_glide_rotatable_bonds>
8

> <r_i_docking_score>
-3.10923

> <r_i_glide_ligand_efficiency>
-0.0818218

> <r_i_glide_ligand_efficiency_sa>
-0.275083

> <r_i_glide_ligand_efficiency_ln>
-0.670441

> <r_glide_XP_GScore>
-3.83593

> <r_i_glide_gscore>
-3.83593

> <r_i_glide_evdw>
-34.9556

> <r_i_glide_ecoul>
-6.66696

> <r_i_glide_energy>
-41.6226

> <r_i_glide_einternal>
1.54456

> <r_i_glide_emodel>
-58.4835

> <r_glide_XP_HBond>
-0.993705

> <i_i_glide_confnum>
1

> <i_i_glide_posenum>
7

> <r_i_glide_eff_state_penalty>
0.7267

> <i_glide_XP_PoseRank>
1

$$$$
BACE_85.smi:1
                    3D
 Structure written by MMmdl.
 89 91  0  0  1  0            999 V2000
   31.3223   43.5877   -8.3239 C   0  0  0  0  0  0
   31.2742   43.8513   -9.8371 C   0  0  0  0  0  0
   31.4370   45.3451  -10.1593 C   0  0  0  0  0  0
   30.0130   43.2731  -10.4665 C   0  0  0  0  0  0
   28.7526   43.8294  -10.1591 C   0  0  0  0  0  0
   27.5796   43.3119  -10.7471 C   0  0  0  0  0  0
   26.2326   43.9414  -10.4389 C   0  0  0  0  0  0
   25.2583   42.9506   -9.9332 N   0  3  0  0  0  0
   24.8445   41.9213  -10.9101 C   0  0  0  0  0  0
   23.7141   41.0362  -10.3446 C   0  0  1  0  0  0
   24.0822   40.5504   -9.0685 O   0  0  0  0  0  0
   22.3137   41.7108  -10.2484 C   0  0  2  0  0  0
   22.3951   42.9902   -9.3828 C   0  0  0  0  0  0
   21.0566   43.7239   -9.1157 C   0  0  2  0  0  0
   20.3869   44.1861  -10.4217 C   0  0  0  0  0  0
   21.2317   44.9293   -8.1617 C   0  0  0  0  0  0
   21.8116   44.6190   -6.7659 C   0  0  0  0  0  0
   21.0263   43.5532   -5.9855 C   0  0  0  0  0  0
   21.5103   43.3907   -4.5343 C   0  0  0  0  0  0
   20.6985   42.3621   -3.7215 C   0  0  0  0  0  0
   21.2991   40.9420   -3.6564 C   0  0  0  0  0  0
   21.4681   40.2055   -4.9975 C   0  0  0  0  0  0
   20.1473   39.9605   -5.7573 C   0  0  0  0  0  0
   20.3548   39.2799   -7.1234 C   0  0  0  0  0  0
   21.3984   38.6510   -7.3077 O   0  0  0  0  0  0
   19.4268   39.4243   -8.1093 N   0  0  0  0  0  0
   18.0820   39.9896   -7.8842 C   0  0  0  0  0  0
   16.9824   38.9651   -8.2280 C   0  0  0  0  0  0
   17.2802   38.1658   -9.5085 C   0  0  0  0  0  0
   18.3999   38.8243  -10.3218 C   0  0  0  0  0  0
   19.7045   38.9198   -9.4875 C   0  0  1  0  0  0
   20.7239   39.7688  -10.2877 C   0  0  0  0  0  0
   21.0022   39.4464  -11.4422 O   0  0  0  0  0  0
   21.3015   40.8197   -9.6796 N   0  0  0  0  0  0
   27.6664   42.2223  -11.6376 C   0  0  0  0  0  0
   28.9195   41.6623  -11.9476 C   0  0  0  0  0  0
   30.0892   42.1862  -11.3653 C   0  0  0  0  0  0
   23.6253   40.1495  -10.9737 H   0  0  0  0  0  0
   21.9945   42.0121  -11.2478 H   0  0  0  0  0  0
   20.3629   43.0319   -8.6385 H   0  0  0  0  0  0
   20.1118   37.9101   -9.4063 H   0  0  0  0  0  0
   31.2563   42.5204   -8.1099 H   0  0  0  0  0  0
   30.5034   44.0835   -7.8020 H   0  0  0  0  0  0
   32.2554   43.9519   -7.8929 H   0  0  0  0  0  0
   32.1291   43.3362  -10.2771 H   0  0  0  0  0  0
   31.4490   45.5141  -11.2367 H   0  0  0  0  0  0
   32.3732   45.7319   -9.7558 H   0  0  0  0  0  0
   30.6266   45.9400   -9.7375 H   0  0  0  0  0  0
   28.6835   44.6651   -9.4779 H   0  0  0  0  0  0
   26.3448   44.7477   -9.7128 H   0  0  0  0  0  0
   25.8344   44.3904  -11.3491 H   0  0  0  0  0  0
   25.6642   42.4835   -9.1354 H   0  0  0  0  0  0
   24.5206   42.4042  -11.8320 H   0  0  0  0  0  0
   25.7126   41.3084  -11.1562 H   0  0  0  0  0  0
   24.4574   39.6880   -9.1726 H   0  0  0  0  0  0
   22.8415   42.7101   -8.4292 H   0  0  0  0  0  0
   23.0938   43.6904   -9.8429 H   0  0  0  0  0  0
   21.0407   44.8480  -10.9903 H   0  0  0  0  0  0
   19.4629   44.7278  -10.2184 H   0  0  0  0  0  0
   20.1244   43.3430  -11.0605 H   0  0  0  0  0  0
   21.8633   45.6780   -8.6414 H   0  0  0  0  0  0
   20.2617   45.4095   -8.0241 H   0  0  0  0  0  0
   22.8565   44.3194   -6.8475 H   0  0  0  0  0  0
   21.8194   45.5453   -6.1905 H   0  0  0  0  0  0
   19.9677   43.8152   -5.9843 H   0  0  0  0  0  0
   21.1103   42.6029   -6.5074 H   0  0  0  0  0  0
   22.5716   43.1407   -4.5093 H   0  0  0  0  0  0
   21.4219   44.3599   -4.0417 H   0  0  0  0  0  0
   20.6371   42.7261   -2.6952 H   0  0  0  0  0  0
   19.6654   42.3306   -4.0681 H   0  0  0  0  0  0
   22.2730   40.9985   -3.1690 H   0  0  0  0  0  0
   20.6782   40.3321   -2.9992 H   0  0  0  0  0  0
   22.1694   40.7541   -5.6273 H   0  0  0  0  0  0
   21.9453   39.2462   -4.7934 H   0  0  0  0  0  0
   19.4700   39.3537   -5.1559 H   0  0  0  0  0  0
   19.6713   40.9266   -5.9082 H   0  0  0  0  0  0
   17.8923   40.3367   -6.8713 H   0  0  0  0  0  0
   17.9810   40.8741   -8.5148 H   0  0  0  0  0  0
   16.8523   38.2704   -7.3972 H   0  0  0  0  0  0
   16.0323   39.4899   -8.3327 H   0  0  0  0  0  0
   17.5847   37.1527   -9.2420 H   0  0  0  0  0  0
   16.3768   38.0658  -10.1109 H   0  0  0  0  0  0
   18.5754   38.2417  -11.2274 H   0  0  0  0  0  0
   18.0741   39.8113  -10.6563 H   0  0  0  0  0  0
   21.0171   41.0167   -8.7309 H   0  0  0  0  0  0
   26.7746   41.8183  -12.0940 H   0  0  0  0  0  0
   28.9842   40.8324  -12.6358 H   0  0  0  0  0  0
   31.0458   41.7502  -11.6136 H   0  0  0  0  0  0
   24.4311   43.4437   -9.6281 H   0  0  0  0  0  0
  1  2  1  0  0  0
  1 42  1  0  0  0
  1 43  1  0  0  0
  1 44  1  0  0  0
  2  3  1  0  0  0
  2  4  1  0  0  0
  2 45  1  0  0  0
  3 46  1  0  0  0
  3 47  1  0  0  0
  3 48  1  0  0  0
  4 37  1  0  0  0
  4  5  2  0  0  0
  5  6  1  0  0  0
  5 49  1  0  0  0
  6  7  1  0  0  0
  6 35  2  0  0  0
  7  8  1  0  0  0
  7 50  1  0  0  0
  7 51  1  0  0  0
  8  9  1  0  0  0
  8 52  1  0  0  0
  8 89  1  0  0  0
  9 10  1  0  0  0
  9 53  1  0  0  0
  9 54  1  0  0  0
 10 38  1  0  0  0
 10 11  1  0  0  0
 10 12  1  0  0  0
 11 55  1  0  0  0
 12 39  1  0  0  0
 12 34  1  0  0  0
 12 13  1  0  0  0
 13 14  1  0  0  0
 13 56  1  0  0  0
 13 57  1  0  0  0
 14 40  1  0  0  0
 14 15  1  0  0  0
 14 16  1  0  0  0
 15 58  1  0  0  0
 15 59  1  0  0  0
 15 60  1  0  0  0
 16 17  1  0  0  0
 16 61  1  0  0  0
 16 62  1  0  0  0
 17 18  1  0  0  0
 17 63  1  0  0  0
 17 64  1  0  0  0
 18 19  1  0  0  0
 18 65  1  0  0  0
 18 66  1  0  0  0
 19 20  1  0  0  0
 19 67  1  0  0  0
 19 68  1  0  0  0
 20 21  1  0  0  0
 20 69  1  0  0  0
 20 70  1  0  0  0
 21 22  1  0  0  0
 21 71  1  0  0  0
 21 72  1  0  0  0
 22 23  1  0  0  0
 22 73  1  0  0  0
 22 74  1  0  0  0
 23 24  1  0  0  0
 23 75  1  0  0  0
 23 76  1  0  0  0
 24 25  2  0  0  0
 24 26  1  0  0  0
 26 31  1  0  0  0
 26 27  1  0  0  0
 27 28  1  0  0  0
 27 77  1  0  0  0
 27 78  1  0  0  0
 28 29  1  0  0  0
 28 79  1  0  0  0
 28 80  1  0  0  0
 29 30  1  0  0  0
 29 81  1  0  0  0
 29 82  1  0  0  0
 30 31  1  0  0  0
 30 83  1  0  0  0
 30 84  1  0  0  0
 31 41  1  0  0  0
 31 32  1  0  0  0
 32 33  2  0  0  0
 32 34  1  0  0  0
 34 85  1  0  0  0
 35 36  1  0  0  0
 35 86  1  0  0  0
 36 37  2  0  0  0
 36 87  1  0  0  0
 37 88  1  0  0  0
M  CHG  1   8   1
M  END
> <s_m_source_file>
BACE_85.smi

> <i_m_source_file_index>
1

> <i_lp_mmshare_version>
42013

> <i_f3d_flags>
0

> <s_epik_input>
W0NIM11bQ0hdKFtDSDNdKWMxW2NIXWMoW2NIXVtjSF1bY0hdMSlbQ0gyXVtOSF1bQ0gyXVtDQEBIXShbT0hdKVtDQEBIXShbTkhdQyg9TylbQ0BASF0oTjIzKVtDSDJdW0NIMl1bQ0gyXVtDSDJdMylbQ0gyXVtDQEhdKFtDSDNdKVtDSDJdW0NIMl1bQ0gyXVtDSDJdW0NIMl1bQ0gyXVtDSDJdW0NIMl1DMj1P

> <s_epik_cmdline>
J2VwaWtfcHl0aG9uJywgJy1waCcsICc3LjAnLCAnLXRuJywgJzgnLCAnLW1hJywgJzIwMCcsICctaW1hZScsICc8aW5maWxlLm1hZT4nLCAnLW9tYWUnLCAnPG91dGZpbGUubWFlPic=

> <r_epik_Ionization_Penalty>
  0.0181

> <r_epik_Ionization_Penalty_Charging>
  0.0181

> <r_epik_Ionization_Penalty_Neutral>
  0.0000

> <r_epik_State_Penalty>
  0.0144

> <r_epik_Charging_Adjusted_Penalty>
0.0324652

> <i_epik_Tot_Q>
1

> <i_epik_Tot_abs_Q>
1

> <s_lp_Force_Field>
OPLS_2005

> <r_lp_Energy>
44.4774

> <b_lp_Chiralities_Consistent>
1

> <s_lp_Variant>
BACE_85.smi:1-1

> <chiral flag>
1

> <version>
0

> <s_i_glide_gridfile>
second_dock_grid_2

> <i_i_glide_lignum>
172

> <i_i_glide_rotatable_bonds>
7

> <r_i_docking_score>
-4.32546

> <r_i_glide_ligand_efficiency>
-0.116904

> <r_i_glide_ligand_efficiency_sa>
-0.389551

> <r_i_glide_ligand_efficiency_ln>
-0.938091

> <r_glide_XP_GScore>
-4.33986

> <r_i_glide_gscore>
-4.33986

> <r_i_glide_evdw>
-35.892

> <r_i_glide_ecoul>
-10.0649

> <r_i_glide_energy>
-45.9569

> <r_i_glide_einternal>
6.93132

> <r_i_glide_emodel>
-62.0557

> <r_glide_XP_HBond>
-0.7

> <i_i_glide_confnum>
1

> <i_i_glide_posenum>
2

> <r_i_glide_eff_state_penalty>
0.0144

> <i_glide_XP_PoseRank>
1

$$$$
BACE_85.smi:1
                    3D
 Structure written by MMmdl.
 88 90  0  0  1  0            999 V2000
   31.9185   44.5756  -13.9844 C   0  0  0  0  0  0
   31.2272   44.8061  -12.6305 C   0  0  0  0  0  0
   32.2348   44.7888  -11.4690 C   0  0  0  0  0  0
   30.0925   43.8102  -12.4149 C   0  0  0  0  0  0
   28.7540   44.2588  -12.3648 C   0  0  0  0  0  0
   27.6904   43.3453  -12.1799 C   0  0  0  0  0  0
   26.2633   43.8894  -12.1756 C   0  0  0  0  0  0
   25.2004   42.9511  -11.8097 N   0  0  0  0  0  0
   25.1955   42.5455  -10.4068 C   0  0  0  0  0  0
   24.1934   41.4039  -10.1511 C   0  0  1  0  0  0
   24.4526   40.9500   -8.8403 O   0  0  0  0  0  0
   22.6919   41.7826  -10.2868 C   0  0  2  0  0  0
   22.3424   43.1040   -9.5615 C   0  0  0  0  0  0
   20.8406   43.4532   -9.4369 C   0  0  2  0  0  0
   20.1690   43.5853  -10.8151 C   0  0  0  0  0  0
   20.6094   44.7384   -8.6073 C   0  0  0  0  0  0
   21.2128   44.7545   -7.1846 C   0  0  0  0  0  0
   20.7769   43.5691   -6.3097 C   0  0  0  0  0  0
   21.3064   43.6458   -4.8667 C   0  0  0  0  0  0
   20.6963   42.5947   -3.9211 C   0  0  0  0  0  0
   21.4754   41.2690   -3.7705 C   0  0  0  0  0  0
   21.7854   40.4835   -5.0591 C   0  0  0  0  0  0
   20.5428   40.0210   -5.8540 C   0  0  0  0  0  0
   20.8996   39.3317   -7.1878 C   0  0  0  0  0  0
   22.0595   38.9501   -7.3551 O   0  0  0  0  0  0
   19.9751   39.2337   -8.1817 N   0  0  0  0  0  0
   18.5395   39.4845   -7.9523 C   0  0  0  0  0  0
   17.7086   38.2131   -8.2174 C   0  0  0  0  0  0
   18.1514   37.4639   -9.4846 C   0  0  0  0  0  0
   19.0826   38.3213  -10.3482 C   0  0  0  0  0  0
   20.3489   38.7519   -9.5528 C   0  0  1  0  0  0
   21.1438   39.7846  -10.4038 C   0  0  0  0  0  0
   21.0941   39.7484  -11.6342 O   0  0  0  0  0  0
   21.8763   40.6951   -9.7465 N   0  0  0  0  0  0
   27.9859   41.9675  -12.0404 C   0  0  0  0  0  0
   29.3162   41.5173  -12.0998 C   0  0  0  0  0  0
   30.3678   42.4315  -12.2860 C   0  0  0  0  0  0
   24.4127   40.5748  -10.8241 H   0  0  0  0  0  0
   22.4749   41.9123  -11.3487 H   0  0  0  0  0  0
   20.3348   42.6400   -8.9155 H   0  0  0  0  0  0
   20.9819   37.8688   -9.4447 H   0  0  0  0  0  0
   31.2026   44.6451  -14.8046 H   0  0  0  0  0  0
   32.3895   43.5935  -14.0346 H   0  0  0  0  0  0
   32.6903   45.3242  -14.1649 H   0  0  0  0  0  0
   30.7904   45.8045  -12.6596 H   0  0  0  0  0  0
   31.7386   44.9985  -10.5208 H   0  0  0  0  0  0
   33.0084   45.5454  -11.6142 H   0  0  0  0  0  0
   32.7293   43.8215  -11.3767 H   0  0  0  0  0  0
   28.5313   45.3104  -12.4725 H   0  0  0  0  0  0
   26.2315   44.7535  -11.5098 H   0  0  0  0  0  0
   26.0629   44.2774  -13.1754 H   0  0  0  0  0  0
   25.1866   42.1367  -12.4226 H   0  0  0  0  0  0
   26.1832   42.1900  -10.1174 H   0  0  0  0  0  0
   24.9975   43.3970   -9.7586 H   0  0  0  0  0  0
   24.1837   40.0419   -8.7939 H   0  0  0  0  0  0
   22.7754   43.0442   -8.5633 H   0  0  0  0  0  0
   22.8450   43.9361  -10.0580 H   0  0  0  0  0  0
   20.6442   44.3580  -11.4183 H   0  0  0  0  0  0
   19.1155   43.8404  -10.7136 H   0  0  0  0  0  0
   20.2160   42.6532  -11.3755 H   0  0  0  0  0  0
   21.0043   45.5932   -9.1563 H   0  0  0  0  0  0
   19.5370   44.9098   -8.5227 H   0  0  0  0  0  0
   22.3015   44.7934   -7.2348 H   0  0  0  0  0  0
   20.9143   45.6841   -6.6976 H   0  0  0  0  0  0
   19.6870   43.5180   -6.2974 H   0  0  0  0  0  0
   21.1266   42.6493   -6.7691 H   0  0  0  0  0  0
   22.3963   43.5925   -4.8478 H   0  0  0  0  0  0
   21.0478   44.6254   -4.4758 H   0  0  0  0  0  0
   20.6392   43.0388   -2.9255 H   0  0  0  0  0  0
   19.6604   42.4087   -4.1936 H   0  0  0  0  0  0
   22.4210   41.4832   -3.2690 H   0  0  0  0  0  0
   20.9280   40.6194   -3.0871 H   0  0  0  0  0  0
   22.4357   41.0833   -5.6970 H   0  0  0  0  0  0
   22.3744   39.6068   -4.7827 H   0  0  0  0  0  0
   19.9322   39.3502   -5.2534 H   0  0  0  0  0  0
   19.9287   40.8948   -6.0649 H   0  0  0  0  0  0
   18.2871   39.8377   -6.9544 H   0  0  0  0  0  0
   18.2267   40.2835   -8.6254 H   0  0  0  0  0  0
   17.7747   37.5412   -7.3622 H   0  0  0  0  0  0
   16.6553   38.4858   -8.2931 H   0  0  0  0  0  0
   18.6706   36.5501   -9.2037 H   0  0  0  0  0  0
   17.2757   37.1478  -10.0493 H   0  0  0  0  0  0
   19.3741   37.7622  -11.2386 H   0  0  0  0  0  0
   18.5306   39.1897  -10.7119 H   0  0  0  0  0  0
   21.9182   40.5909   -8.7426 H   0  0  0  0  0  0
   27.2031   41.2339  -11.9180 H   0  0  0  0  0  0
   29.5297   40.4634  -12.0150 H   0  0  0  0  0  0
   31.3842   42.0701  -12.3414 H   0  0  0  0  0  0
  1  2  1  0  0  0
  1 42  1  0  0  0
  1 43  1  0  0  0
  1 44  1  0  0  0
  2  3  1  0  0  0
  2  4  1  0  0  0
  2 45  1  0  0  0
  3 46  1  0  0  0
  3 47  1  0  0  0
  3 48  1  0  0  0
  4 37  1  0  0  0
  4  5  2  0  0  0
  5  6  1  0  0  0
  5 49  1  0  0  0
  6  7  1  0  0  0
  6 35  2  0  0  0
  7  8  1  0  0  0
  7 50  1  0  0  0
  7 51  1  0  0  0
  8  9  1  0  0  0
  8 52  1  0  0  0
  9 10  1  0  0  0
  9 53  1  0  0  0
  9 54  1  0  0  0
 10 38  1  0  0  0
 10 11  1  0  0  0
 10 12  1  0  0  0
 11 55  1  0  0  0
 12 39  1  0  0  0
 12 34  1  0  0  0
 12 13  1  0  0  0
 13 14  1  0  0  0
 13 56  1  0  0  0
 13 57  1  0  0  0
 14 40  1  0  0  0
 14 15  1  0  0  0
 14 16  1  0  0  0
 15 58  1  0  0  0
 15 59  1  0  0  0
 15 60  1  0  0  0
 16 17  1  0  0  0
 16 61  1  0  0  0
 16 62  1  0  0  0
 17 18  1  0  0  0
 17 63  1  0  0  0
 17 64  1  0  0  0
 18 19  1  0  0  0
 18 65  1  0  0  0
 18 66  1  0  0  0
 19 20  1  0  0  0
 19 67  1  0  0  0
 19 68  1  0  0  0
 20 21  1  0  0  0
 20 69  1  0  0  0
 20 70  1  0  0  0
 21 22  1  0  0  0
 21 71  1  0  0  0
 21 72  1  0  0  0
 22 23  1  0  0  0
 22 73  1  0  0  0
 22 74  1  0  0  0
 23 24  1  0  0  0
 23 75  1  0  0  0
 23 76  1  0  0  0
 24 25  2  0  0  0
 24 26  1  0  0  0
 26 31  1  0  0  0
 26 27  1  0  0  0
 27 28  1  0  0  0
 27 77  1  0  0  0
 27 78  1  0  0  0
 28 29  1  0  0  0
 28 79  1  0  0  0
 28 80  1  0  0  0
 29 30  1  0  0  0
 29 81  1  0  0  0
 29 82  1  0  0  0
 30 31  1  0  0  0
 30 83  1  0  0  0
 30 84  1  0  0  0
 31 41  1  0  0  0
 31 32  1  0  0  0
 32 33  2  0  0  0
 32 34  1  0  0  0
 34 85  1  0  0  0
 35 36  1  0  0  0
 35 86  1  0  0  0
 36 37  2  0  0  0
 36 87  1  0  0  0
 37 88  1  0  0  0
M  END
> <s_m_source_file>
BACE_85.smi

> <i_m_source_file_index>
1

> <i_lp_mmshare_version>
42013

> <i_f3d_flags>
0

> <s_epik_input>
W0NIM11bQ0hdKFtDSDNdKWMxW2NIXWMoW2NIXVtjSF1bY0hdMSlbQ0gyXVtOSF1bQ0gyXVtDQEBIXShbT0hdKVtDQEBIXShbTkhdQyg9TylbQ0BASF0oTjIzKVtDSDJdW0NIMl1bQ0gyXVtDSDJdMylbQ0gyXVtDQEhdKFtDSDNdKVtDSDJdW0NIMl1bQ0gyXVtDSDJdW0NIMl1bQ0gyXVtDSDJdW0NIMl1DMj1P

> <s_epik_cmdline>
J2VwaWtfcHl0aG9uJywgJy1waCcsICc3LjAnLCAnLXRuJywgJzgnLCAnLW1hJywgJzIwMCcsICctaW1hZScsICc8aW5maWxlLm1hZT4nLCAnLW9tYWUnLCAnPG91dGZpbGUubWFlPic=

> <r_epik_Ionization_Penalty>
  2.0762

> <r_epik_Ionization_Penalty_Charging>
  0.0000

> <r_epik_Ionization_Penalty_Neutral>
  2.0762

> <r_epik_State_Penalty>
  2.2105

> <r_epik_Charging_Adjusted_Penalty>
2.21053

> <i_epik_Tot_Q>
0

> <i_epik_Tot_abs_Q>
0

> <s_lp_Force_Field>
OPLS_2005

> <r_lp_Energy>
59.3208

> <b_lp_Chiralities_Consistent>
1

> <s_lp_Variant>
BACE_85.smi:1-2

> <chiral flag>
1

> <version>
0

> <s_i_glide_gridfile>
second_dock_grid_2

> <i_i_glide_lignum>
173

> <i_i_glide_rotatable_bonds>
7

> <r_i_docking_score>
-2.89997

> <r_i_glide_ligand_efficiency>
-0.0783776

> <r_i_glide_ligand_efficiency_sa>
-0.261172

> <r_i_glide_ligand_efficiency_ln>
-0.628936

> <r_glide_XP_GScore>
-5.11047

> <r_i_glide_gscore>
-5.11047

> <r_i_glide_evdw>
-39.5636

> <r_i_glide_ecoul>
-5.4175

> <r_i_glide_energy>
-44.9811

> <r_i_glide_einternal>
6.46071

> <r_i_glide_emodel>
-57.8258

> <r_glide_XP_HBond>
-0.998709

> <i_i_glide_confnum>
1

> <i_i_glide_posenum>
11

> <r_i_glide_eff_state_penalty>
2.2105

> <i_glide_XP_PoseRank>
1

$$$$
BACE_86.smi:1
                    3D
 Structure written by MMmdl.
 89 91  0  0  1  0            999 V2000
   21.5317   38.4327   -9.2136 C   0  0  0  0  0  0
   20.5618   39.0088   -8.1662 C   0  0  0  0  0  0
   21.0979   38.7780   -6.7441 C   0  0  0  0  0  0
   19.0990   38.5768   -8.3364 C   0  0  0  0  0  0
   18.1396   39.0070   -7.3955 C   0  0  0  0  0  0
   16.7576   38.8000   -7.6040 C   0  0  0  0  0  0
   15.7447   39.3513   -6.6086 C   0  0  0  0  0  0
   15.2600   40.7185   -6.9204 N   0  3  0  0  0  0
   16.2939   41.7380   -7.2404 C   0  0  0  0  0  0
   16.0162   42.4175   -8.5963 C   0  0  1  0  0  0
   14.9141   43.2854   -8.4399 O   0  0  0  0  0  0
   17.1970   43.2182   -9.2330 C   0  0  2  0  0  0
   17.3130   42.8494  -10.7309 C   0  0  0  0  0  0
   18.3025   43.6773  -11.5838 C   0  0  2  0  0  0
   17.9404   43.5833  -13.0703 C   0  0  0  0  0  0
   19.8001   43.3594  -11.3707 C   0  0  0  0  0  0
   20.2587   41.9306  -11.7451 C   0  0  0  0  0  0
   21.5523   41.4944  -11.0411 C   0  0  0  0  0  0
   22.7422   42.4626  -11.1353 C   0  0  0  0  0  0
   23.9142   41.9743  -10.2620 C   0  0  0  0  0  0
   24.8607   43.0784   -9.7520 C   0  0  0  0  0  0
   24.2615   44.1699   -8.8305 C   0  0  0  0  0  0
   24.0986   43.8470   -7.3218 C   0  0  0  0  0  0
   22.7926   43.1683   -6.8171 C   0  0  1  0  0  0
   22.8501   41.7973   -7.1482 O   0  0  0  0  0  0
   22.7215   43.2615   -5.2696 C   0  0  0  0  0  0
   21.4114   42.7054   -4.6786 C   0  0  0  0  0  0
   20.1859   43.3696   -5.3233 C   0  0  0  0  0  0
   20.2152   43.1642   -6.8476 C   0  0  2  0  0  0
   21.5084   43.7652   -7.4435 C   0  0  0  0  0  0
   18.9639   43.7279   -7.5300 C   0  0  0  0  0  0
   18.4392   44.7659   -7.1275 O   0  0  0  0  0  0
   18.4640   42.9907   -8.5368 N   0  0  0  0  0  0
   16.3275   38.0587   -8.7165 C   0  0  0  0  0  0
   17.2794   37.5470   -9.6118 C   0  0  0  0  0  0
   18.6516   37.8168   -9.4428 C   0  0  0  0  0  0
   15.7116   41.6330   -9.2905 H   0  0  0  0  0  0
   16.9788   44.2860   -9.1791 H   0  0  0  0  0  0
   18.1613   44.7214  -11.3034 H   0  0  0  0  0  0
   20.2161   42.0891   -7.0269 H   0  0  0  0  0  0
   21.2252   38.6813  -10.2284 H   0  0  0  0  0  0
   21.6040   37.3501   -9.1437 H   0  0  0  0  0  0
   22.5358   38.8349   -9.0773 H   0  0  0  0  0  0
   20.5553   40.0867   -8.3126 H   0  0  0  0  0  0
   20.5849   39.3950   -6.0068 H   0  0  0  0  0  0
   22.1568   39.0298   -6.6751 H   0  0  0  0  0  0
   20.9849   37.7420   -6.4407 H   0  0  0  0  0  0
   18.4568   39.5697   -6.5313 H   0  0  0  0  0  0
   14.8905   38.6764   -6.5296 H   0  0  0  0  0  0
   16.2154   39.3594   -5.6407 H   0  0  0  0  0  0
   14.6423   40.6424   -7.7167 H   0  0  0  0  0  0
   16.4599   42.4568   -6.4401 H   0  0  0  0  0  0
   17.2583   41.2647   -7.3010 H   0  0  0  0  0  0
   14.9906   43.6868   -7.5799 H   0  0  0  0  0  0
   17.5087   41.7834  -10.8392 H   0  0  0  0  0  0
   16.3194   42.9894  -11.1572 H   0  0  0  0  0  0
   18.0620   42.5631  -13.4444 H   0  0  0  0  0  0
   18.5825   44.2527  -13.6400 H   0  0  0  0  0  0
   16.9124   43.8984  -13.2508 H   0  0  0  0  0  0
   20.3911   44.0733  -11.9458 H   0  0  0  0  0  0
   20.0733   43.5707  -10.3425 H   0  0  0  0  0  0
   19.4968   41.2017  -11.4741 H   0  0  0  0  0  0
   20.3729   41.8257  -12.8216 H   0  0  0  0  0  0
   21.3187   41.3511   -9.9874 H   0  0  0  0  0  0
   21.8593   40.5224  -11.4268 H   0  0  0  0  0  0
   23.0667   42.5669  -12.1719 H   0  0  0  0  0  0
   22.4259   43.4527  -10.8188 H   0  0  0  0  0  0
   23.5426   41.3981   -9.4224 H   0  0  0  0  0  0
   24.4909   41.2514  -10.8403 H   0  0  0  0  0  0
   25.6999   42.6064   -9.2403 H   0  0  0  0  0  0
   25.2920   43.5655  -10.6270 H   0  0  0  0  0  0
   24.9800   44.9898   -8.8702 H   0  0  0  0  0  0
   23.3583   44.6091   -9.2473 H   0  0  0  0  0  0
   24.9702   43.2950   -6.9699 H   0  0  0  0  0  0
   24.1637   44.8070   -6.8102 H   0  0  0  0  0  0
   23.6781   41.4506   -6.8579 H   0  0  0  0  0  0
   23.5739   42.7506   -4.8180 H   0  0  0  0  0  0
   22.8127   44.3062   -4.9684 H   0  0  0  0  0  0
   21.3650   41.6274   -4.8297 H   0  0  0  0  0  0
   21.3960   42.8646   -3.6005 H   0  0  0  0  0  0
   19.2632   42.9585   -4.9076 H   0  0  0  0  0  0
   20.1849   44.4335   -5.0824 H   0  0  0  0  0  0
   21.5052   44.8461   -7.3055 H   0  0  0  0  0  0
   21.5124   43.5940   -8.5185 H   0  0  0  0  0  0
   18.9828   42.1682   -8.8058 H   0  0  0  0  0  0
   15.2774   37.8572   -8.8703 H   0  0  0  0  0  0
   16.9426   36.9500  -10.4399 H   0  0  0  0  0  0
   19.3392   37.4387  -10.1829 H   0  0  0  0  0  0
   14.6911   41.0516   -6.1394 H   0  0  0  0  0  0
  1  2  1  0  0  0
  1 41  1  0  0  0
  1 42  1  0  0  0
  1 43  1  0  0  0
  2  3  1  0  0  0
  2  4  1  0  0  0
  2 44  1  0  0  0
  3 45  1  0  0  0
  3 46  1  0  0  0
  3 47  1  0  0  0
  4 36  1  0  0  0
  4  5  2  0  0  0
  5  6  1  0  0  0
  5 48  1  0  0  0
  6  7  1  0  0  0
  6 34  2  0  0  0
  7  8  1  0  0  0
  7 49  1  0  0  0
  7 50  1  0  0  0
  8  9  1  0  0  0
  8 51  1  0  0  0
  8 89  1  0  0  0
  9 10  1  0  0  0
  9 52  1  0  0  0
  9 53  1  0  0  0
 10 37  1  0  0  0
 10 11  1  0  0  0
 10 12  1  0  0  0
 11 54  1  0  0  0
 12 38  1  0  0  0
 12 33  1  0  0  0
 12 13  1  0  0  0
 13 14  1  0  0  0
 13 55  1  0  0  0
 13 56  1  0  0  0
 14 39  1  0  0  0
 14 15  1  0  0  0
 14 16  1  0  0  0
 15 57  1  0  0  0
 15 58  1  0  0  0
 15 59  1  0  0  0
 16 17  1  0  0  0
 16 60  1  0  0  0
 16 61  1  0  0  0
 17 18  1  0  0  0
 17 62  1  0  0  0
 17 63  1  0  0  0
 18 19  1  0  0  0
 18 64  1  0  0  0
 18 65  1  0  0  0
 19 20  1  0  0  0
 19 66  1  0  0  0
 19 67  1  0  0  0
 20 21  1  0  0  0
 20 68  1  0  0  0
 20 69  1  0  0  0
 21 22  1  0  0  0
 21 70  1  0  0  0
 21 71  1  0  0  0
 22 23  1  0  0  0
 22 72  1  0  0  0
 22 73  1  0  0  0
 23 24  1  0  0  0
 23 74  1  0  0  0
 23 75  1  0  0  0
 24 30  1  0  0  0
 24 25  1  0  0  0
 24 26  1  0  0  0
 25 76  1  0  0  0
 26 27  1  0  0  0
 26 77  1  0  0  0
 26 78  1  0  0  0
 27 28  1  0  0  0
 27 79  1  0  0  0
 27 80  1  0  0  0
 28 29  1  0  0  0
 28 81  1  0  0  0
 28 82  1  0  0  0
 29 40  1  0  0  0
 29 30  1  0  0  0
 29 31  1  0  0  0
 30 83  1  0  0  0
 30 84  1  0  0  0
 31 32  2  0  0  0
 31 33  1  0  0  0
 33 85  1  0  0  0
 34 35  1  0  0  0
 34 86  1  0  0  0
 35 36  2  0  0  0
 35 87  1  0  0  0
 36 88  1  0  0  0
M  CHG  1   8   1
M  END
> <s_m_source_file>
BACE_86.smi

> <i_m_source_file_index>
1

> <i_lp_mmshare_version>
42013

> <i_f3d_flags>
0

> <s_epik_input>
W0NIM11bQ0hdKFtDSDNdKWMxW2NIXWMoW2NIXVtjSF1bY0hdMSlbQ0gyXVtOSF1bQ0gyXVtDQEBIXShbT0hdKVtDQEBIXShbTkhdQyg9TylbQ0BASF0oW0NIMl0yKVtDSDJdW0NIMl1bQ0gyXTMpW0NIMl1bQ0BIXShbQ0gzXSlbQ0gyXVtDSDJdW0NIMl1bQ0gyXVtDSDJdW0NIMl1bQ0gyXVtDSDJdW0NAXTIzW09IXQ==

> <s_epik_cmdline>
J2VwaWtfcHl0aG9uJywgJy1waCcsICc3LjAnLCAnLXRuJywgJzgnLCAnLW1hJywgJzIwMCcsICctaW1hZScsICc8aW5maWxlLm1hZT4nLCAnLW9tYWUnLCAnPG91dGZpbGUubWFlPic=

> <r_epik_Ionization_Penalty>
  0.0169

> <r_epik_Ionization_Penalty_Charging>
  0.0169

> <r_epik_Ionization_Penalty_Neutral>
  0.0000

> <r_epik_State_Penalty>
  0.0134

> <r_epik_Charging_Adjusted_Penalty>
0.0303506

> <i_epik_Tot_Q>
1

> <i_epik_Tot_abs_Q>
1

> <s_lp_Force_Field>
OPLS_2005

> <r_lp_Energy>
37.6376

> <b_lp_Chiralities_Consistent>
1

> <s_lp_Variant>
BACE_86.smi:1-1

> <chiral flag>
1

> <version>
0

> <s_i_glide_gridfile>
second_dock_grid_2

> <i_i_glide_lignum>
174

> <i_i_glide_rotatable_bonds>
8

> <r_i_docking_score>
-5.47162

> <r_i_glide_ligand_efficiency>
-0.151989

> <r_i_glide_ligand_efficiency_sa>
-0.501858

> <r_i_glide_ligand_efficiency_ln>
-1.19376

> <r_glide_XP_GScore>
-5.48502

> <r_i_glide_gscore>
-5.48502

> <r_i_glide_evdw>
-35.4636

> <r_i_glide_ecoul>
-13.3264

> <r_i_glide_energy>
-48.7901

> <r_i_glide_einternal>
1.96922

> <r_i_glide_emodel>
-55.2059

> <r_glide_XP_HBond>
-1.23057

> <i_i_glide_confnum>
1

> <i_i_glide_posenum>
5

> <r_i_glide_eff_state_penalty>
0.0134

> <i_glide_XP_PoseRank>
1

$$$$
BACE_86.smi:1
                    3D
 Structure written by MMmdl.
 88 90  0  0  1  0            999 V2000
   22.7721   39.3509   -8.4401 C   0  0  0  0  0  0
   21.4648   39.6309   -7.6682 C   0  0  0  0  0  0
   21.5546   38.9499   -6.3000 C   0  0  0  0  0  0
   20.1850   39.2367   -8.4135 C   0  0  0  0  0  0
   18.9372   39.2771   -7.7428 C   0  0  0  0  0  0
   17.7494   38.8905   -8.3963 C   0  0  0  0  0  0
   16.4263   38.8829   -7.6475 C   0  0  0  0  0  0
   16.0665   40.1837   -7.0739 N   0  0  0  0  0  0
   15.1161   41.0029   -7.8287 C   0  0  0  0  0  0
   15.5811   41.4080   -9.2549 C   0  0  1  0  0  0
   14.5606   40.9535  -10.1301 O   0  0  0  0  0  0
   15.7702   42.9376   -9.4930 C   0  0  2  0  0  0
   16.1076   43.2945  -10.9764 C   0  0  0  0  0  0
   17.5844   43.2909  -11.4596 C   0  0  2  0  0  0
   17.6200   43.7451  -12.9328 C   0  0  0  0  0  0
   18.3002   41.9323  -11.2668 C   0  0  0  0  0  0
   19.6824   41.7879  -11.9408 C   0  0  0  0  0  0
   20.7667   42.7777  -11.4730 C   0  0  0  0  0  0
   21.2060   42.5861  -10.0154 C   0  0  0  0  0  0
   22.4318   43.4438   -9.6531 C   0  0  0  0  0  0
   23.0147   43.1796   -8.2469 C   0  0  0  0  0  0
   22.0625   43.4808   -7.0743 C   0  0  0  0  0  0
   21.7551   44.9810   -6.8925 C   0  0  0  0  0  0
   20.3066   45.3318   -6.4791 C   0  0  1  0  0  0
   20.0243   44.6959   -5.2441 O   0  0  0  0  0  0
   20.2175   46.8595   -6.2541 C   0  0  0  0  0  0
   18.7861   47.3493   -6.0001 C   0  0  0  0  0  0
   17.8579   46.9149   -7.1393 C   0  0  0  0  0  0
   17.8401   45.3770   -7.2914 C   0  0  2  0  0  0
   19.2743   44.8693   -7.5517 C   0  0  0  0  0  0
   16.8236   44.8931   -8.3481 C   0  0  0  0  0  0
   16.1317   45.7140   -8.9535 O   0  0  0  0  0  0
   16.7021   43.5640   -8.5448 N   0  0  0  0  0  0
   17.7970   38.4899   -9.7450 C   0  0  0  0  0  0
   19.0241   38.4787  -10.4325 C   0  0  0  0  0  0
   20.2110   38.8359   -9.7684 C   0  0  0  0  0  0
   16.4905   40.8875   -9.5310 H   0  0  0  0  0  0
   14.7939   43.3814   -9.2860 H   0  0  0  0  0  0
   18.1261   44.0377  -10.8800 H   0  0  0  0  0  0
   17.5106   44.9490   -6.3520 H   0  0  0  0  0  0
   22.8449   39.9181   -9.3652 H   0  0  0  0  0  0
   22.8574   38.2961   -8.7002 H   0  0  0  0  0  0
   23.6481   39.6132   -7.8463 H   0  0  0  0  0  0
   21.4017   40.7001   -7.4975 H   0  0  0  0  0  0
   20.7222   39.2012   -5.6441 H   0  0  0  0  0  0
   22.4603   39.2366   -5.7677 H   0  0  0  0  0  0
   21.5714   37.8693   -6.4401 H   0  0  0  0  0  0
   18.8780   39.5942   -6.7123 H   0  0  0  0  0  0
   15.6235   38.4993   -8.2788 H   0  0  0  0  0  0
   16.5376   38.1550   -6.8423 H   0  0  0  0  0  0
   16.8940   40.7128   -6.8127 H   0  0  0  0  0  0
   14.1819   40.4421   -7.8832 H   0  0  0  0  0  0
   14.8719   41.8932   -7.2485 H   0  0  0  0  0  0
   13.7375   40.9503   -9.6577 H   0  0  0  0  0  0
   15.5196   42.6654  -11.6403 H   0  0  0  0  0  0
   15.7193   44.2983  -11.1512 H   0  0  0  0  0  0
   17.2616   42.9571  -13.5962 H   0  0  0  0  0  0
   18.6316   44.0098  -13.2407 H   0  0  0  0  0  0
   17.0055   44.6314  -13.0938 H   0  0  0  0  0  0
   18.4204   41.7362  -10.2029 H   0  0  0  0  0  0
   17.6593   41.1372  -11.6497 H   0  0  0  0  0  0
   20.0496   40.7759  -11.7777 H   0  0  0  0  0  0
   19.5684   41.8602  -13.0219 H   0  0  0  0  0  0
   21.6442   42.6368  -12.1048 H   0  0  0  0  0  0
   20.4420   43.8057  -11.6303 H   0  0  0  0  0  0
   20.3736   42.8121   -9.3546 H   0  0  0  0  0  0
   21.4433   41.5371   -9.8612 H   0  0  0  0  0  0
   23.2205   43.2445  -10.3788 H   0  0  0  0  0  0
   22.1850   44.4972   -9.7739 H   0  0  0  0  0  0
   23.3293   42.1377   -8.1878 H   0  0  0  0  0  0
   23.9265   43.7632   -8.1225 H   0  0  0  0  0  0
   21.1521   42.9019   -7.1910 H   0  0  0  0  0  0
   22.5058   43.1059   -6.1500 H   0  0  0  0  0  0
   22.4596   45.3877   -6.1655 H   0  0  0  0  0  0
   21.9769   45.5169   -7.8137 H   0  0  0  0  0  0
   20.7073   44.8999   -4.6197 H   0  0  0  0  0  0
   20.8619   47.1612   -5.4275 H   0  0  0  0  0  0
   20.6016   47.3746   -7.1366 H   0  0  0  0  0  0
   18.4178   46.9550   -5.0550 H   0  0  0  0  0  0
   18.7777   48.4361   -5.9065 H   0  0  0  0  0  0
   16.8599   47.2990   -6.9429 H   0  0  0  0  0  0
   18.1828   47.3783   -8.0739 H   0  0  0  0  0  0
   19.5991   45.2109   -8.5350 H   0  0  0  0  0  0
   19.2479   43.7825   -7.5994 H   0  0  0  0  0  0
   17.2647   42.9455   -7.9776 H   0  0  0  0  0  0
   16.8923   38.2001  -10.2583 H   0  0  0  0  0  0
   19.0602   38.1900  -11.4688 H   0  0  0  0  0  0
   21.1330   38.7993  -10.3293 H   0  0  0  0  0  0
  1  2  1  0  0  0
  1 41  1  0  0  0
  1 42  1  0  0  0
  1 43  1  0  0  0
  2  3  1  0  0  0
  2  4  1  0  0  0
  2 44  1  0  0  0
  3 45  1  0  0  0
  3 46  1  0  0  0
  3 47  1  0  0  0
  4 36  1  0  0  0
  4  5  2  0  0  0
  5  6  1  0  0  0
  5 48  1  0  0  0
  6  7  1  0  0  0
  6 34  2  0  0  0
  7  8  1  0  0  0
  7 49  1  0  0  0
  7 50  1  0  0  0
  8  9  1  0  0  0
  8 51  1  0  0  0
  9 10  1  0  0  0
  9 52  1  0  0  0
  9 53  1  0  0  0
 10 37  1  0  0  0
 10 11  1  0  0  0
 10 12  1  0  0  0
 11 54  1  0  0  0
 12 38  1  0  0  0
 12 33  1  0  0  0
 12 13  1  0  0  0
 13 14  1  0  0  0
 13 55  1  0  0  0
 13 56  1  0  0  0
 14 39  1  0  0  0
 14 15  1  0  0  0
 14 16  1  0  0  0
 15 57  1  0  0  0
 15 58  1  0  0  0
 15 59  1  0  0  0
 16 17  1  0  0  0
 16 60  1  0  0  0
 16 61  1  0  0  0
 17 18  1  0  0  0
 17 62  1  0  0  0
 17 63  1  0  0  0
 18 19  1  0  0  0
 18 64  1  0  0  0
 18 65  1  0  0  0
 19 20  1  0  0  0
 19 66  1  0  0  0
 19 67  1  0  0  0
 20 21  1  0  0  0
 20 68  1  0  0  0
 20 69  1  0  0  0
 21 22  1  0  0  0
 21 70  1  0  0  0
 21 71  1  0  0  0
 22 23  1  0  0  0
 22 72  1  0  0  0
 22 73  1  0  0  0
 23 24  1  0  0  0
 23 74  1  0  0  0
 23 75  1  0  0  0
 24 30  1  0  0  0
 24 25  1  0  0  0
 24 26  1  0  0  0
 25 76  1  0  0  0
 26 27  1  0  0  0
 26 77  1  0  0  0
 26 78  1  0  0  0
 27 28  1  0  0  0
 27 79  1  0  0  0
 27 80  1  0  0  0
 28 29  1  0  0  0
 28 81  1  0  0  0
 28 82  1  0  0  0
 29 40  1  0  0  0
 29 30  1  0  0  0
 29 31  1  0  0  0
 30 83  1  0  0  0
 30 84  1  0  0  0
 31 32  2  0  0  0
 31 33  1  0  0  0
 33 85  1  0  0  0
 34 35  1  0  0  0
 34 86  1  0  0  0
 35 36  2  0  0  0
 35 87  1  0  0  0
 36 88  1  0  0  0
M  END
> <s_m_source_file>
BACE_86.smi

> <i_m_source_file_index>
1

> <i_lp_mmshare_version>
42013

> <i_f3d_flags>
0

> <s_epik_input>
W0NIM11bQ0hdKFtDSDNdKWMxW2NIXWMoW2NIXVtjSF1bY0hdMSlbQ0gyXVtOSF1bQ0gyXVtDQEBIXShbT0hdKVtDQEBIXShbTkhdQyg9TylbQ0BASF0oW0NIMl0yKVtDSDJdW0NIMl1bQ0gyXTMpW0NIMl1bQ0BIXShbQ0gzXSlbQ0gyXVtDSDJdW0NIMl1bQ0gyXVtDSDJdW0NIMl1bQ0gyXVtDSDJdW0NAXTIzW09IXQ==

> <s_epik_cmdline>
J2VwaWtfcHl0aG9uJywgJy1waCcsICc3LjAnLCAnLXRuJywgJzgnLCAnLW1hJywgJzIwMCcsICctaW1hZScsICc8aW5maWxlLm1hZT4nLCAnLW9tYWUnLCAnPG91dGZpbGUubWFlPic=

> <r_epik_Ionization_Penalty>
  2.1143

> <r_epik_Ionization_Penalty_Charging>
  0.0000

> <r_epik_Ionization_Penalty_Neutral>
  2.1143

> <r_epik_State_Penalty>
  2.2515

> <r_epik_Charging_Adjusted_Penalty>
2.25147

> <i_epik_Tot_Q>
0

> <i_epik_Tot_abs_Q>
0

> <s_lp_Force_Field>
OPLS_2005

> <r_lp_Energy>
39.3638

> <b_lp_Chiralities_Consistent>
1

> <s_lp_Variant>
BACE_86.smi:1-2

> <chiral flag>
1

> <version>
0

> <s_i_glide_gridfile>
second_dock_grid_2

> <i_i_glide_lignum>
175

> <i_i_glide_rotatable_bonds>
8

> <r_i_docking_score>
-0.843681

> <r_i_glide_ligand_efficiency>
-0.0234356

> <r_i_glide_ligand_efficiency_sa>
-0.0773826

> <r_i_glide_ligand_efficiency_ln>
-0.184068

> <r_glide_XP_GScore>
-3.09518

> <r_i_glide_gscore>
-3.09518

> <r_i_glide_evdw>
-36.5685

> <r_i_glide_ecoul>
-6.67546

> <r_i_glide_energy>
-43.244

> <r_i_glide_einternal>
8.10588

> <r_i_glide_emodel>
-55.3987

> <r_glide_XP_HBond>
-0.256876

> <i_i_glide_confnum>
1

> <i_i_glide_posenum>
1

> <r_i_glide_eff_state_penalty>
2.2515

> <i_glide_XP_PoseRank>
1

$$$$
