BACE_48.smi:1
                    3D
 Structure written by MMmdl.
 88 90  0  0  1  0            999 V2000
   20.3737   44.3677  -10.7217 C   0  0  0  0  0  0
   21.8326   43.9606  -10.4429 C   0  0  2  0  0  0
   22.4143   43.0462  -11.5488 C   0  0  0  0  0  0
   21.6554   41.7397  -11.8391 C   0  0  0  0  0  0
   21.8221   40.8515  -10.7518 O   0  0  0  0  0  0
   21.1999   39.5922  -10.9382 C   0  0  0  0  0  0
   21.3929   38.7925   -9.6443 C   0  0  0  0  0  0
   20.6330   39.4230   -8.4689 C   0  0  0  0  0  0
   21.1680   38.9930   -7.0999 C   0  0  0  0  0  0
   20.5311   39.7461   -6.0311 N   0  0  0  0  0  0
   21.1989   40.8073   -5.4128 C   0  0  0  0  0  0
   22.1219   41.6296   -6.0962 C   0  0  0  0  0  0
   22.6927   42.7209   -5.4060 C   0  0  0  0  0  0
   22.3516   42.9148   -4.0523 C   0  0  0  0  0  0
   21.4191   42.0426   -3.4630 C   0  0  0  0  0  0
   20.9536   42.2553   -2.0395 C   0  0  0  0  0  0
   20.8599   41.0097   -4.1245 N   0  0  0  0  0  0
   23.6354   43.6776   -6.0738 C   0  0  0  0  0  0
   24.7755   43.8081   -5.6416 O   0  0  0  0  0  0
   23.2071   44.4382   -7.0974 N   0  0  0  0  0  0
   21.9649   44.4559   -7.8802 C   0  0  1  0  0  0
   22.0305   43.3919   -9.0174 C   0  0  0  0  0  0
   20.6537   44.5745   -7.0178 C   0  0  2  0  0  0
   19.6478   43.6768   -7.4387 O   0  0  0  0  0  0
   20.0308   45.9780   -7.0754 C   0  0  0  0  0  0
   20.8524   46.9591   -6.3546 N   0  0  0  0  0  0
   20.6735   48.3750   -6.7242 C   0  0  0  0  0  0
   21.2952   48.6081   -8.1195 C   0  0  0  0  0  0
   19.1708   48.7458   -6.7304 C   0  0  0  0  0  0
   21.3789   49.2468   -5.7008 C   0  0  0  0  0  0
   21.9779   48.8913   -4.4587 C   0  0  0  0  0  0
   22.3265   50.0867   -3.8907 C   0  0  0  0  0  0
   22.8740   50.5066   -2.5540 C   0  0  0  0  0  0
   24.3193   50.0579   -2.1748 C   0  0  0  0  0  0
   25.2918   51.2224   -2.4447 C   0  0  0  0  0  0
   24.8102   48.8223   -2.9601 C   0  0  0  0  0  0
   24.3688   49.7131   -0.6706 C   0  0  0  0  0  0
   22.0481   51.0878   -4.7551 O   0  0  0  0  0  0
   21.4448   50.5501   -5.8941 N   0  0  0  0  0  0
   22.4301   44.8730  -10.5055 H   0  0  0  0  0  0
   22.0629   45.4145   -8.3881 H   0  0  0  0  0  0
   20.8279   44.3529   -5.9677 H   0  0  0  0  0  0
   19.6887   43.5269  -10.5957 H   0  0  0  0  0  0
   20.2583   44.7449  -11.7384 H   0  0  0  0  0  0
   20.0464   45.1577  -10.0474 H   0  0  0  0  0  0
   22.4587   43.6274  -12.4667 H   0  0  0  0  0  0
   23.4518   42.8070  -11.3173 H   0  0  0  0  0  0
   20.5986   41.9272  -12.0240 H   0  0  0  0  0  0
   22.0597   41.2843  -12.7441 H   0  0  0  0  0  0
   20.1386   39.7124  -11.1592 H   0  0  0  0  0  0
   21.6593   39.0748  -11.7799 H   0  0  0  0  0  0
   21.0649   37.7612   -9.7800 H   0  0  0  0  0  0
   22.4594   38.7475   -9.4215 H   0  0  0  0  0  0
   20.6975   40.5052   -8.5365 H   0  0  0  0  0  0
   19.5721   39.1895   -8.5483 H   0  0  0  0  0  0
   20.9714   37.9327   -6.9403 H   0  0  0  0  0  0
   22.2511   39.1114   -7.0498 H   0  0  0  0  0  0
   19.8391   39.2660   -5.4740 H   0  0  0  0  0  0
   22.3796   41.4409   -7.1267 H   0  0  0  0  0  0
   22.7692   43.7382   -3.4922 H   0  0  0  0  0  0
   21.7865   42.5510   -1.4040 H   0  0  0  0  0  0
   20.5116   41.3468   -1.6321 H   0  0  0  0  0  0
   20.2011   43.0443   -2.0123 H   0  0  0  0  0  0
   23.9190   45.0680   -7.4389 H   0  0  0  0  0  0
   21.3288   42.5799   -8.8526 H   0  0  0  0  0  0
   23.0106   42.9115   -8.9920 H   0  0  0  0  0  0
   19.8531   42.8124   -7.1119 H   0  0  0  0  0  0
   19.8899   46.2533   -8.1165 H   0  0  0  0  0  0
   19.0335   45.9520   -6.6329 H   0  0  0  0  0  0
   21.8258   46.7168   -6.5017 H   0  0  0  0  0  0
   21.2077   49.6510   -8.4220 H   0  0  0  0  0  0
   20.8091   48.0210   -8.8976 H   0  0  0  0  0  0
   22.3554   48.3530   -8.1283 H   0  0  0  0  0  0
   19.0235   49.8045   -6.9314 H   0  0  0  0  0  0
   18.7114   48.5365   -5.7645 H   0  0  0  0  0  0
   18.6098   48.2066   -7.4957 H   0  0  0  0  0  0
   22.0602   47.9044   -4.0398 H   0  0  0  0  0  0
   22.7894   51.5904   -2.4535 H   0  0  0  0  0  0
   22.1745   50.1508   -1.8015 H   0  0  0  0  0  0
   26.3163   50.9503   -2.1900 H   0  0  0  0  0  0
   25.0380   52.1052   -1.8586 H   0  0  0  0  0  0
   25.2829   51.5097   -3.4963 H   0  0  0  0  0  0
   24.8526   49.0106   -4.0337 H   0  0  0  0  0  0
   24.1626   47.9606   -2.7943 H   0  0  0  0  0  0
   25.8155   48.5303   -2.6529 H   0  0  0  0  0  0
   25.3796   49.4489   -0.3570 H   0  0  0  0  0  0
   23.7296   48.8601   -0.4417 H   0  0  0  0  0  0
   24.0479   50.5496   -0.0482 H   0  0  0  0  0  0
  1  2  1  0  0  0
  1 43  1  0  0  0
  1 44  1  0  0  0
  1 45  1  0  0  0
  2 40  1  0  0  0
  2 22  1  0  0  0
  2  3  1  0  0  0
  3  4  1  0  0  0
  3 46  1  0  0  0
  3 47  1  0  0  0
  4  5  1  0  0  0
  4 48  1  0  0  0
  4 49  1  0  0  0
  5  6  1  0  0  0
  6  7  1  0  0  0
  6 50  1  0  0  0
  6 51  1  0  0  0
  7  8  1  0  0  0
  7 52  1  0  0  0
  7 53  1  0  0  0
  8  9  1  0  0  0
  8 54  1  0  0  0
  8 55  1  0  0  0
  9 10  1  0  0  0
  9 56  1  0  0  0
  9 57  1  0  0  0
 10 11  1  0  0  0
 10 58  1  0  0  0
 11 17  1  0  0  0
 11 12  2  0  0  0
 12 13  1  0  0  0
 12 59  1  0  0  0
 13 14  2  0  0  0
 13 18  1  0  0  0
 14 15  1  0  0  0
 14 60  1  0  0  0
 15 16  1  0  0  0
 15 17  2  0  0  0
 16 61  1  0  0  0
 16 62  1  0  0  0
 16 63  1  0  0  0
 18 19  2  0  0  0
 18 20  1  0  0  0
 20 21  1  0  0  0
 20 64  1  0  0  0
 21 41  1  0  0  0
 21 22  1  0  0  0
 21 23  1  0  0  0
 22 65  1  0  0  0
 22 66  1  0  0  0
 23 42  1  0  0  0
 23 24  1  0  0  0
 23 25  1  0  0  0
 24 67  1  0  0  0
 25 26  1  0  0  0
 25 68  1  0  0  0
 25 69  1  0  0  0
 26 27  1  0  0  0
 26 70  1  0  0  0
 27 28  1  0  0  0
 27 29  1  0  0  0
 27 30  1  0  0  0
 28 71  1  0  0  0
 28 72  1  0  0  0
 28 73  1  0  0  0
 29 74  1  0  0  0
 29 75  1  0  0  0
 29 76  1  0  0  0
 30 39  2  0  0  0
 30 31  1  0  0  0
 31 32  2  0  0  0
 31 77  1  0  0  0
 32 33  1  0  0  0
 32 38  1  0  0  0
 33 34  1  0  0  0
 33 78  1  0  0  0
 33 79  1  0  0  0
 34 35  1  0  0  0
 34 36  1  0  0  0
 34 37  1  0  0  0
 35 80  1  0  0  0
 35 81  1  0  0  0
 35 82  1  0  0  0
 36 83  1  0  0  0
 36 84  1  0  0  0
 36 85  1  0  0  0
 37 86  1  0  0  0
 37 87  1  0  0  0
 37 88  1  0  0  0
 38 39  1  0  0  0
M  END
> <s_m_source_file>
BACE_48.smi

> <i_m_source_file_index>
1

> <i_lp_mmshare_version>
42013

> <i_f3d_flags>
0

> <s_epik_input>
W05IXTFbQ0gyXVtDSDJdW0NIMl1bQ0gyXU9bQ0gyXVtDSDJdW0NAQEhdKFtDSDNdKVtDSDJdW0NASF0oW05IXUMoPU8pYyhbY0hdYzEyKVtjSF1jKG4yKVtDSDNdKVtDQEhdKFtPSF0pW0NIMl1bTkhdQyhbQ0gzXSkoW0NIM10pYzNbY0hdYyhvbjMpW0NIMl1DKFtDSDNdKShbQ0gzXSlbQ0gzXQ==

> <s_epik_cmdline>
J2VwaWtfcHl0aG9uJywgJy1waCcsICc3LjAnLCAnLXRuJywgJzgnLCAnLW1hJywgJzIwMCcsICctaW1hZScsICc8aW5maWxlLm1hZT4nLCAnLW9tYWUnLCAnPG91dGZpbGUubWFlPic=

> <r_lp_tautomer_probability>
1

> <r_epik_Ionization_Penalty>
  0.7157

> <r_epik_Ionization_Penalty_Charging>
  0.0000

> <r_epik_Ionization_Penalty_Neutral>
  0.7157

> <r_epik_State_Penalty>
  0.7724

> <r_epik_Charging_Adjusted_Penalty>
0.772402

> <i_epik_Tot_Q>
0

> <i_epik_Tot_abs_Q>
0

> <s_lp_Force_Field>
OPLS_2005

> <r_lp_Energy>
39.7757

> <b_lp_Chiralities_Consistent>
1

> <s_lp_Variant>
BACE_48.smi:1-2

> <chiral flag>
1

> <version>
0

> <s_i_glide_gridfile>
second_dock_grid_2

> <i_i_glide_lignum>
91

> <i_i_glide_rotatable_bonds>
8

> <r_i_docking_score>
-2.29165

> <r_i_glide_ligand_efficiency>
-0.0587604

> <r_i_glide_ligand_efficiency_sa>
-0.199269

> <r_i_glide_ligand_efficiency_ln>
-0.491396

> <r_glide_XP_GScore>
-3.06405

> <r_i_glide_gscore>
-3.06405

> <r_i_glide_evdw>
-42.6209

> <r_i_glide_ecoul>
-1.33391

> <r_i_glide_energy>
-43.9548

> <r_i_glide_einternal>
9.22492

> <r_i_glide_emodel>
-53.4009

> <r_glide_XP_HBond>
-0.572563

> <i_i_glide_confnum>
1

> <i_i_glide_posenum>
4

> <r_i_glide_eff_state_penalty>
0.7724

> <i_glide_XP_PoseRank>
1

$$$$
BACE_48.smi:1
                    3D
 Structure written by MMmdl.
 90 92  0  0  1  0            999 V2000
   18.5974   45.8751  -11.3094 C   0  0  0  0  0  0
   19.6052   45.2426  -10.3359 C   0  0  2  0  0  0
   20.8646   44.7382  -11.0788 C   0  0  0  0  0  0
   21.9743   45.7831  -11.2715 C   0  0  0  0  0  0
   22.7491   45.8495  -10.0807 O   0  0  0  0  0  0
   23.8885   46.6877  -10.2039 C   0  0  0  0  0  0
   24.7446   46.6423   -8.9230 C   0  0  0  0  0  0
   25.4637   45.2970   -8.6693 C   0  0  0  0  0  0
   24.7627   44.3765   -7.6546 C   0  0  0  0  0  0
   23.4555   43.9654   -8.1373 N   0  0  0  0  0  0
   22.4430   43.9626   -7.1758 C   0  0  0  0  0  0
   21.3104   44.7825   -7.3217 C   0  0  0  0  0  0
   20.2726   44.7335   -6.3705 C   0  0  0  0  0  0
   20.4416   43.8989   -5.2400 C   0  0  0  0  0  0
   21.6079   43.1126   -5.1222 C   0  0  0  0  0  0
   21.8474   42.1910   -3.9449 C   0  0  0  0  0  0
   22.5528   43.1717   -6.0867 N   0  3  0  0  0  0
   19.0735   45.6326   -6.5044 C   0  0  0  0  0  0
   18.8601   46.4778   -5.6399 O   0  0  0  0  0  0
   18.2648   45.5537   -7.5833 N   0  0  0  0  0  0
   17.9158   44.4268   -8.4661 C   0  0  1  0  0  0
   18.9837   44.0758   -9.5338 C   0  0  0  0  0  0
   17.3936   43.2152   -7.6445 C   0  0  2  0  0  0
   18.5080   42.4651   -7.2400 O   0  0  0  0  0  0
   16.4912   42.2236   -8.4021 C   0  0  0  0  0  0
   15.9933   41.1591   -7.4889 N   0  3  0  0  0  0
   15.7961   39.8047   -8.0685 C   0  0  0  0  0  0
   15.1381   38.9500   -6.9753 C   0  0  0  0  0  0
   14.8460   39.8871   -9.2883 C   0  0  0  0  0  0
   17.1580   39.2271   -8.4630 C   0  0  0  0  0  0
   18.3947   39.3316   -7.7655 C   0  0  0  0  0  0
   19.3054   38.7158   -8.5734 C   0  0  0  0  0  0
   20.7954   38.5416   -8.4776 C   0  0  0  0  0  0
   21.6840   39.7442   -8.9311 C   0  0  0  0  0  0
   22.9220   39.8547   -8.0152 C   0  0  0  0  0  0
   20.9550   41.0943   -8.8702 C   0  0  0  0  0  0
   22.1578   39.5285  -10.3785 C   0  0  0  0  0  0
   18.6777   38.2079   -9.6637 O   0  0  0  0  0  0
   17.3098   38.4991   -9.5618 N   0  0  0  0  0  0
   19.9059   46.0300   -9.6487 H   0  0  0  0  0  0
   17.0532   44.8064   -9.0135 H   0  0  0  0  0  0
   16.8596   43.5792   -6.7704 H   0  0  0  0  0  0
   18.2227   45.1451  -12.0275 H   0  0  0  0  0  0
   19.0563   46.6875  -11.8742 H   0  0  0  0  0  0
   17.7405   46.2915  -10.7798 H   0  0  0  0  0  0
   21.3136   43.8875  -10.5672 H   0  0  0  0  0  0
   20.5572   44.3396  -12.0401 H   0  0  0  0  0  0
   22.6132   45.4694  -12.0990 H   0  0  0  0  0  0
   21.5600   46.7586  -11.5297 H   0  0  0  0  0  0
   24.4931   46.3892  -11.0615 H   0  0  0  0  0  0
   23.5580   47.7111  -10.3864 H   0  0  0  0  0  0
   25.5100   47.4129   -9.0230 H   0  0  0  0  0  0
   24.1496   46.9334   -8.0569 H   0  0  0  0  0  0
   25.6334   44.7696   -9.6100 H   0  0  0  0  0  0
   26.4583   45.5136   -8.2776 H   0  0  0  0  0  0
   25.3651   43.4834   -7.4875 H   0  0  0  0  0  0
   24.6779   44.8895   -6.6946 H   0  0  0  0  0  0
   23.2040   44.4857   -8.9715 H   0  0  0  0  0  0
   21.2503   45.4591   -8.1545 H   0  0  0  0  0  0
   19.6863   43.8490   -4.4694 H   0  0  0  0  0  0
   20.9549   42.1075   -3.3233 H   0  0  0  0  0  0
   22.6612   42.5715   -3.3260 H   0  0  0  0  0  0
   22.1126   41.1902   -4.2903 H   0  0  0  0  0  0
   17.5997   46.3109   -7.6295 H   0  0  0  0  0  0
   18.5662   43.3516  -10.2340 H   0  0  0  0  0  0
   19.7921   43.5453   -9.0410 H   0  0  0  0  0  0
   18.3502   42.1017   -6.3675 H   0  0  0  0  0  0
   15.6325   42.7365   -8.8343 H   0  0  0  0  0  0
   17.0490   41.7925   -9.2345 H   0  0  0  0  0  0
   16.6749   41.0429   -6.7508 H   0  0  0  0  0  0
   15.0013   37.9190   -7.2990 H   0  0  0  0  0  0
   14.1522   39.3316   -6.7058 H   0  0  0  0  0  0
   15.7312   38.9501   -6.0557 H   0  0  0  0  0  0
   14.6071   38.8915   -9.6663 H   0  0  0  0  0  0
   15.2796   40.4475  -10.1168 H   0  0  0  0  0  0
   13.8989   40.3583   -9.0334 H   0  0  0  0  0  0
   18.6138   39.8256   -6.8389 H   0  0  0  0  0  0
   21.0118   38.3154   -7.4331 H   0  0  0  0  0  0
   21.0898   37.6411   -9.0170 H   0  0  0  0  0  0
   23.5692   40.6794   -8.3174 H   0  0  0  0  0  0
   23.5273   38.9503   -8.0394 H   0  0  0  0  0  0
   22.6365   40.0269   -6.9759 H   0  0  0  0  0  0
   20.6703   41.3221   -7.8439 H   0  0  0  0  0  0
   20.0606   41.1143   -9.4942 H   0  0  0  0  0  0
   21.6015   41.9023   -9.2128 H   0  0  0  0  0  0
   22.6981   40.3984  -10.7587 H   0  0  0  0  0  0
   21.3229   39.3369  -11.0554 H   0  0  0  0  0  0
   22.8491   38.6890  -10.4396 H   0  0  0  0  0  0
   15.1350   41.4636   -7.0443 H   0  0  0  0  0  0
   23.3850   42.5900   -5.9881 H   0  0  0  0  0  0
  1  2  1  0  0  0
  1 43  1  0  0  0
  1 44  1  0  0  0
  1 45  1  0  0  0
  2 40  1  0  0  0
  2 22  1  0  0  0
  2  3  1  0  0  0
  3  4  1  0  0  0
  3 46  1  0  0  0
  3 47  1  0  0  0
  4  5  1  0  0  0
  4 48  1  0  0  0
  4 49  1  0  0  0
  5  6  1  0  0  0
  6  7  1  0  0  0
  6 50  1  0  0  0
  6 51  1  0  0  0
  7  8  1  0  0  0
  7 52  1  0  0  0
  7 53  1  0  0  0
  8  9  1  0  0  0
  8 54  1  0  0  0
  8 55  1  0  0  0
  9 10  1  0  0  0
  9 56  1  0  0  0
  9 57  1  0  0  0
 10 11  1  0  0  0
 10 58  1  0  0  0
 11 17  1  0  0  0
 11 12  2  0  0  0
 12 13  1  0  0  0
 12 59  1  0  0  0
 13 14  2  0  0  0
 13 18  1  0  0  0
 14 15  1  0  0  0
 14 60  1  0  0  0
 15 16  1  0  0  0
 15 17  2  0  0  0
 16 61  1  0  0  0
 16 62  1  0  0  0
 16 63  1  0  0  0
 17 90  1  0  0  0
 18 19  2  0  0  0
 18 20  1  0  0  0
 20 21  1  0  0  0
 20 64  1  0  0  0
 21 41  1  0  0  0
 21 22  1  0  0  0
 21 23  1  0  0  0
 22 65  1  0  0  0
 22 66  1  0  0  0
 23 42  1  0  0  0
 23 24  1  0  0  0
 23 25  1  0  0  0
 24 67  1  0  0  0
 25 26  1  0  0  0
 25 68  1  0  0  0
 25 69  1  0  0  0
 26 27  1  0  0  0
 26 70  1  0  0  0
 26 89  1  0  0  0
 27 28  1  0  0  0
 27 29  1  0  0  0
 27 30  1  0  0  0
 28 71  1  0  0  0
 28 72  1  0  0  0
 28 73  1  0  0  0
 29 74  1  0  0  0
 29 75  1  0  0  0
 29 76  1  0  0  0
 30 39  2  0  0  0
 30 31  1  0  0  0
 31 32  2  0  0  0
 31 77  1  0  0  0
 32 33  1  0  0  0
 32 38  1  0  0  0
 33 34  1  0  0  0
 33 78  1  0  0  0
 33 79  1  0  0  0
 34 35  1  0  0  0
 34 36  1  0  0  0
 34 37  1  0  0  0
 35 80  1  0  0  0
 35 81  1  0  0  0
 35 82  1  0  0  0
 36 83  1  0  0  0
 36 84  1  0  0  0
 36 85  1  0  0  0
 37 86  1  0  0  0
 37 87  1  0  0  0
 37 88  1  0  0  0
 38 39  1  0  0  0
M  CHG  2  17   1  26   1
M  END
> <s_m_source_file>
BACE_48.smi

> <i_m_source_file_index>
1

> <i_lp_mmshare_version>
42013

> <i_f3d_flags>
0

> <s_epik_input>
W05IXTFbQ0gyXVtDSDJdW0NIMl1bQ0gyXU9bQ0gyXVtDSDJdW0NAQEhdKFtDSDNdKVtDSDJdW0NASF0oW05IXUMoPU8pYyhbY0hdYzEyKVtjSF1jKG4yKVtDSDNdKVtDQEhdKFtPSF0pW0NIMl1bTkhdQyhbQ0gzXSkoW0NIM10pYzNbY0hdYyhvbjMpW0NIMl1DKFtDSDNdKShbQ0gzXSlbQ0gzXQ==

> <s_epik_cmdline>
J2VwaWtfcHl0aG9uJywgJy1waCcsICc3LjAnLCAnLXRuJywgJzgnLCAnLW1hJywgJzIwMCcsICctaW1hZScsICc8aW5maWxlLm1hZT4nLCAnLW9tYWUnLCAnPG91dGZpbGUubWFlPic=

> <r_lp_tautomer_probability>
0.999994

> <r_epik_Ionization_Penalty>
  2.6235

> <r_epik_Ionization_Penalty_Charging>
  2.6235

> <r_epik_Ionization_Penalty_Neutral>
  0.0000

> <r_epik_State_Penalty>
  2.6864

> <r_epik_Charging_Adjusted_Penalty>
5.30987

> <i_epik_Tot_Q>
2

> <i_epik_Tot_abs_Q>
2

> <s_lp_Force_Field>
OPLS_2005

> <r_lp_Energy>
44.8214

> <b_lp_Chiralities_Consistent>
1

> <s_lp_Variant>
BACE_48.smi:1-3

> <chiral flag>
1

> <version>
0

> <s_i_glide_gridfile>
second_dock_grid_2

> <i_i_glide_lignum>
92

> <i_i_glide_rotatable_bonds>
8

> <r_i_docking_score>
-3.06928

> <r_i_glide_ligand_efficiency>
-0.0786996

> <r_i_glide_ligand_efficiency_sa>
-0.266887

> <r_i_glide_ligand_efficiency_ln>
-0.658141

> <r_glide_XP_GScore>
-5.75568

> <r_i_glide_gscore>
-5.75568

> <r_i_glide_evdw>
-33.2735

> <r_i_glide_ecoul>
-17.5122

> <r_i_glide_energy>
-50.7857

> <r_i_glide_einternal>
9.38664

> <r_i_glide_emodel>
-66.317

> <r_glide_XP_HBond>
-0.807719

> <i_i_glide_confnum>
1

> <i_i_glide_posenum>
4

> <r_i_glide_eff_state_penalty>
2.6864

> <i_glide_XP_PoseRank>
1

$$$$
BACE_49.smi:1
                    3D
 Structure written by MMmdl.
 76 78  0  0  1  0            999 V2000
   24.1370   43.7805   -5.7919 C   0  0  0  0  0  0
   23.0342   44.3583   -4.8907 C   0  0  0  0  0  0
   22.5155   43.3125   -3.8923 C   0  0  0  0  0  0
   21.9054   44.9708   -5.7112 C   0  0  0  0  0  0
   22.0457   46.2708   -6.2430 C   0  0  0  0  0  0
   21.0164   46.8364   -7.0195 C   0  0  0  0  0  0
   19.8404   46.1056   -7.2724 C   0  0  0  0  0  0
   19.6873   44.8086   -6.7410 C   0  0  0  0  0  0
   18.4212   44.0224   -7.0119 C   0  0  0  0  0  0
   18.0989   44.0383   -8.4506 N   0  3  0  0  0  0
   17.4255   42.8150   -8.9292 C   0  0  0  0  0  0
   16.2099   42.4715   -8.0401 C   0  0  1  0  0  0
   15.2390   43.4705   -8.2929 O   0  0  0  0  0  0
   15.5762   41.0732   -8.3031 C   0  0  2  0  0  0
   16.5984   39.9370   -8.1795 C   0  0  0  0  0  0
   16.5438   38.6592   -8.6170 C   0  0  0  0  0  0
   15.3839   38.0395   -9.3824 C   0  0  0  0  0  0
   17.6892   37.6991   -8.3288 C   0  0  0  0  0  0
   18.5925   37.4162   -9.5445 C   0  0  0  0  0  0
   19.4305   38.5088   -9.9079 O   0  0  0  0  0  0
   20.3780   38.8939   -8.9198 C   0  0  0  0  0  0
   21.6183   39.5526   -9.5469 C   0  0  0  0  0  0
   21.3976   40.9483  -10.1639 C   0  0  0  0  0  0
   21.0607   40.9381  -11.6662 C   0  0  0  0  0  0
   19.6900   40.5269  -11.9345 N   0  0  0  0  0  0
   18.6421   41.4299  -11.7134 C   0  0  0  0  0  0
   17.3791   40.9187  -11.3560 C   0  0  0  0  0  0
   16.3141   41.8212  -11.1679 C   0  0  0  0  0  0
   16.5471   43.1967  -11.3707 C   0  0  0  0  0  0
   17.8491   43.6181  -11.7011 C   0  0  0  0  0  0
   18.1547   45.3048  -11.8830 Cl  0  0  0  0  0  0
   18.8737   42.7551  -11.8652 N   0  0  0  0  0  0
   14.9533   41.3356  -10.7844 C   0  0  0  0  0  0
   14.0725   41.2639  -11.6372 O   0  0  0  0  0  0
   14.7177   41.0127   -9.4971 N   0  0  0  0  0  0
   20.7182   44.2465   -5.9588 C   0  0  0  0  0  0
   16.4856   42.5523   -6.9889 H   0  0  0  0  0  0
   14.8802   40.8991   -7.4814 H   0  0  0  0  0  0
   24.5382   44.5451   -6.4579 H   0  0  0  0  0  0
   23.7664   42.9618   -6.4093 H   0  0  0  0  0  0
   24.9659   43.3953   -5.1975 H   0  0  0  0  0  0
   23.4879   45.1588   -4.3050 H   0  0  0  0  0  0
   21.7658   43.7433   -3.2279 H   0  0  0  0  0  0
   23.3252   42.9313   -3.2695 H   0  0  0  0  0  0
   22.0639   42.4601   -4.4001 H   0  0  0  0  0  0
   22.9463   46.8396   -6.0623 H   0  0  0  0  0  0
   21.1317   47.8310   -7.4248 H   0  0  0  0  0  0
   19.0565   46.5442   -7.8724 H   0  0  0  0  0  0
   18.5463   42.9931   -6.6728 H   0  0  0  0  0  0
   17.5948   44.4517   -6.4435 H   0  0  0  0  0  0
   17.4947   44.8267   -8.6339 H   0  0  0  0  0  0
   17.1230   42.9317   -9.9711 H   0  0  0  0  0  0
   18.1687   42.0193   -8.9115 H   0  0  0  0  0  0
   14.8626   43.7441   -7.4699 H   0  0  0  0  0  0
   17.4902   40.2136   -7.6362 H   0  0  0  0  0  0
   15.2641   36.9895   -9.1152 H   0  0  0  0  0  0
   15.5650   38.0943  -10.4560 H   0  0  0  0  0  0
   14.4338   38.5210   -9.1591 H   0  0  0  0  0  0
   18.2792   38.0599   -7.4864 H   0  0  0  0  0  0
   17.2587   36.7597   -7.9808 H   0  0  0  0  0  0
   19.2180   36.5453   -9.3437 H   0  0  0  0  0  0
   17.9824   37.1517  -10.4086 H   0  0  0  0  0  0
   19.9109   39.5693   -8.2023 H   0  0  0  0  0  0
   20.7117   38.0178   -8.3612 H   0  0  0  0  0  0
   22.3549   39.6619   -8.7501 H   0  0  0  0  0  0
   22.0757   38.8802  -10.2733 H   0  0  0  0  0  0
   20.6597   41.5161   -9.5956 H   0  0  0  0  0  0
   22.3319   41.5000  -10.0565 H   0  0  0  0  0  0
   21.2460   41.9231  -12.0950 H   0  0  0  0  0  0
   21.7328   40.2598  -12.1919 H   0  0  0  0  0  0
   19.4834   39.5506  -11.7754 H   0  0  0  0  0  0
   17.2295   39.8553  -11.2362 H   0  0  0  0  0  0
   15.7516   43.9179  -11.2530 H   0  0  0  0  0  0
   13.7813   40.6822   -9.3130 H   0  0  0  0  0  0
   20.6021   43.2519   -5.5535 H   0  0  0  0  0  0
   18.9554   44.1624   -8.9716 H   0  0  0  0  0  0
  1  2  1  0  0  0
  1 39  1  0  0  0
  1 40  1  0  0  0
  1 41  1  0  0  0
  2  3  1  0  0  0
  2  4  1  0  0  0
  2 42  1  0  0  0
  3 43  1  0  0  0
  3 44  1  0  0  0
  3 45  1  0  0  0
  4 36  1  0  0  0
  4  5  2  0  0  0
  5  6  1  0  0  0
  5 46  1  0  0  0
  6  7  2  0  0  0
  6 47  1  0  0  0
  7  8  1  0  0  0
  7 48  1  0  0  0
  8  9  1  0  0  0
  8 36  2  0  0  0
  9 10  1  0  0  0
  9 49  1  0  0  0
  9 50  1  0  0  0
 10 11  1  0  0  0
 10 51  1  0  0  0
 10 76  1  0  0  0
 11 12  1  0  0  0
 11 52  1  0  0  0
 11 53  1  0  0  0
 12 37  1  0  0  0
 12 13  1  0  0  0
 12 14  1  0  0  0
 13 54  1  0  0  0
 14 38  1  0  0  0
 14 35  1  0  0  0
 14 15  1  0  0  0
 15 16  2  0  0  0
 15 55  1  0  0  0
 16 17  1  0  0  0
 16 18  1  0  0  0
 17 56  1  0  0  0
 17 57  1  0  0  0
 17 58  1  0  0  0
 18 19  1  0  0  0
 18 59  1  0  0  0
 18 60  1  0  0  0
 19 20  1  0  0  0
 19 61  1  0  0  0
 19 62  1  0  0  0
 20 21  1  0  0  0
 21 22  1  0  0  0
 21 63  1  0  0  0
 21 64  1  0  0  0
 22 23  1  0  0  0
 22 65  1  0  0  0
 22 66  1  0  0  0
 23 24  1  0  0  0
 23 67  1  0  0  0
 23 68  1  0  0  0
 24 25  1  0  0  0
 24 69  1  0  0  0
 24 70  1  0  0  0
 25 26  1  0  0  0
 25 71  1  0  0  0
 26 32  1  0  0  0
 26 27  2  0  0  0
 27 28  1  0  0  0
 27 72  1  0  0  0
 28 29  2  0  0  0
 28 33  1  0  0  0
 29 30  1  0  0  0
 29 73  1  0  0  0
 30 31  1  0  0  0
 30 32  2  0  0  0
 33 34  2  0  0  0
 33 35  1  0  0  0
 35 74  1  0  0  0
 36 75  1  0  0  0
M  CHG  1  10   1
M  END
> <s_m_source_file>
BACE_49.smi

> <i_m_source_file_index>
1

> <i_lp_mmshare_version>
42013

> <i_f3d_flags>
0

> <s_epik_input>
W0NIM11bQ0hdKFtDSDNdKWMxW2NIXVtjSF1bY0hdYyhbY0hdMSlbQ0gyXVtOSF1bQ0gyXVtDQEBIXShbT0hdKVtDQEBIXShbTkhdQyg9TyljKFtjSF1jMjMpW2NIXWMoQ2wpbjMpL1tDSF09QyhcW0NIM10pW0NIMl1bQ0gyXU9bQ0gyXVtDSDJdW0NIMl1bQ0gyXVtOSF0y

> <s_epik_cmdline>
J2VwaWtfcHl0aG9uJywgJy1waCcsICc3LjAnLCAnLXRuJywgJzgnLCAnLW1hJywgJzIwMCcsICctaW1hZScsICc8aW5maWxlLm1hZT4nLCAnLW9tYWUnLCAnPG91dGZpbGUubWFlPic=

> <r_lp_tautomer_probability>
1

> <r_epik_Ionization_Penalty>
  0.0202

> <r_epik_Ionization_Penalty_Charging>
  0.0202

> <r_epik_Ionization_Penalty_Neutral>
  0.0000

> <r_epik_State_Penalty>
  0.0162

> <r_epik_Charging_Adjusted_Penalty>
0.036331

> <i_epik_Tot_Q>
1

> <i_epik_Tot_abs_Q>
1

> <s_lp_Force_Field>
OPLS_2005

> <r_lp_Energy>
29.4908

> <b_lp_Chiralities_Consistent>
1

> <s_lp_Variant>
BACE_49.smi:1-1

> <chiral flag>
1

> <version>
0

> <s_i_glide_gridfile>
second_dock_grid_2

> <i_i_glide_lignum>
93

> <i_i_glide_rotatable_bonds>
7

> <r_i_docking_score>
-3.8996

> <r_i_glide_ligand_efficiency>
-0.108322

> <r_i_glide_ligand_efficiency_sa>
-0.357672

> <r_i_glide_ligand_efficiency_ln>
-0.850787

> <r_glide_XP_GScore>
-3.9158

> <r_i_glide_gscore>
-3.9158

> <r_i_glide_evdw>
-37.2532

> <r_i_glide_ecoul>
-16.0777

> <r_i_glide_energy>
-53.3309

> <r_i_glide_einternal>
11.8809

> <r_i_glide_emodel>
-75.5172

> <r_glide_XP_HBond>
-0.175851

> <i_i_glide_confnum>
1

> <i_i_glide_posenum>
8

> <r_i_glide_eff_state_penalty>
0.0162

> <i_glide_XP_PoseRank>
1

$$$$
BACE_49.smi:1
                    3D
 Structure written by MMmdl.
 75 77  0  0  1  0            999 V2000
   22.4633   43.0438   -2.8283 C   0  0  0  0  0  0
   21.1785   42.4523   -3.4290 C   0  0  0  0  0  0
   20.5982   41.3389   -2.5434 C   0  0  0  0  0  0
   21.3944   41.9798   -4.8612 C   0  0  0  0  0  0
   22.2185   40.8668   -5.1380 C   0  0  0  0  0  0
   22.4167   40.4422   -6.4657 C   0  0  0  0  0  0
   21.7963   41.1291   -7.5264 C   0  0  0  0  0  0
   20.9743   42.2434   -7.2618 C   0  0  0  0  0  0
   20.3130   42.9888   -8.4081 C   0  0  0  0  0  0
   18.9948   43.5195   -8.0683 N   0  0  0  0  0  0
   17.8847   42.8426   -8.7371 C   0  0  0  0  0  0
   16.6332   42.8240   -7.8329 C   0  0  1  0  0  0
   15.9343   44.0231   -8.1149 O   0  0  0  0  0  0
   15.6637   41.6283   -8.0732 C   0  0  2  0  0  0
   16.3917   40.2791   -8.0342 C   0  0  0  0  0  0
   16.0507   39.0735   -8.5424 C   0  0  0  0  0  0
   14.7764   38.7660   -9.3155 C   0  0  0  0  0  0
   16.9655   37.8741   -8.3394 C   0  0  0  0  0  0
   17.7742   37.4849   -9.5917 C   0  0  0  0  0  0
   18.7958   38.4157   -9.9343 O   0  0  0  0  0  0
   19.8121   38.5836   -8.9542 C   0  0  0  0  0  0
   21.1383   39.0429   -9.5837 C   0  0  0  0  0  0
   21.1499   40.4736  -10.1593 C   0  0  0  0  0  0
   20.7912   40.5659  -11.6544 C   0  0  0  0  0  0
   19.3632   40.4257  -11.9011 N   0  0  0  0  0  0
   18.5179   41.5131  -11.6455 C   0  0  0  0  0  0
   17.2075   41.2542  -11.1979 C   0  0  0  0  0  0
   16.3457   42.3443  -10.9661 C   0  0  0  0  0  0
   16.8189   43.6469  -11.2203 C   0  0  0  0  0  0
   18.1503   43.8112  -11.6473 C   0  0  0  0  0  0
   18.7474   45.4067  -11.9150 Cl  0  0  0  0  0  0
   18.9820   42.7679  -11.8530 N   0  0  0  0  0  0
   14.9437   42.1356  -10.4900 C   0  0  0  0  0  0
   14.0090   42.2903  -11.2724 O   0  0  0  0  0  0
   14.7347   41.8088   -9.1994 N   0  0  0  0  0  0
   20.7710   42.6605   -5.9290 C   0  0  0  0  0  0
   16.9266   42.8468   -6.7829 H   0  0  0  0  0  0
   15.0011   41.6012   -7.2071 H   0  0  0  0  0  0
   22.8335   43.8706   -3.4353 H   0  0  0  0  0  0
   23.2565   42.2989   -2.7597 H   0  0  0  0  0  0
   22.2846   43.4281   -1.8237 H   0  0  0  0  0  0
   20.4406   43.2555   -3.4542 H   0  0  0  0  0  0
   19.6602   40.9624   -2.9526 H   0  0  0  0  0  0
   20.3934   41.7071   -1.5378 H   0  0  0  0  0  0
   21.2847   40.4969   -2.4521 H   0  0  0  0  0  0
   22.7034   40.3340   -4.3334 H   0  0  0  0  0  0
   23.0471   39.5896   -6.6710 H   0  0  0  0  0  0
   21.9564   40.7991   -8.5424 H   0  0  0  0  0  0
   20.9637   43.7928   -8.7549 H   0  0  0  0  0  0
   20.2179   42.2936   -9.2426 H   0  0  0  0  0  0
   18.8584   43.4715   -7.0635 H   0  0  0  0  0  0
   17.6509   43.3186   -9.6903 H   0  0  0  0  0  0
   18.2022   41.8302   -8.9808 H   0  0  0  0  0  0
   15.2750   44.1498   -7.4500 H   0  0  0  0  0  0
   17.3275   40.3149   -7.4962 H   0  0  0  0  0  0
   14.4418   37.7479   -9.1155 H   0  0  0  0  0  0
   14.9494   38.8566  -10.3880 H   0  0  0  0  0  0
   13.9517   39.4172   -9.0329 H   0  0  0  0  0  0
   17.6305   38.0481   -7.4935 H   0  0  0  0  0  0
   16.3488   37.0274   -8.0365 H   0  0  0  0  0  0
   18.2277   36.5038   -9.4459 H   0  0  0  0  0  0
   17.1074   37.3819  -10.4482 H   0  0  0  0  0  0
   19.4844   39.2983   -8.1987 H   0  0  0  0  0  0
   19.9940   37.6383   -8.4403 H   0  0  0  0  0  0
   21.8915   39.0018   -8.7959 H   0  0  0  0  0  0
   21.4671   38.3252  -10.3360 H   0  0  0  0  0  0
   20.5307   41.1427   -9.5603 H   0  0  0  0  0  0
   22.1670   40.8533  -10.0580 H   0  0  0  0  0  0
   21.1513   41.5094  -12.0648 H   0  0  0  0  0  0
   21.3146   39.7883  -12.2108 H   0  0  0  0  0  0
   18.9771   39.5124  -11.7071 H   0  0  0  0  0  0
   16.8709   40.2399  -11.0426 H   0  0  0  0  0  0
   16.1841   44.5075  -11.0657 H   0  0  0  0  0  0
   13.7639   41.6851   -8.9518 H   0  0  0  0  0  0
   20.1382   43.5127   -5.7281 H   0  0  0  0  0  0
  1  2  1  0  0  0
  1 39  1  0  0  0
  1 40  1  0  0  0
  1 41  1  0  0  0
  2  3  1  0  0  0
  2  4  1  0  0  0
  2 42  1  0  0  0
  3 43  1  0  0  0
  3 44  1  0  0  0
  3 45  1  0  0  0
  4 36  1  0  0  0
  4  5  2  0  0  0
  5  6  1  0  0  0
  5 46  1  0  0  0
  6  7  2  0  0  0
  6 47  1  0  0  0
  7  8  1  0  0  0
  7 48  1  0  0  0
  8  9  1  0  0  0
  8 36  2  0  0  0
  9 10  1  0  0  0
  9 49  1  0  0  0
  9 50  1  0  0  0
 10 11  1  0  0  0
 10 51  1  0  0  0
 11 12  1  0  0  0
 11 52  1  0  0  0
 11 53  1  0  0  0
 12 37  1  0  0  0
 12 13  1  0  0  0
 12 14  1  0  0  0
 13 54  1  0  0  0
 14 38  1  0  0  0
 14 35  1  0  0  0
 14 15  1  0  0  0
 15 16  2  0  0  0
 15 55  1  0  0  0
 16 17  1  0  0  0
 16 18  1  0  0  0
 17 56  1  0  0  0
 17 57  1  0  0  0
 17 58  1  0  0  0
 18 19  1  0  0  0
 18 59  1  0  0  0
 18 60  1  0  0  0
 19 20  1  0  0  0
 19 61  1  0  0  0
 19 62  1  0  0  0
 20 21  1  0  0  0
 21 22  1  0  0  0
 21 63  1  0  0  0
 21 64  1  0  0  0
 22 23  1  0  0  0
 22 65  1  0  0  0
 22 66  1  0  0  0
 23 24  1  0  0  0
 23 67  1  0  0  0
 23 68  1  0  0  0
 24 25  1  0  0  0
 24 69  1  0  0  0
 24 70  1  0  0  0
 25 26  1  0  0  0
 25 71  1  0  0  0
 26 32  1  0  0  0
 26 27  2  0  0  0
 27 28  1  0  0  0
 27 72  1  0  0  0
 28 29  2  0  0  0
 28 33  1  0  0  0
 29 30  1  0  0  0
 29 73  1  0  0  0
 30 31  1  0  0  0
 30 32  2  0  0  0
 33 34  2  0  0  0
 33 35  1  0  0  0
 35 74  1  0  0  0
 36 75  1  0  0  0
M  END
> <s_m_source_file>
BACE_49.smi

> <i_m_source_file_index>
1

> <i_lp_mmshare_version>
42013

> <i_f3d_flags>
0

> <s_epik_input>
W0NIM11bQ0hdKFtDSDNdKWMxW2NIXVtjSF1bY0hdYyhbY0hdMSlbQ0gyXVtOSF1bQ0gyXVtDQEBIXShbT0hdKVtDQEBIXShbTkhdQyg9TyljKFtjSF1jMjMpW2NIXWMoQ2wpbjMpL1tDSF09QyhcW0NIM10pW0NIMl1bQ0gyXU9bQ0gyXVtDSDJdW0NIMl1bQ0gyXVtOSF0y

> <s_epik_cmdline>
J2VwaWtfcHl0aG9uJywgJy1waCcsICc3LjAnLCAnLXRuJywgJzgnLCAnLW1hJywgJzIwMCcsICctaW1hZScsICc8aW5maWxlLm1hZT4nLCAnLW9tYWUnLCAnPG91dGZpbGUubWFlPic=

> <r_lp_tautomer_probability>
1

> <r_epik_Ionization_Penalty>
  2.0126

> <r_epik_Ionization_Penalty_Charging>
  0.0000

> <r_epik_Ionization_Penalty_Neutral>
  2.0126

> <r_epik_State_Penalty>
  2.1422

> <r_epik_Charging_Adjusted_Penalty>
2.14222

> <i_epik_Tot_Q>
0

> <i_epik_Tot_abs_Q>
0

> <s_lp_Force_Field>
OPLS_2005

> <r_lp_Energy>
39.4231

> <b_lp_Chiralities_Consistent>
1

> <s_lp_Variant>
BACE_49.smi:1-2

> <chiral flag>
1

> <version>
0

> <s_i_glide_gridfile>
second_dock_grid_2

> <i_i_glide_lignum>
94

> <i_i_glide_rotatable_bonds>
7

> <r_i_docking_score>
-3.08912

> <r_i_glide_ligand_efficiency>
-0.0858089

> <r_i_glide_ligand_efficiency_sa>
-0.283335

> <r_i_glide_ligand_efficiency_ln>
-0.673963

> <r_glide_XP_GScore>
-5.23132

> <r_i_glide_gscore>
-5.23132

> <r_i_glide_evdw>
-44.1606

> <r_i_glide_ecoul>
-10.3686

> <r_i_glide_energy>
-54.5292

> <r_i_glide_einternal>
6.19992

> <r_i_glide_emodel>
-78.9035

> <r_glide_XP_HBond>
-1.01106

> <i_i_glide_confnum>
1

> <i_i_glide_posenum>
19

> <r_i_glide_eff_state_penalty>
2.1422

> <i_glide_XP_PoseRank>
1

$$$$
BACE_50.smi:1
                    3D
 Structure written by MMmdl.
 94 97  0  0  1  0            999 V2000
   20.5351   38.5314   -7.4330 C   0  0  0  0  0  0
   19.8564   38.3298   -8.7972 C   0  0  0  0  0  0
   20.3525   39.3514   -9.8327 C   0  0  0  0  0  0
   18.3373   38.3441   -8.6806 C   0  0  0  0  0  0
   17.6999   39.3052   -7.8663 C   0  0  0  0  0  0
   16.2946   39.3186   -7.7410 C   0  0  0  0  0  0
   15.6235   40.3449   -6.8507 C   0  0  0  0  0  0
   15.9119   41.7074   -7.3346 N   0  3  0  0  0  0
   17.3177   41.9305   -7.7282 C   0  0  0  0  0  0
   17.4254   43.0773   -8.7508 C   0  0  1  0  0  0
   16.6490   42.7129   -9.8672 O   0  0  0  0  0  0
   17.0192   44.4700   -8.1774 C   0  0  2  0  0  0
   15.9323   45.2786   -8.9468 C   0  0  0  0  0  0
   16.2307   46.0571  -10.2640 C   0  0  2  0  0  0
   16.3804   45.1968  -11.5333 C   0  0  0  0  0  0
   17.1794   47.2878  -10.1512 C   0  0  0  0  0  0
   18.4485   47.3244  -11.0347 C   0  0  0  0  0  0
   19.5920   46.4288  -10.5412 C   0  0  0  0  0  0
   20.8530   46.4936  -11.4211 C   0  0  0  0  0  0
   22.0265   45.6670  -10.8618 C   0  0  0  0  0  0
   21.9353   44.1462  -11.1458 C   0  0  0  0  0  0
   22.7474   43.3267  -10.2223 N   0  0  0  0  0  0
   22.0482   42.3096   -9.5464 N   0  0  0  0  0  0
   21.3937   42.5693   -8.3348 C   0  0  0  0  0  0
   20.6194   43.7314   -8.1538 C   0  0  0  0  0  0
   19.9064   43.9093   -6.9551 C   0  0  0  0  0  0
   20.0534   42.9467   -5.9367 C   0  0  0  0  0  0
   20.8644   41.8212   -6.2000 C   0  0  0  0  0  0
   21.0572   40.7426   -5.1552 C   0  0  0  0  0  0
   21.5033   41.6239   -7.3766 N   0  0  0  0  0  0
   19.0484   45.1221   -6.7793 C   0  0  0  0  0  0
   19.3121   45.9304   -5.8926 O   0  0  0  0  0  0
   18.0868   45.3606   -7.6940 N   0  0  0  0  0  0
   24.0879   43.4015  -10.0188 C   0  0  0  0  0  0
   24.6610   42.8099   -9.1017 O   0  0  0  0  0  0
   24.9160   44.2398  -10.9496 C   0  0  0  0  0  0
   24.7355   44.1668  -12.3495 C   0  0  0  0  0  0
   25.5356   44.9426  -13.2104 C   0  0  0  0  0  0
   26.5320   45.7839  -12.6795 C   0  0  0  0  0  0
   27.3001   46.5307  -13.5076 F   0  0  0  0  0  0
   26.7332   45.8431  -11.2874 C   0  0  0  0  0  0
   25.9330   45.0675  -10.4258 C   0  0  0  0  0  0
   15.5211   38.3678   -8.4381 C   0  0  0  0  0  0
   16.1503   37.4110   -9.2567 C   0  0  0  0  0  0
   17.5530   37.3979   -9.3763 C   0  0  0  0  0  0
   18.4675   43.1093   -9.0607 H   0  0  0  0  0  0
   16.5124   44.2043   -7.2476 H   0  0  0  0  0  0
   15.2607   46.5260  -10.4397 H   0  0  0  0  0  0
   20.2119   37.7733   -6.7190 H   0  0  0  0  0  0
   20.3058   39.5091   -7.0083 H   0  0  0  0  0  0
   21.6191   38.4582   -7.5213 H   0  0  0  0  0  0
   20.1513   37.3427   -9.1563 H   0  0  0  0  0  0
   19.9070   39.1667  -10.8106 H   0  0  0  0  0  0
   21.4351   39.2960   -9.9492 H   0  0  0  0  0  0
   20.1050   40.3725   -9.5411 H   0  0  0  0  0  0
   18.2900   40.0330   -7.3279 H   0  0  0  0  0  0
   14.5461   40.1731   -6.8459 H   0  0  0  0  0  0
   15.9735   40.2355   -5.8232 H   0  0  0  0  0  0
   15.3168   41.9056   -8.1263 H   0  0  0  0  0  0
   17.9137   42.1467   -6.8408 H   0  0  0  0  0  0
   17.7023   41.0044   -8.1571 H   0  0  0  0  0  0
   16.8218   41.8048  -10.0670 H   0  0  0  0  0  0
   15.0773   44.6278   -9.1281 H   0  0  0  0  0  0
   15.5448   46.0162   -8.2419 H   0  0  0  0  0  0
   17.3783   44.7870  -11.6593 H   0  0  0  0  0  0
   16.1737   45.7922  -12.4230 H   0  0  0  0  0  0
   15.6736   44.3675  -11.5348 H   0  0  0  0  0  0
   16.5947   48.1651  -10.4329 H   0  0  0  0  0  0
   17.4463   47.4785   -9.1127 H   0  0  0  0  0  0
   18.2041   47.0937  -12.0713 H   0  0  0  0  0  0
   18.8148   48.3516  -11.0500 H   0  0  0  0  0  0
   19.8507   46.7171   -9.5219 H   0  0  0  0  0  0
   19.2436   45.4037  -10.4969 H   0  0  0  0  0  0
   20.6246   46.1783  -12.4400 H   0  0  0  0  0  0
   21.1691   47.5352  -11.4902 H   0  0  0  0  0  0
   22.9427   46.0543  -11.3058 H   0  0  0  0  0  0
   22.1214   45.8550   -9.7918 H   0  0  0  0  0  0
   20.8936   43.8299  -11.0825 H   0  0  0  0  0  0
   22.2149   43.9406  -12.1782 H   0  0  0  0  0  0
   22.5056   41.4093   -9.5780 H   0  0  0  0  0  0
   20.5349   44.4694   -8.9283 H   0  0  0  0  0  0
   19.5480   43.0605   -4.9884 H   0  0  0  0  0  0
   20.5614   41.0038   -4.2200 H   0  0  0  0  0  0
   22.1186   40.6015   -4.9483 H   0  0  0  0  0  0
   20.6463   39.7959   -5.5065 H   0  0  0  0  0  0
   17.7916   46.3266   -7.7017 H   0  0  0  0  0  0
   23.9868   43.5122  -12.7714 H   0  0  0  0  0  0
   25.3886   44.8881  -14.2789 H   0  0  0  0  0  0
   27.5028   46.4815  -10.8796 H   0  0  0  0  0  0
   26.0978   45.1178   -9.3590 H   0  0  0  0  0  0
   14.4446   38.3687   -8.3499 H   0  0  0  0  0  0
   15.5572   36.6845   -9.7924 H   0  0  0  0  0  0
   18.0244   36.6564  -10.0045 H   0  0  0  0  0  0
   15.6873   42.3574   -6.5945 H   0  0  0  0  0  0
  1  2  1  0  0  0
  1 49  1  0  0  0
  1 50  1  0  0  0
  1 51  1  0  0  0
  2  3  1  0  0  0
  2  4  1  0  0  0
  2 52  1  0  0  0
  3 53  1  0  0  0
  3 54  1  0  0  0
  3 55  1  0  0  0
  4 45  1  0  0  0
  4  5  2  0  0  0
  5  6  1  0  0  0
  5 56  1  0  0  0
  6  7  1  0  0  0
  6 43  2  0  0  0
  7  8  1  0  0  0
  7 57  1  0  0  0
  7 58  1  0  0  0
  8  9  1  0  0  0
  8 59  1  0  0  0
  8 94  1  0  0  0
  9 10  1  0  0  0
  9 60  1  0  0  0
  9 61  1  0  0  0
 10 46  1  0  0  0
 10 11  1  0  0  0
 10 12  1  0  0  0
 11 62  1  0  0  0
 12 47  1  0  0  0
 12 33  1  0  0  0
 12 13  1  0  0  0
 13 14  1  0  0  0
 13 63  1  0  0  0
 13 64  1  0  0  0
 14 48  1  0  0  0
 14 15  1  0  0  0
 14 16  1  0  0  0
 15 65  1  0  0  0
 15 66  1  0  0  0
 15 67  1  0  0  0
 16 17  1  0  0  0
 16 68  1  0  0  0
 16 69  1  0  0  0
 17 18  1  0  0  0
 17 70  1  0  0  0
 17 71  1  0  0  0
 18 19  1  0  0  0
 18 72  1  0  0  0
 18 73  1  0  0  0
 19 20  1  0  0  0
 19 74  1  0  0  0
 19 75  1  0  0  0
 20 21  1  0  0  0
 20 76  1  0  0  0
 20 77  1  0  0  0
 21 22  1  0  0  0
 21 78  1  0  0  0
 21 79  1  0  0  0
 22 23  1  0  0  0
 22 34  1  0  0  0
 23 24  1  0  0  0
 23 80  1  0  0  0
 24 30  1  0  0  0
 24 25  2  0  0  0
 25 26  1  0  0  0
 25 81  1  0  0  0
 26 27  2  0  0  0
 26 31  1  0  0  0
 27 28  1  0  0  0
 27 82  1  0  0  0
 28 29  1  0  0  0
 28 30  2  0  0  0
 29 83  1  0  0  0
 29 84  1  0  0  0
 29 85  1  0  0  0
 31 32  2  0  0  0
 31 33  1  0  0  0
 33 86  1  0  0  0
 34 35  2  0  0  0
 34 36  1  0  0  0
 36 42  1  0  0  0
 36 37  2  0  0  0
 37 38  1  0  0  0
 37 87  1  0  0  0
 38 39  2  0  0  0
 38 88  1  0  0  0
 39 40  1  0  0  0
 39 41  1  0  0  0
 41 42  2  0  0  0
 41 89  1  0  0  0
 42 90  1  0  0  0
 43 44  1  0  0  0
 43 91  1  0  0  0
 44 45  2  0  0  0
 44 92  1  0  0  0
 45 93  1  0  0  0
M  CHG  1   8   1
M  END
> <s_m_source_file>
BACE_50.smi

> <i_m_source_file_index>
1

> <i_lp_mmshare_version>
42013

> <i_f3d_flags>
0

> <s_epik_input>
W0NIM11bQ0hdKFtDSDNdKWMxW2NIXWMoW2NIXVtjSF1bY0hdMSlbQ0gyXVtOSF1bQ0gyXVtDQEBIXShbT0hdKVtDQEBIXShbTkhdQyg9TyljKFtjSF1jMjMpW2NIXWMobjMpW0NIM10pW0NIMl1bQ0BIXShbQ0gzXSlbQ0gyXVtDSDJdW0NIMl1bQ0gyXVtDSDJdW0NIMl1OKFtOSF0yKUMoPU8pYzRbY0hdW2NIXWMoRilbY0hdW2NIXTQ=

> <s_epik_cmdline>
J2VwaWtfcHl0aG9uJywgJy1waCcsICc3LjAnLCAnLXRuJywgJzgnLCAnLW1hJywgJzIwMCcsICctaW1hZScsICc8aW5maWxlLm1hZT4nLCAnLW9tYWUnLCAnPG91dGZpbGUubWFlPic=

> <r_epik_Ionization_Penalty>
  0.0173

> <r_epik_Ionization_Penalty_Charging>
  0.0173

> <r_epik_Ionization_Penalty_Neutral>
  0.0000

> <r_epik_State_Penalty>
  0.0137

> <r_epik_Charging_Adjusted_Penalty>
0.0310503

> <i_epik_Tot_Q>
1

> <i_epik_Tot_abs_Q>
1

> <s_lp_Force_Field>
OPLS_2005

> <r_lp_Energy>
66.1663

> <b_lp_Chiralities_Consistent>
1

> <s_lp_Variant>
BACE_50.smi:1-1

> <chiral flag>
1

> <version>
0

> <s_i_glide_gridfile>
second_dock_grid_2

> <i_i_glide_lignum>
95

> <i_i_glide_rotatable_bonds>
9

> <r_i_docking_score>
-4.39084

> <r_i_glide_ligand_efficiency>
-0.0975742

> <r_i_glide_ligand_efficiency_sa>
-0.347061

> <r_i_glide_ligand_efficiency_ln>
-0.91349

> <r_glide_XP_GScore>
-4.40454

> <r_i_glide_gscore>
-4.40454

> <r_i_glide_evdw>
-40.764

> <r_i_glide_ecoul>
-13.3825

> <r_i_glide_energy>
-54.1464

> <r_i_glide_einternal>
9.96984

> <r_i_glide_emodel>
-74.1611

> <r_glide_XP_HBond>
0

> <i_i_glide_confnum>
1

> <i_i_glide_posenum>
8

> <r_i_glide_eff_state_penalty>
0.0137

> <i_glide_XP_PoseRank>
1

$$$$
BACE_50.smi:1
                    3D
 Structure written by MMmdl.
 93 96  0  0  1  0            999 V2000
   19.7895   44.5288   -5.2929 C   0  0  0  0  0  0
   21.2838   44.1662   -5.2581 C   0  0  0  0  0  0
   22.0704   44.8033   -6.4086 C   0  0  0  0  0  0
   21.5401   42.6774   -5.1573 C   0  0  0  0  0  0
   20.7385   41.7370   -5.8402 C   0  0  0  0  0  0
   20.9861   40.3560   -5.6987 C   0  0  0  0  0  0
   20.1289   39.3406   -6.4234 C   0  0  0  0  0  0
   19.9818   39.5975   -7.8533 N   0  0  0  0  0  0
   21.1590   39.3242   -8.6830 C   0  0  0  0  0  0
   22.0672   40.5653   -8.8697 C   0  0  1  0  0  0
   23.0344   40.4452   -7.8486 O   0  0  0  0  0  0
   22.7663   40.5944  -10.2604 C   0  0  2  0  0  0
   24.2483   41.1159  -10.2899 C   0  0  0  0  0  0
   24.6001   42.6170  -10.0804 C   0  0  2  0  0  0
   24.3277   43.1203   -8.6533 C   0  0  0  0  0  0
   24.2243   43.5670  -11.2569 C   0  0  0  0  0  0
   23.4647   44.8715  -10.9302 C   0  0  0  0  0  0
   21.9735   44.6627  -10.6423 C   0  0  0  0  0  0
   21.2276   45.9692  -10.3345 C   0  0  0  0  0  0
   19.7039   45.7807  -10.2410 C   0  0  0  0  0  0
   19.2022   45.2108   -8.8927 C   0  0  0  0  0  0
   17.8789   44.5823   -9.0157 N   0  0  0  0  0  0
   17.7998   43.2530   -8.5579 N   0  0  0  0  0  0
   18.1291   42.1688   -9.3787 C   0  0  0  0  0  0
   19.2929   42.1501  -10.1737 C   0  0  0  0  0  0
   19.5790   41.0063  -10.9412 C   0  0  0  0  0  0
   18.6539   39.9396  -10.9179 C   0  0  0  0  0  0
   17.5295   40.0458  -10.0746 C   0  0  0  0  0  0
   16.5363   38.9136   -9.9420 C   0  0  0  0  0  0
   17.2705   41.1345   -9.3225 N   0  0  0  0  0  0
   20.7679   40.9750  -11.8591 C   0  0  0  0  0  0
   20.5591   40.8888  -13.0674 O   0  0  0  0  0  0
   22.0163   41.1835  -11.3842 N   0  0  0  0  0  0
   16.7882   45.2762   -9.4325 C   0  0  0  0  0  0
   16.7873   46.5078   -9.5047 O   0  0  0  0  0  0
   15.5830   44.5484   -9.9730 C   0  0  0  0  0  0
   15.1133   44.8998  -11.2607 C   0  0  0  0  0  0
   13.9788   44.2749  -11.8087 C   0  0  0  0  0  0
   13.3060   43.2809  -11.0789 C   0  0  0  0  0  0
   12.2216   42.6754  -11.6123 F   0  0  0  0  0  0
   13.7607   42.9255   -9.7964 C   0  0  0  0  0  0
   14.8781   43.5730   -9.2326 C   0  0  0  0  0  0
   22.0529   39.9235   -4.8895 C   0  0  0  0  0  0
   22.8600   40.8554   -4.2258 C   0  0  0  0  0  0
   22.6065   42.2285   -4.3535 C   0  0  0  0  0  0
   21.5213   41.4946   -8.7074 H   0  0  0  0  0  0
   22.8603   39.5451  -10.5269 H   0  0  0  0  0  0
   25.6912   42.6106  -10.1163 H   0  0  0  0  0  0
   19.2641   44.0811   -4.4501 H   0  0  0  0  0  0
   19.3022   44.1803   -6.2031 H   0  0  0  0  0  0
   19.6534   45.6099   -5.2444 H   0  0  0  0  0  0
   21.6883   44.5694   -4.3368 H   0  0  0  0  0  0
   23.1402   44.6361   -6.2848 H   0  0  0  0  0  0
   21.9055   45.8788   -6.4581 H   0  0  0  0  0  0
   21.7772   44.3764   -7.3637 H   0  0  0  0  0  0
   19.9210   42.0572   -6.4692 H   0  0  0  0  0  0
   20.5112   38.3333   -6.2614 H   0  0  0  0  0  0
   19.1437   39.3648   -5.9568 H   0  0  0  0  0  0
   19.1787   39.0837   -8.2009 H   0  0  0  0  0  0
   21.7198   38.4663   -8.3028 H   0  0  0  0  0  0
   20.8097   38.9973   -9.6595 H   0  0  0  0  0  0
   22.5737   40.4730   -7.0187 H   0  0  0  0  0  0
   24.8327   40.5505   -9.5650 H   0  0  0  0  0  0
   24.6996   40.8230  -11.2359 H   0  0  0  0  0  0
   23.2698   43.1113   -8.4197 H   0  0  0  0  0  0
   24.7150   44.1252   -8.4892 H   0  0  0  0  0  0
   24.8205   42.4818   -7.9215 H   0  0  0  0  0  0
   25.1559   43.8648  -11.7385 H   0  0  0  0  0  0
   23.6943   43.0286  -12.0415 H   0  0  0  0  0  0
   23.9435   45.4142  -10.1151 H   0  0  0  0  0  0
   23.5459   45.5304  -11.7950 H   0  0  0  0  0  0
   21.5213   44.1819  -11.5118 H   0  0  0  0  0  0
   21.8532   43.9698   -9.8139 H   0  0  0  0  0  0
   21.6102   46.4224   -9.4185 H   0  0  0  0  0  0
   21.4347   46.6786  -11.1349 H   0  0  0  0  0  0
   19.2302   46.7484  -10.4063 H   0  0  0  0  0  0
   19.3732   45.1491  -11.0676 H   0  0  0  0  0  0
   19.9132   44.4767   -8.5196 H   0  0  0  0  0  0
   19.1699   45.9981   -8.1385 H   0  0  0  0  0  0
   17.0380   43.0610   -7.9215 H   0  0  0  0  0  0
   19.9606   42.9886  -10.1964 H   0  0  0  0  0  0
   18.8129   39.0588  -11.5219 H   0  0  0  0  0  0
   16.8937   38.0126  -10.4399 H   0  0  0  0  0  0
   15.5732   39.1972  -10.3738 H   0  0  0  0  0  0
   16.3787   38.6720   -8.8859 H   0  0  0  0  0  0
   22.6596   41.3740  -12.1437 H   0  0  0  0  0  0
   15.6287   45.6545  -11.8346 H   0  0  0  0  0  0
   13.6304   44.5428  -12.7959 H   0  0  0  0  0  0
   13.2592   42.1507   -9.2399 H   0  0  0  0  0  0
   15.1844   43.2979   -8.2334 H   0  0  0  0  0  0
   22.2810   38.8793   -4.7819 H   0  0  0  0  0  0
   23.6950   40.5074   -3.6431 H   0  0  0  0  0  0
   23.2436   42.9353   -3.8386 H   0  0  0  0  0  0
  1  2  1  0  0  0
  1 49  1  0  0  0
  1 50  1  0  0  0
  1 51  1  0  0  0
  2  3  1  0  0  0
  2  4  1  0  0  0
  2 52  1  0  0  0
  3 53  1  0  0  0
  3 54  1  0  0  0
  3 55  1  0  0  0
  4 45  1  0  0  0
  4  5  2  0  0  0
  5  6  1  0  0  0
  5 56  1  0  0  0
  6  7  1  0  0  0
  6 43  2  0  0  0
  7  8  1  0  0  0
  7 57  1  0  0  0
  7 58  1  0  0  0
  8  9  1  0  0  0
  8 59  1  0  0  0
  9 10  1  0  0  0
  9 60  1  0  0  0
  9 61  1  0  0  0
 10 46  1  0  0  0
 10 11  1  0  0  0
 10 12  1  0  0  0
 11 62  1  0  0  0
 12 47  1  0  0  0
 12 33  1  0  0  0
 12 13  1  0  0  0
 13 14  1  0  0  0
 13 63  1  0  0  0
 13 64  1  0  0  0
 14 48  1  0  0  0
 14 15  1  0  0  0
 14 16  1  0  0  0
 15 65  1  0  0  0
 15 66  1  0  0  0
 15 67  1  0  0  0
 16 17  1  0  0  0
 16 68  1  0  0  0
 16 69  1  0  0  0
 17 18  1  0  0  0
 17 70  1  0  0  0
 17 71  1  0  0  0
 18 19  1  0  0  0
 18 72  1  0  0  0
 18 73  1  0  0  0
 19 20  1  0  0  0
 19 74  1  0  0  0
 19 75  1  0  0  0
 20 21  1  0  0  0
 20 76  1  0  0  0
 20 77  1  0  0  0
 21 22  1  0  0  0
 21 78  1  0  0  0
 21 79  1  0  0  0
 22 23  1  0  0  0
 22 34  1  0  0  0
 23 24  1  0  0  0
 23 80  1  0  0  0
 24 30  1  0  0  0
 24 25  2  0  0  0
 25 26  1  0  0  0
 25 81  1  0  0  0
 26 27  2  0  0  0
 26 31  1  0  0  0
 27 28  1  0  0  0
 27 82  1  0  0  0
 28 29  1  0  0  0
 28 30  2  0  0  0
 29 83  1  0  0  0
 29 84  1  0  0  0
 29 85  1  0  0  0
 31 32  2  0  0  0
 31 33  1  0  0  0
 33 86  1  0  0  0
 34 35  2  0  0  0
 34 36  1  0  0  0
 36 42  1  0  0  0
 36 37  2  0  0  0
 37 38  1  0  0  0
 37 87  1  0  0  0
 38 39  2  0  0  0
 38 88  1  0  0  0
 39 40  1  0  0  0
 39 41  1  0  0  0
 41 42  2  0  0  0
 41 89  1  0  0  0
 42 90  1  0  0  0
 43 44  1  0  0  0
 43 91  1  0  0  0
 44 45  2  0  0  0
 44 92  1  0  0  0
 45 93  1  0  0  0
M  END
> <s_m_source_file>
BACE_50.smi

> <i_m_source_file_index>
1

> <i_lp_mmshare_version>
42013

> <i_f3d_flags>
0

> <s_epik_input>
W0NIM11bQ0hdKFtDSDNdKWMxW2NIXWMoW2NIXVtjSF1bY0hdMSlbQ0gyXVtOSF1bQ0gyXVtDQEBIXShbT0hdKVtDQEBIXShbTkhdQyg9TyljKFtjSF1jMjMpW2NIXWMobjMpW0NIM10pW0NIMl1bQ0BIXShbQ0gzXSlbQ0gyXVtDSDJdW0NIMl1bQ0gyXVtDSDJdW0NIMl1OKFtOSF0yKUMoPU8pYzRbY0hdW2NIXWMoRilbY0hdW2NIXTQ=

> <s_epik_cmdline>
J2VwaWtfcHl0aG9uJywgJy1waCcsICc3LjAnLCAnLXRuJywgJzgnLCAnLW1hJywgJzIwMCcsICctaW1hZScsICc8aW5maWxlLm1hZT4nLCAnLW9tYWUnLCAnPG91dGZpbGUubWFlPic=

> <r_epik_Ionization_Penalty>
  2.1014

> <r_epik_Ionization_Penalty_Charging>
  0.0000

> <r_epik_Ionization_Penalty_Neutral>
  2.1014

> <r_epik_State_Penalty>
  2.2376

> <r_epik_Charging_Adjusted_Penalty>
2.23761

> <i_epik_Tot_Q>
0

> <i_epik_Tot_abs_Q>
0

> <s_lp_Force_Field>
OPLS_2005

> <r_lp_Energy>
74.1891

> <b_lp_Chiralities_Consistent>
1

> <s_lp_Variant>
BACE_50.smi:1-2

> <chiral flag>
1

> <version>
0

> <s_i_glide_gridfile>
second_dock_grid_2

> <i_i_glide_lignum>
96

> <i_i_glide_rotatable_bonds>
9

> <r_i_docking_score>
-2.27604

> <r_i_glide_ligand_efficiency>
-0.0505786

> <r_i_glide_ligand_efficiency_sa>
-0.179903

> <r_i_glide_ligand_efficiency_ln>
-0.473517

> <r_glide_XP_GScore>
-4.51364

> <r_i_glide_gscore>
-4.51364

> <r_i_glide_evdw>
-44.0245

> <r_i_glide_ecoul>
-7.1186

> <r_i_glide_energy>
-51.1431

> <r_i_glide_einternal>
13.9576

> <r_i_glide_emodel>
-63.6418

> <r_glide_XP_HBond>
-0.7

> <i_i_glide_confnum>
1

> <i_i_glide_posenum>
11

> <r_i_glide_eff_state_penalty>
2.2376

> <i_glide_XP_PoseRank>
1

$$$$
BACE_51.smi:1
                    3D
 Structure written by MMmdl.
 79 81  0  0  1  0            999 V2000
   26.0274   46.2164  -13.9831 C   0  0  0  0  0  0
   26.4891   46.1142  -12.5200 C   0  0  0  0  0  0
   27.6759   47.0465  -12.2293 C   0  0  0  0  0  0
   26.7934   44.6693  -12.1423 C   0  0  0  0  0  0
   27.8344   43.9685  -12.7857 C   0  0  0  0  0  0
   28.1024   42.6304  -12.4415 C   0  0  0  0  0  0
   27.3088   41.9801  -11.4791 C   0  0  0  0  0  0
   26.2564   42.6648  -10.8374 C   0  0  0  0  0  0
   25.3899   41.9393   -9.8196 C   0  0  0  0  0  0
   24.1806   41.3638  -10.4401 N   0  3  0  0  0  0
   23.0903   42.3215  -10.7406 C   0  0  0  0  0  0
   21.9249   42.2459   -9.7253 C   0  0  1  0  0  0
   21.0742   43.3521   -9.9386 O   0  0  0  0  0  0
   21.0573   40.9472   -9.7383 C   0  0  2  0  0  0
   21.6061   39.8833   -8.7666 C   0  0  0  0  0  0
   21.1905   40.1160   -7.2970 C   0  0  2  0  0  0
   22.0782   39.2978   -6.3484 C   0  0  0  0  0  0
   19.6879   39.8717   -7.0241 C   0  0  0  0  0  0
   19.1549   38.5284   -7.5505 C   0  0  0  0  0  0
   17.7625   38.1325   -7.0360 C   0  0  0  0  0  0
   16.5716   38.8111   -7.7277 C   0  0  0  0  0  0
   16.1649   40.1612   -7.1193 C   0  0  0  0  0  0
   14.8644   40.7315   -7.7001 C   0  0  0  0  0  0
   15.0558   41.5616   -8.9753 C   0  0  0  0  0  0
   15.7298   40.7742   -9.9457 O   0  0  0  0  0  0
   16.6825   41.4126  -10.6950 C   0  0  0  0  0  0
   17.8929   40.7533  -10.9666 C   0  0  0  0  0  0
   18.8684   41.4184  -11.7301 C   0  0  0  0  0  0
   18.5661   42.7050  -12.2158 C   0  0  0  0  0  0
   17.3382   43.2943  -11.8752 C   0  0  0  0  0  0
   16.9924   44.8862  -12.4401 Cl  0  0  0  0  0  0
   16.4043   42.6593  -11.1424 N   0  0  0  0  0  0
   20.1671   40.7505  -12.0706 C   0  0  0  0  0  0
   20.4603   40.5504  -13.2400 O   0  0  0  0  0  0
   20.9882   40.3689  -11.0804 N   0  0  0  0  0  0
   26.0195   44.0194  -11.1560 C   0  0  0  0  0  0
   22.3330   42.3988   -8.7259 H   0  0  0  0  0  0
   20.0479   41.1870   -9.4053 H   0  0  0  0  0  0
   21.3799   41.1608   -7.0448 H   0  0  0  0  0  0
   25.1457   45.5977  -14.1588 H   0  0  0  0  0  0
   26.8062   45.8922  -14.6725 H   0  0  0  0  0  0
   25.7645   47.2429  -14.2417 H   0  0  0  0  0  0
   25.6567   46.4535  -11.8998 H   0  0  0  0  0  0
   27.9509   47.0105  -11.1752 H   0  0  0  0  0  0
   27.4281   48.0803  -12.4687 H   0  0  0  0  0  0
   28.5546   46.7752  -12.8132 H   0  0  0  0  0  0
   28.4418   44.4545  -13.5349 H   0  0  0  0  0  0
   28.9057   42.0953  -12.9292 H   0  0  0  0  0  0
   27.5190   40.9494  -11.2382 H   0  0  0  0  0  0
   25.9589   41.1041   -9.4092 H   0  0  0  0  0  0
   25.1316   42.5932   -8.9835 H   0  0  0  0  0  0
   24.4614   40.9508  -11.3259 H   0  0  0  0  0  0
   23.4771   43.3374  -10.7784 H   0  0  0  0  0  0
   22.7424   42.1354  -11.7554 H   0  0  0  0  0  0
   20.4351   43.3848   -9.2406 H   0  0  0  0  0  0
   21.2989   38.8855   -9.0833 H   0  0  0  0  0  0
   22.6920   39.8545   -8.8258 H   0  0  0  0  0  0
   22.0317   38.2304   -6.5682 H   0  0  0  0  0  0
   21.7889   39.4370   -5.3048 H   0  0  0  0  0  0
   23.1180   39.6126   -6.4410 H   0  0  0  0  0  0
   19.5157   39.9217   -5.9488 H   0  0  0  0  0  0
   19.1030   40.6836   -7.4507 H   0  0  0  0  0  0
   19.1406   38.5183   -8.6396 H   0  0  0  0  0  0
   19.8503   37.7502   -7.2486 H   0  0  0  0  0  0
   17.6634   37.0673   -7.2409 H   0  0  0  0  0  0
   17.6924   38.2309   -5.9513 H   0  0  0  0  0  0
   16.7640   38.8876   -8.7953 H   0  0  0  0  0  0
   15.7133   38.1440   -7.6342 H   0  0  0  0  0  0
   16.0151   40.0187   -6.0452 H   0  0  0  0  0  0
   16.9586   40.8996   -7.2280 H   0  0  0  0  0  0
   14.1318   39.9358   -7.8483 H   0  0  0  0  0  0
   14.4601   41.3999   -6.9485 H   0  0  0  0  0  0
   14.0925   41.8885   -9.3684 H   0  0  0  0  0  0
   15.6177   42.4584   -8.7079 H   0  0  0  0  0  0
   18.0634   39.7549  -10.5934 H   0  0  0  0  0  0
   19.2598   43.2514  -12.8276 H   0  0  0  0  0  0
   21.7744   39.8109  -11.3727 H   0  0  0  0  0  0
   25.2261   44.5518  -10.6507 H   0  0  0  0  0  0
   23.8241   40.6198   -9.8546 H   0  0  0  0  0  0
  1  2  1  0  0  0
  1 40  1  0  0  0
  1 41  1  0  0  0
  1 42  1  0  0  0
  2  3  1  0  0  0
  2  4  1  0  0  0
  2 43  1  0  0  0
  3 44  1  0  0  0
  3 45  1  0  0  0
  3 46  1  0  0  0
  4 36  1  0  0  0
  4  5  2  0  0  0
  5  6  1  0  0  0
  5 47  1  0  0  0
  6  7  2  0  0  0
  6 48  1  0  0  0
  7  8  1  0  0  0
  7 49  1  0  0  0
  8  9  1  0  0  0
  8 36  2  0  0  0
  9 10  1  0  0  0
  9 50  1  0  0  0
  9 51  1  0  0  0
 10 11  1  0  0  0
 10 52  1  0  0  0
 10 79  1  0  0  0
 11 12  1  0  0  0
 11 53  1  0  0  0
 11 54  1  0  0  0
 12 37  1  0  0  0
 12 13  1  0  0  0
 12 14  1  0  0  0
 13 55  1  0  0  0
 14 38  1  0  0  0
 14 35  1  0  0  0
 14 15  1  0  0  0
 15 16  1  0  0  0
 15 56  1  0  0  0
 15 57  1  0  0  0
 16 39  1  0  0  0
 16 17  1  0  0  0
 16 18  1  0  0  0
 17 58  1  0  0  0
 17 59  1  0  0  0
 17 60  1  0  0  0
 18 19  1  0  0  0
 18 61  1  0  0  0
 18 62  1  0  0  0
 19 20  1  0  0  0
 19 63  1  0  0  0
 19 64  1  0  0  0
 20 21  1  0  0  0
 20 65  1  0  0  0
 20 66  1  0  0  0
 21 22  1  0  0  0
 21 67  1  0  0  0
 21 68  1  0  0  0
 22 23  1  0  0  0
 22 69  1  0  0  0
 22 70  1  0  0  0
 23 24  1  0  0  0
 23 71  1  0  0  0
 23 72  1  0  0  0
 24 25  1  0  0  0
 24 73  1  0  0  0
 24 74  1  0  0  0
 25 26  1  0  0  0
 26 32  1  0  0  0
 26 27  2  0  0  0
 27 28  1  0  0  0
 27 75  1  0  0  0
 28 29  2  0  0  0
 28 33  1  0  0  0
 29 30  1  0  0  0
 29 76  1  0  0  0
 30 31  1  0  0  0
 30 32  2  0  0  0
 33 34  2  0  0  0
 33 35  1  0  0  0
 35 77  1  0  0  0
 36 78  1  0  0  0
M  CHG  1  10   1
M  END
> <s_m_source_file>
BACE_51.smi

> <i_m_source_file_index>
1

> <i_lp_mmshare_version>
42013

> <i_f3d_flags>
0

> <s_epik_input>
W0NIM11bQ0hdKFtDSDNdKWMxW2NIXVtjSF1bY0hdYyhbY0hdMSlbQ0gyXVtOSF1bQ0gyXVtDQEBIXShbT0hdKVtDQEBIXShbTkhdQyg9TyljKFtjSF1jMjMpW2NIXWMoQ2wpbjMpW0NIMl1bQ0BIXShbQ0gzXSlbQ0gyXVtDSDJdW0NIMl1bQ0gyXVtDSDJdW0NIMl1bQ0gyXU8y

> <s_epik_cmdline>
J2VwaWtfcHl0aG9uJywgJy1waCcsICc3LjAnLCAnLXRuJywgJzgnLCAnLW1hJywgJzIwMCcsICctaW1hZScsICc8aW5maWxlLm1hZT4nLCAnLW9tYWUnLCAnPG91dGZpbGUubWFlPic=

> <r_lp_tautomer_probability>
1

> <r_epik_Ionization_Penalty>
  0.0173

> <r_epik_Ionization_Penalty_Charging>
  0.0173

> <r_epik_Ionization_Penalty_Neutral>
  0.0000

> <r_epik_State_Penalty>
  0.0137

> <r_epik_Charging_Adjusted_Penalty>
0.0310503

> <i_epik_Tot_Q>
1

> <i_epik_Tot_abs_Q>
1

> <s_lp_Force_Field>
OPLS_2005

> <r_lp_Energy>
33.0174

> <b_lp_Chiralities_Consistent>
1

> <s_lp_Variant>
BACE_51.smi:1-1

> <chiral flag>
1

> <version>
0

> <s_i_glide_gridfile>
second_dock_grid_2

> <i_i_glide_lignum>
97

> <i_i_glide_rotatable_bonds>
7

> <r_i_docking_score>
-3.32859

> <r_i_glide_ligand_efficiency>
-0.0924609

> <r_i_glide_ligand_efficiency_sa>
-0.305299

> <r_i_glide_ligand_efficiency_ln>
-0.726209

> <r_glide_XP_GScore>
-3.34229

> <r_i_glide_gscore>
-3.34229

> <r_i_glide_evdw>
-38.9541

> <r_i_glide_ecoul>
-10.4808

> <r_i_glide_energy>
-49.4348

> <r_i_glide_einternal>
6.81587

> <r_i_glide_emodel>
-64.2076

> <r_glide_XP_HBond>
0

> <i_i_glide_confnum>
1

> <i_i_glide_posenum>
3

> <r_i_glide_eff_state_penalty>
0.0137

> <i_glide_XP_PoseRank>
1

$$$$
BACE_51.smi:1
                    3D
 Structure written by MMmdl.
 78 80  0  0  1  0            999 V2000
   22.8595   45.2182   -5.2099 C   0  0  0  0  0  0
   21.7787   44.3517   -5.8743 C   0  0  0  0  0  0
   20.3658   44.8795   -5.5727 C   0  0  0  0  0  0
   21.9227   42.8848   -5.4910 C   0  0  0  0  0  0
   21.7917   42.4858   -4.1440 C   0  0  0  0  0  0
   21.9564   41.1342   -3.7860 C   0  0  0  0  0  0
   22.2617   40.1746   -4.7700 C   0  0  0  0  0  0
   22.3968   40.5591   -6.1197 C   0  0  0  0  0  0
   22.7624   39.5106   -7.1646 C   0  0  0  0  0  0
   22.9405   40.0468   -8.5152 N   0  0  0  0  0  0
   21.7003   40.5107   -9.1387 C   0  0  0  0  0  0
   20.5661   39.4669   -9.0340 C   0  0  1  0  0  0
   19.8474   39.7994   -7.8592 O   0  0  0  0  0  0
   19.5652   39.5160  -10.2252 C   0  0  2  0  0  0
   18.6748   38.2555  -10.3863 C   0  0  0  0  0  0
   17.6692   37.9545   -9.2473 C   0  0  2  0  0  0
   17.0580   36.5555   -9.4344 C   0  0  0  0  0  0
   16.5553   39.0235   -9.1210 C   0  0  0  0  0  0
   16.0127   39.1647   -7.6871 C   0  0  0  0  0  0
   14.8501   40.1647   -7.5233 C   0  0  0  0  0  0
   15.2464   41.6440   -7.3067 C   0  0  0  0  0  0
   15.6471   42.4520   -8.5565 C   0  0  0  0  0  0
   14.5202   42.5993   -9.5950 C   0  0  0  0  0  0
   14.8973   43.4421  -10.8256 C   0  0  0  0  0  0
   15.7845   42.7059  -11.6683 O   0  0  0  0  0  0
   17.1480   42.8756  -11.5501 C   0  0  0  0  0  0
   17.9875   41.8406  -12.0009 C   0  0  0  0  0  0
   19.3822   41.9884  -11.8575 C   0  0  0  0  0  0
   19.8835   43.1910  -11.3204 C   0  0  0  0  0  0
   18.9666   44.1782  -10.9064 C   0  0  0  0  0  0
   19.5686   45.6455  -10.2297 Cl  0  0  0  0  0  0
   17.6286   44.0210  -11.0082 N   0  0  0  0  0  0
   20.3094   40.8737  -12.2339 C   0  0  0  0  0  0
   21.0782   41.0054  -13.1832 O   0  0  0  0  0  0
   20.2692   39.7460  -11.4952 N   0  0  0  0  0  0
   22.2040   41.9134   -6.4754 C   0  0  0  0  0  0
   20.9905   38.4671   -8.9354 H   0  0  0  0  0  0
   18.9172   40.3640  -10.0291 H   0  0  0  0  0  0
   18.2240   37.9137   -8.3120 H   0  0  0  0  0  0
   23.8579   44.8655   -5.4708 H   0  0  0  0  0  0
   22.7744   45.2046   -4.1231 H   0  0  0  0  0  0
   22.7825   46.2567   -5.5334 H   0  0  0  0  0  0
   21.9238   44.4268   -6.9528 H   0  0  0  0  0  0
   19.6079   44.2889   -6.0875 H   0  0  0  0  0  0
   20.2558   45.9125   -5.9032 H   0  0  0  0  0  0
   20.1390   44.8510   -4.5065 H   0  0  0  0  0  0
   21.5734   43.2150   -3.3777 H   0  0  0  0  0  0
   21.8589   40.8353   -2.7529 H   0  0  0  0  0  0
   22.3998   39.1423   -4.4835 H   0  0  0  0  0  0
   23.6664   38.9871   -6.8509 H   0  0  0  0  0  0
   21.9657   38.7666   -7.1745 H   0  0  0  0  0  0
   23.3957   39.3602   -9.1079 H   0  0  0  0  0  0
   21.3633   41.4401   -8.6791 H   0  0  0  0  0  0
   21.9062   40.7428  -10.1836 H   0  0  0  0  0  0
   19.3195   39.0568   -7.6094 H   0  0  0  0  0  0
   18.1117   38.3377  -11.3174 H   0  0  0  0  0  0
   19.3307   37.3937  -10.5177 H   0  0  0  0  0  0
   16.4901   36.4914  -10.3629 H   0  0  0  0  0  0
   16.3850   36.3005   -8.6159 H   0  0  0  0  0  0
   17.8325   35.7888   -9.4668 H   0  0  0  0  0  0
   16.9259   39.9889   -9.4413 H   0  0  0  0  0  0
   15.7412   38.7929   -9.8092 H   0  0  0  0  0  0
   15.6574   38.1865   -7.3628 H   0  0  0  0  0  0
   16.8214   39.4260   -7.0036 H   0  0  0  0  0  0
   14.1309   40.0546   -8.3340 H   0  0  0  0  0  0
   14.3055   39.8610   -6.6284 H   0  0  0  0  0  0
   14.4030   42.1546   -6.8403 H   0  0  0  0  0  0
   16.0529   41.6949   -6.5742 H   0  0  0  0  0  0
   15.9420   43.4510   -8.2341 H   0  0  0  0  0  0
   16.5391   42.0278   -9.0080 H   0  0  0  0  0  0
   14.1903   41.6196   -9.9386 H   0  0  0  0  0  0
   13.6578   43.0577   -9.1098 H   0  0  0  0  0  0
   13.9947   43.6176  -11.4107 H   0  0  0  0  0  0
   15.2482   44.4333  -10.5386 H   0  0  0  0  0  0
   17.5647   40.9352  -12.4123 H   0  0  0  0  0  0
   20.9463   43.3450  -11.1995 H   0  0  0  0  0  0
   20.8775   38.9975  -11.7940 H   0  0  0  0  0  0
   22.2992   42.2188   -7.5068 H   0  0  0  0  0  0
  1  2  1  0  0  0
  1 40  1  0  0  0
  1 41  1  0  0  0
  1 42  1  0  0  0
  2  3  1  0  0  0
  2  4  1  0  0  0
  2 43  1  0  0  0
  3 44  1  0  0  0
  3 45  1  0  0  0
  3 46  1  0  0  0
  4 36  1  0  0  0
  4  5  2  0  0  0
  5  6  1  0  0  0
  5 47  1  0  0  0
  6  7  2  0  0  0
  6 48  1  0  0  0
  7  8  1  0  0  0
  7 49  1  0  0  0
  8  9  1  0  0  0
  8 36  2  0  0  0
  9 10  1  0  0  0
  9 50  1  0  0  0
  9 51  1  0  0  0
 10 11  1  0  0  0
 10 52  1  0  0  0
 11 12  1  0  0  0
 11 53  1  0  0  0
 11 54  1  0  0  0
 12 37  1  0  0  0
 12 13  1  0  0  0
 12 14  1  0  0  0
 13 55  1  0  0  0
 14 38  1  0  0  0
 14 35  1  0  0  0
 14 15  1  0  0  0
 15 16  1  0  0  0
 15 56  1  0  0  0
 15 57  1  0  0  0
 16 39  1  0  0  0
 16 17  1  0  0  0
 16 18  1  0  0  0
 17 58  1  0  0  0
 17 59  1  0  0  0
 17 60  1  0  0  0
 18 19  1  0  0  0
 18 61  1  0  0  0
 18 62  1  0  0  0
 19 20  1  0  0  0
 19 63  1  0  0  0
 19 64  1  0  0  0
 20 21  1  0  0  0
 20 65  1  0  0  0
 20 66  1  0  0  0
 21 22  1  0  0  0
 21 67  1  0  0  0
 21 68  1  0  0  0
 22 23  1  0  0  0
 22 69  1  0  0  0
 22 70  1  0  0  0
 23 24  1  0  0  0
 23 71  1  0  0  0
 23 72  1  0  0  0
 24 25  1  0  0  0
 24 73  1  0  0  0
 24 74  1  0  0  0
 25 26  1  0  0  0
 26 32  1  0  0  0
 26 27  2  0  0  0
 27 28  1  0  0  0
 27 75  1  0  0  0
 28 29  2  0  0  0
 28 33  1  0  0  0
 29 30  1  0  0  0
 29 76  1  0  0  0
 30 31  1  0  0  0
 30 32  2  0  0  0
 33 34  2  0  0  0
 33 35  1  0  0  0
 35 77  1  0  0  0
 36 78  1  0  0  0
M  END
> <s_m_source_file>
BACE_51.smi

> <i_m_source_file_index>
1

> <i_lp_mmshare_version>
42013

> <i_f3d_flags>
0

> <s_epik_input>
W0NIM11bQ0hdKFtDSDNdKWMxW2NIXVtjSF1bY0hdYyhbY0hdMSlbQ0gyXVtOSF1bQ0gyXVtDQEBIXShbT0hdKVtDQEBIXShbTkhdQyg9TyljKFtjSF1jMjMpW2NIXWMoQ2wpbjMpW0NIMl1bQ0BIXShbQ0gzXSlbQ0gyXVtDSDJdW0NIMl1bQ0gyXVtDSDJdW0NIMl1bQ0gyXU8y

> <s_epik_cmdline>
J2VwaWtfcHl0aG9uJywgJy1waCcsICc3LjAnLCAnLXRuJywgJzgnLCAnLW1hJywgJzIwMCcsICctaW1hZScsICc8aW5maWxlLm1hZT4nLCAnLW9tYWUnLCAnPG91dGZpbGUubWFlPic=

> <r_lp_tautomer_probability>
1

> <r_epik_Ionization_Penalty>
  2.1014

> <r_epik_Ionization_Penalty_Charging>
  0.0000

> <r_epik_Ionization_Penalty_Neutral>
  2.1014

> <r_epik_State_Penalty>
  2.2376

> <r_epik_Charging_Adjusted_Penalty>
2.23761

> <i_epik_Tot_Q>
0

> <i_epik_Tot_abs_Q>
0

> <s_lp_Force_Field>
OPLS_2005

> <r_lp_Energy>
35.3519

> <b_lp_Chiralities_Consistent>
1

> <s_lp_Variant>
BACE_51.smi:1-2

> <chiral flag>
1

> <version>
0

> <s_i_glide_gridfile>
second_dock_grid_2

> <i_i_glide_lignum>
98

> <i_i_glide_rotatable_bonds>
7

> <r_i_docking_score>
-2.4885

> <r_i_glide_ligand_efficiency>
-0.069125

> <r_i_glide_ligand_efficiency_sa>
-0.228246

> <r_i_glide_ligand_efficiency_ln>
-0.542923

> <r_glide_XP_GScore>
-4.7261

> <r_i_glide_gscore>
-4.7261

> <r_i_glide_evdw>
-34.3314

> <r_i_glide_ecoul>
-4.46004

> <r_i_glide_energy>
-38.7915

> <r_i_glide_einternal>
5.99847

> <r_i_glide_emodel>
-57.6923

> <r_glide_XP_HBond>
-0.523575

> <i_i_glide_confnum>
1

> <i_i_glide_posenum>
3

> <r_i_glide_eff_state_penalty>
2.2376

> <i_glide_XP_PoseRank>
1

$$$$
BACE_52.smi:1
                    3D
 Structure written by MMmdl.
 81 84  0  0  1  0            999 V2000
   29.7565   44.9051   -9.5638 C   0  0  0  0  0  0
   28.4894   45.2269  -10.3724 C   0  0  0  0  0  0
   28.8263   45.8207  -11.7505 C   0  0  0  0  0  0
   27.5825   44.0121  -10.4982 C   0  0  0  0  0  0
   26.2832   44.0256   -9.9531 C   0  0  0  0  0  0
   25.4807   42.8713  -10.0747 C   0  0  0  0  0  0
   25.9017   41.7541  -10.7064 N   0  0  0  0  0  0
   27.1389   41.7500  -11.2396 C   0  0  0  0  0  0
   28.0178   42.8448  -11.1578 C   0  0  0  0  0  0
   24.1031   42.7924   -9.4809 C   0  0  0  0  0  0
   23.8958   41.8198   -8.3368 C   0  0  0  0  0  0
   23.8850   43.3012   -8.0619 C   0  0  0  0  0  0
   23.0674   42.9334  -10.5293 N   0  0  0  0  0  0
   21.8265   43.6748  -10.2362 C   0  0  0  0  0  0
   20.7499   42.8811   -9.4479 C   0  0  1  0  0  0
   19.8192   43.8066   -8.9289 O   0  0  0  0  0  0
   19.9857   41.7556  -10.2129 C   0  0  2  0  0  0
   20.8415   40.4658  -10.3276 C   0  0  0  0  0  0
   20.2684   39.2413   -9.5931 C   0  0  2  0  0  0
   21.4066   38.2756   -9.2399 C   0  0  0  0  0  0
   19.1726   38.5577  -10.4464 C   0  0  0  0  0  0
   18.2885   37.5084   -9.7304 C   0  0  0  0  0  0
   17.6331   37.9628   -8.4139 C   0  0  0  0  0  0
   16.8234   39.2567   -8.5645 C   0  0  0  0  0  0
   16.2880   39.8106   -7.2372 C   0  0  0  0  0  0
   16.1150   41.3370   -7.2834 C   0  0  0  0  0  0
   15.0092   41.8071   -8.2353 C   0  0  0  0  0  0
   15.0645   43.2117   -8.4404 O   0  0  0  0  0  0
   15.9525   43.7166   -9.3643 C   0  0  0  0  0  0
   16.8302   42.9401  -10.1650 C   0  0  0  0  0  0
   17.6643   43.5989  -11.0922 C   0  0  0  0  0  0
   17.5688   44.9997  -11.1970 C   0  0  0  0  0  0
   16.6781   45.6865  -10.3550 C   0  0  0  0  0  0
   16.5644   47.4004  -10.4851 Cl  0  0  0  0  0  0
   15.8865   45.0609   -9.4626 N   0  0  0  0  0  0
   18.5621   42.8506  -12.0332 C   0  0  0  0  0  0
   18.3723   42.9562  -13.2403 O   0  0  0  0  0  0
   19.5938   42.1250  -11.5722 N   0  0  0  0  0  0
   21.1815   42.4460   -8.5522 H   0  0  0  0  0  0
   19.0896   41.5086   -9.6464 H   0  0  0  0  0  0
   19.8406   39.5849   -8.6514 H   0  0  0  0  0  0
   29.5040   44.5153   -8.5761 H   0  0  0  0  0  0
   30.3638   45.7989   -9.4193 H   0  0  0  0  0  0
   30.3774   44.1623  -10.0650 H   0  0  0  0  0  0
   27.9409   45.9897   -9.8174 H   0  0  0  0  0  0
   27.9175   46.0880  -12.2925 H   0  0  0  0  0  0
   29.3837   45.1159  -12.3677 H   0  0  0  0  0  0
   29.4325   46.7226  -11.6503 H   0  0  0  0  0  0
   25.9068   44.8972   -9.4381 H   0  0  0  0  0  0
   27.4380   40.8514  -11.7552 H   0  0  0  0  0  0
   29.0007   42.7828  -11.6000 H   0  0  0  0  0  0
   22.9578   41.2937   -8.2079 H   0  0  0  0  0  0
   24.7703   41.2497   -8.0405 H   0  0  0  0  0  0
   24.7434   43.7038   -7.5262 H   0  0  0  0  0  0
   22.9302   43.7301   -7.7712 H   0  0  0  0  0  0
   22.8323   42.0055  -10.8687 H   0  0  0  0  0  0
   22.0768   44.5928   -9.7023 H   0  0  0  0  0  0
   21.3905   44.0165  -11.1755 H   0  0  0  0  0  0
   19.2338   43.3537   -8.3398 H   0  0  0  0  0  0
   21.0269   40.1959  -11.3687 H   0  0  0  0  0  0
   21.8368   40.6546   -9.9396 H   0  0  0  0  0  0
   22.0151   38.0333  -10.1098 H   0  0  0  0  0  0
   21.0134   37.3500   -8.8400 H   0  0  0  0  0  0
   22.0737   38.7032   -8.4899 H   0  0  0  0  0  0
   19.6438   38.0847  -11.3081 H   0  0  0  0  0  0
   18.5190   39.3201  -10.8731 H   0  0  0  0  0  0
   18.8602   36.6033   -9.5382 H   0  0  0  0  0  0
   17.5005   37.2101  -10.4225 H   0  0  0  0  0  0
   18.4023   38.0885   -7.6512 H   0  0  0  0  0  0
   16.9813   37.1721   -8.0401 H   0  0  0  0  0  0
   17.4681   40.0129   -9.0026 H   0  0  0  0  0  0
   16.0038   39.1070   -9.2677 H   0  0  0  0  0  0
   16.9922   39.5771   -6.4390 H   0  0  0  0  0  0
   15.3528   39.3167   -6.9650 H   0  0  0  0  0  0
   15.8742   41.7027   -6.2873 H   0  0  0  0  0  0
   17.0680   41.7969   -7.5415 H   0  0  0  0  0  0
   14.9901   41.2624   -9.1789 H   0  0  0  0  0  0
   14.0600   41.5977   -7.7580 H   0  0  0  0  0  0
   16.8587   41.8642  -10.1009 H   0  0  0  0  0  0
   18.1731   45.5415  -11.9098 H   0  0  0  0  0  0
   20.1610   41.7064  -12.2942 H   0  0  0  0  0  0
  1  2  1  0  0  0
  1 42  1  0  0  0
  1 43  1  0  0  0
  1 44  1  0  0  0
  2  3  1  0  0  0
  2  4  1  0  0  0
  2 45  1  0  0  0
  3 46  1  0  0  0
  3 47  1  0  0  0
  3 48  1  0  0  0
  4  9  1  0  0  0
  4  5  2  0  0  0
  5  6  1  0  0  0
  5 49  1  0  0  0
  6  7  2  0  0  0
  6 10  1  0  0  0
  7  8  1  0  0  0
  8  9  2  0  0  0
  8 50  1  0  0  0
  9 51  1  0  0  0
 10 12  1  0  0  0
 10 11  1  0  0  0
 10 13  1  0  0  0
 11 12  1  0  0  0
 11 52  1  0  0  0
 11 53  1  0  0  0
 12 54  1  0  0  0
 12 55  1  0  0  0
 13 14  1  0  0  0
 13 56  1  0  0  0
 14 15  1  0  0  0
 14 57  1  0  0  0
 14 58  1  0  0  0
 15 39  1  0  0  0
 15 16  1  0  0  0
 15 17  1  0  0  0
 16 59  1  0  0  0
 17 40  1  0  0  0
 17 38  1  0  0  0
 17 18  1  0  0  0
 18 19  1  0  0  0
 18 60  1  0  0  0
 18 61  1  0  0  0
 19 41  1  0  0  0
 19 20  1  0  0  0
 19 21  1  0  0  0
 20 62  1  0  0  0
 20 63  1  0  0  0
 20 64  1  0  0  0
 21 22  1  0  0  0
 21 65  1  0  0  0
 21 66  1  0  0  0
 22 23  1  0  0  0
 22 67  1  0  0  0
 22 68  1  0  0  0
 23 24  1  0  0  0
 23 69  1  0  0  0
 23 70  1  0  0  0
 24 25  1  0  0  0
 24 71  1  0  0  0
 24 72  1  0  0  0
 25 26  1  0  0  0
 25 73  1  0  0  0
 25 74  1  0  0  0
 26 27  1  0  0  0
 26 75  1  0  0  0
 26 76  1  0  0  0
 27 28  1  0  0  0
 27 77  1  0  0  0
 27 78  1  0  0  0
 28 29  1  0  0  0
 29 35  1  0  0  0
 29 30  2  0  0  0
 30 31  1  0  0  0
 30 79  1  0  0  0
 31 32  2  0  0  0
 31 36  1  0  0  0
 32 33  1  0  0  0
 32 80  1  0  0  0
 33 34  1  0  0  0
 33 35  2  0  0  0
 36 37  2  0  0  0
 36 38  1  0  0  0
 38 81  1  0  0  0
M  END
> <s_m_source_file>
BACE_52.smi

> <i_m_source_file_index>
1

> <i_lp_mmshare_version>
42013

> <i_f3d_flags>
0

> <s_epik_input>
W0NIM11bQ0hdKFtDSDNdKWMxW2NIXWMobltjSF1bY0hdMSlDMihbQ0gyXVtDSDJdMilbTkhdW0NIMl1bQ0BASF0oW09IXSlbQ0BASF0oW05IXUMoPU8pYyhbY0hdYzM0KVtjSF1jKENsKW40KVtDSDJdW0NASF0oW0NIM10pW0NIMl1bQ0gyXVtDSDJdW0NIMl1bQ0gyXVtDSDJdW0NIMl1PMw==

> <s_epik_cmdline>
J2VwaWtfcHl0aG9uJywgJy1waCcsICc3LjAnLCAnLXRuJywgJzgnLCAnLW1hJywgJzIwMCcsICctaW1hZScsICc8aW5maWxlLm1hZT4nLCAnLW9tYWUnLCAnPG91dGZpbGUubWFlPic=

> <r_lp_tautomer_probability>
1

> <r_epik_Ionization_Penalty>
  0.2078

> <r_epik_Ionization_Penalty_Charging>
  0.0000

> <r_epik_Ionization_Penalty_Neutral>
  0.2078

> <r_epik_State_Penalty>
  0.0822

> <r_epik_Charging_Adjusted_Penalty>
0.0821665

> <i_epik_Tot_Q>
0

> <i_epik_Tot_abs_Q>
0

> <s_lp_Force_Field>
OPLS_2005

> <r_lp_Energy>
35.6332

> <b_lp_Chiralities_Consistent>
1

> <s_lp_Variant>
BACE_52.smi:1-1

> <chiral flag>
1

> <version>
0

> <s_i_glide_gridfile>
second_dock_grid_2

> <i_i_glide_lignum>
99

> <i_i_glide_rotatable_bonds>
7

> <r_i_docking_score>
-2.46173

> <r_i_glide_ligand_efficiency>
-0.0647823

> <r_i_glide_ligand_efficiency_sa>
-0.217797

> <r_i_glide_ligand_efficiency_ln>
-0.530821

> <r_glide_XP_GScore>
-2.54393

> <r_i_glide_gscore>
-2.54393

> <r_i_glide_evdw>
-35.2991

> <r_i_glide_ecoul>
-4.81333

> <r_i_glide_energy>
-40.1124

> <r_i_glide_einternal>
4.33602

> <r_i_glide_emodel>
-54.7642

> <r_glide_XP_HBond>
-0.7

> <i_i_glide_confnum>
1

> <i_i_glide_posenum>
6

> <r_i_glide_eff_state_penalty>
0.0822

> <i_glide_XP_PoseRank>
1

$$$$
BACE_52.smi:1
                    3D
 Structure written by MMmdl.
 82 85  0  0  1  0            999 V2000
   17.8279   39.3772  -11.0181 C   0  0  0  0  0  0
   17.3915   38.7209   -9.7086 C   0  0  0  0  0  0
   18.6035   38.0921   -8.9936 C   0  0  0  0  0  0
   16.6309   39.6774   -8.7994 C   0  0  0  0  0  0
   16.4592   41.0528   -9.0989 C   0  0  0  0  0  0
   15.7631   41.8838   -8.1979 C   0  0  0  0  0  0
   15.2765   41.3495   -7.0572 N   0  3  0  0  0  0
   15.3880   40.0465   -6.7419 C   0  0  0  0  0  0
   16.0710   39.1820   -7.6062 C   0  0  0  0  0  0
   15.5405   43.3484   -8.4490 C   0  0  0  0  0  0
   14.4942   43.7083   -9.4812 C   0  0  0  0  0  0
   14.2431   44.0316   -8.0401 C   0  0  0  0  0  0
   16.7813   44.1330   -8.5042 N   0  0  0  0  0  0
   17.5539   44.1652   -7.2578 C   0  0  0  0  0  0
   18.5339   45.3556   -7.1965 C   0  0  1  0  0  0
   19.0299   45.4799   -5.8788 O   0  0  0  0  0  0
   19.7052   45.2675   -8.2132 C   0  0  2  0  0  0
   21.0758   44.7264   -7.7243 C   0  0  0  0  0  0
   21.1713   43.1824   -7.5747 C   0  0  2  0  0  0
   20.8638   42.7182   -6.1377 C   0  0  0  0  0  0
   22.5574   42.6786   -8.0598 C   0  0  0  0  0  0
   22.7430   41.1464   -8.1421 C   0  0  0  0  0  0
   21.8358   40.4326   -9.1606 C   0  0  0  0  0  0
   22.2554   40.6153  -10.6344 C   0  0  0  0  0  0
   21.2121   40.0224  -11.6089 C   0  0  0  0  0  0
   20.4812   41.0356  -12.5175 C   0  0  0  0  0  0
   19.9551   42.2938  -11.8061 C   0  0  0  0  0  0
   18.8589   42.8602  -12.5269 O   0  0  0  0  0  0
   18.3869   44.0815  -12.0933 C   0  0  0  0  0  0
   19.1587   44.9961  -11.3420 C   0  0  0  0  0  0
   18.5489   46.1580  -10.8349 C   0  0  0  0  0  0
   17.2190   46.4241  -11.2050 C   0  0  0  0  0  0
   16.5440   45.4971  -12.0187 C   0  0  0  0  0  0
   14.9097   45.8517  -12.4404 Cl  0  0  0  0  0  0
   17.1037   44.3386  -12.4399 N   0  0  0  0  0  0
   19.2991   47.0916   -9.9312 C   0  0  0  0  0  0
   19.3389   48.2936  -10.1849 O   0  0  0  0  0  0
   19.8910   46.5870   -8.8299 N   0  0  0  0  0  0
   17.9456   46.2577   -7.3789 H   0  0  0  0  0  0
   19.3850   44.5577   -8.9634 H   0  0  0  0  0  0
   20.4213   42.7425   -8.2299 H   0  0  0  0  0  0
   16.9812   39.7500  -11.5948 H   0  0  0  0  0  0
   18.3849   38.6804  -11.6407 H   0  0  0  0  0  0
   18.4730   40.2230  -10.8083 H   0  0  0  0  0  0
   16.7026   37.9126   -9.9635 H   0  0  0  0  0  0
   18.3043   37.5161   -8.1160 H   0  0  0  0  0  0
   19.3092   38.8556   -8.6652 H   0  0  0  0  0  0
   19.1404   37.4127   -9.6544 H   0  0  0  0  0  0
   16.8547   41.5014   -9.9972 H   0  0  0  0  0  0
   14.9532   39.7409   -5.8034 H   0  0  0  0  0  0
   16.1805   38.1500   -7.3324 H   0  0  0  0  0  0
   14.6687   44.5608  -10.1243 H   0  0  0  0  0  0
   13.9048   42.9045   -9.9201 H   0  0  0  0  0  0
   13.4701   43.4422   -7.5484 H   0  0  0  0  0  0
   14.2887   45.0784   -7.7501 H   0  0  0  0  0  0
   16.5710   45.0777   -8.8099 H   0  0  0  0  0  0
   16.8600   44.2884   -6.4401 H   0  0  0  0  0  0
   18.0577   43.2125   -7.0975 H   0  0  0  0  0  0
   19.6640   44.7894   -5.7383 H   0  0  0  0  0  0
   21.4158   45.2319   -6.8196 H   0  0  0  0  0  0
   21.8033   45.0270   -8.4793 H   0  0  0  0  0  0
   21.5919   43.1154   -5.4285 H   0  0  0  0  0  0
   20.8831   41.6314   -6.0559 H   0  0  0  0  0  0
   19.8735   43.0208   -5.8056 H   0  0  0  0  0  0
   22.7720   43.0917   -9.0449 H   0  0  0  0  0  0
   23.3268   43.0831   -7.4005 H   0  0  0  0  0  0
   23.7836   40.9260   -8.3876 H   0  0  0  0  0  0
   22.5895   40.7047   -7.1593 H   0  0  0  0  0  0
   21.8499   39.3626   -8.9378 H   0  0  0  0  0  0
   20.8001   40.7418   -9.0214 H   0  0  0  0  0  0
   22.4389   41.6638  -10.8614 H   0  0  0  0  0  0
   23.2188   40.1265  -10.7785 H   0  0  0  0  0  0
   21.6613   39.2743  -12.2571 H   0  0  0  0  0  0
   20.4974   39.4422  -11.0325 H   0  0  0  0  0  0
   19.6558   40.5205  -13.0102 H   0  0  0  0  0  0
   21.1562   41.3474  -13.3139 H   0  0  0  0  0  0
   19.6341   42.0759  -10.7874 H   0  0  0  0  0  0
   20.8007   42.9767  -11.7333 H   0  0  0  0  0  0
   20.1933   44.8173  -11.0936 H   0  0  0  0  0  0
   16.7236   47.3220  -10.8638 H   0  0  0  0  0  0
   20.4179   47.2468   -8.2788 H   0  0  0  0  0  0
   14.7995   41.9533   -6.3691 H   0  0  0  0  0  0
  1  2  1  0  0  0
  1 42  1  0  0  0
  1 43  1  0  0  0
  1 44  1  0  0  0
  2  3  1  0  0  0
  2  4  1  0  0  0
  2 45  1  0  0  0
  3 46  1  0  0  0
  3 47  1  0  0  0
  3 48  1  0  0  0
  4  9  1  0  0  0
  4  5  2  0  0  0
  5  6  1  0  0  0
  5 49  1  0  0  0
  6  7  2  0  0  0
  6 10  1  0  0  0
  7  8  1  0  0  0
  7 82  1  0  0  0
  8  9  2  0  0  0
  8 50  1  0  0  0
  9 51  1  0  0  0
 10 12  1  0  0  0
 10 11  1  0  0  0
 10 13  1  0  0  0
 11 12  1  0  0  0
 11 52  1  0  0  0
 11 53  1  0  0  0
 12 54  1  0  0  0
 12 55  1  0  0  0
 13 14  1  0  0  0
 13 56  1  0  0  0
 14 15  1  0  0  0
 14 57  1  0  0  0
 14 58  1  0  0  0
 15 39  1  0  0  0
 15 16  1  0  0  0
 15 17  1  0  0  0
 16 59  1  0  0  0
 17 40  1  0  0  0
 17 38  1  0  0  0
 17 18  1  0  0  0
 18 19  1  0  0  0
 18 60  1  0  0  0
 18 61  1  0  0  0
 19 41  1  0  0  0
 19 20  1  0  0  0
 19 21  1  0  0  0
 20 62  1  0  0  0
 20 63  1  0  0  0
 20 64  1  0  0  0
 21 22  1  0  0  0
 21 65  1  0  0  0
 21 66  1  0  0  0
 22 23  1  0  0  0
 22 67  1  0  0  0
 22 68  1  0  0  0
 23 24  1  0  0  0
 23 69  1  0  0  0
 23 70  1  0  0  0
 24 25  1  0  0  0
 24 71  1  0  0  0
 24 72  1  0  0  0
 25 26  1  0  0  0
 25 73  1  0  0  0
 25 74  1  0  0  0
 26 27  1  0  0  0
 26 75  1  0  0  0
 26 76  1  0  0  0
 27 28  1  0  0  0
 27 77  1  0  0  0
 27 78  1  0  0  0
 28 29  1  0  0  0
 29 35  1  0  0  0
 29 30  2  0  0  0
 30 31  1  0  0  0
 30 79  1  0  0  0
 31 32  2  0  0  0
 31 36  1  0  0  0
 32 33  1  0  0  0
 32 80  1  0  0  0
 33 34  1  0  0  0
 33 35  2  0  0  0
 36 37  2  0  0  0
 36 38  1  0  0  0
 38 81  1  0  0  0
M  CHG  1   7   1
M  END
> <s_m_source_file>
BACE_52.smi

> <i_m_source_file_index>
1

> <i_lp_mmshare_version>
42013

> <i_f3d_flags>
0

> <s_epik_input>
W0NIM11bQ0hdKFtDSDNdKWMxW2NIXWMobltjSF1bY0hdMSlDMihbQ0gyXVtDSDJdMilbTkhdW0NIMl1bQ0BASF0oW09IXSlbQ0BASF0oW05IXUMoPU8pYyhbY0hdYzM0KVtjSF1jKENsKW40KVtDSDJdW0NASF0oW0NIM10pW0NIMl1bQ0gyXVtDSDJdW0NIMl1bQ0gyXVtDSDJdW0NIMl1PMw==

> <s_epik_cmdline>
J2VwaWtfcHl0aG9uJywgJy1waCcsICc3LjAnLCAnLXRuJywgJzgnLCAnLW1hJywgJzIwMCcsICctaW1hZScsICc8aW5maWxlLm1hZT4nLCAnLW9tYWUnLCAnPG91dGZpbGUubWFlPic=

> <r_epik_Ionization_Penalty>
  2.3703

> <r_epik_Ionization_Penalty_Charging>
  2.3702

> <r_epik_Ionization_Penalty_Neutral>
  0.0000

> <r_epik_State_Penalty>
  1.5087

> <r_epik_Charging_Adjusted_Penalty>
3.87892

> <i_epik_Tot_Q>
1

> <i_epik_Tot_abs_Q>
1

> <s_lp_Force_Field>
OPLS_2005

> <r_lp_Energy>
49.7476

> <b_lp_Chiralities_Consistent>
1

> <s_lp_Variant>
BACE_52.smi:1-2

> <chiral flag>
1

> <version>
0

> <s_i_glide_gridfile>
second_dock_grid_2

> <i_i_glide_lignum>
100

> <i_i_glide_rotatable_bonds>
7

> <r_i_docking_score>
-4.35189

> <r_i_glide_ligand_efficiency>
-0.114523

> <r_i_glide_ligand_efficiency_sa>
-0.385025

> <r_i_glide_ligand_efficiency_ln>
-0.938396

> <r_glide_XP_GScore>
-5.86059

> <r_i_glide_gscore>
-5.86059

> <r_i_glide_evdw>
-33.9233

> <r_i_glide_ecoul>
-15.7266

> <r_i_glide_energy>
-49.6499

> <r_i_glide_einternal>
4.93136

> <r_i_glide_emodel>
-63.5843

> <r_glide_XP_HBond>
0

> <i_i_glide_confnum>
1

> <i_i_glide_posenum>
1

> <r_i_glide_eff_state_penalty>
1.5087

> <i_glide_XP_PoseRank>
1

$$$$
BACE_52.smi:1
                    3D
 Structure written by MMmdl.
 82 85  0  0  1  0            999 V2000
   18.2984   38.0093   -7.2161 C   0  0  0  0  0  0
   19.4577   38.3373   -8.1735 C   0  0  0  0  0  0
   18.9534   38.9191   -9.5059 C   0  0  0  0  0  0
   20.5056   39.2334   -7.5177 C   0  0  0  0  0  0
   20.2276   39.9497   -6.3304 C   0  0  0  0  0  0
   21.2364   40.7637   -5.7671 C   0  0  0  0  0  0
   22.4643   40.8918   -6.3214 N   0  0  0  0  0  0
   22.7279   40.2066   -7.4546 C   0  0  0  0  0  0
   21.7898   39.3685   -8.0895 C   0  0  0  0  0  0
   20.9970   41.5620   -4.4935 C   0  0  0  0  0  0
   21.9519   41.3471   -3.3436 C   0  0  0  0  0  0
   20.5447   40.8044   -3.2680 C   0  0  0  0  0  0
   20.4632   42.9183   -4.6915 N   0  3  0  0  0  0
   21.1549   43.7493   -5.7051 C   0  0  0  0  0  0
   22.4254   44.4154   -5.1192 C   0  0  1  0  0  0
   23.2111   43.3599   -4.5943 O   0  0  0  0  0  0
   23.3189   45.2391   -6.1093 C   0  0  2  0  0  0
   23.8312   44.3893   -7.3130 C   0  0  0  0  0  0
   22.8028   43.8832   -8.3669 C   0  0  2  0  0  0
   23.3940   42.6799   -9.1307 C   0  0  0  0  0  0
   22.3684   45.0083   -9.3413 C   0  0  0  0  0  0
   21.1132   44.7066  -10.1960 C   0  0  0  0  0  0
   20.7437   45.8326  -11.1880 C   0  0  0  0  0  0
   20.1709   47.1090  -10.5284 C   0  0  0  0  0  0
   20.8395   48.4271  -10.9914 C   0  0  0  0  0  0
   20.9165   49.5087   -9.8939 C   0  0  0  0  0  0
   22.0148   49.2024   -8.8614 C   0  0  0  0  0  0
   21.9582   50.0939   -7.7537 O   0  0  0  0  0  0
   22.5305   49.6669   -6.5708 C   0  0  0  0  0  0
   23.4358   48.5773   -6.4622 C   0  0  0  0  0  0
   23.8698   48.1695   -5.1820 C   0  0  0  0  0  0
   23.4481   48.9278   -4.0679 C   0  0  0  0  0  0
   22.5827   50.0225   -4.2719 C   0  0  0  0  0  0
   22.0697   50.9458   -2.9073 Cl  0  0  0  0  0  0
   22.1298   50.3782   -5.4939 N   0  0  0  0  0  0
   24.8268   47.0218   -4.9960 C   0  0  0  0  0  0
   25.8815   47.2212   -4.3949 O   0  0  0  0  0  0
   24.5165   45.7833   -5.4454 N   0  0  0  0  0  0
   22.1145   45.0583   -4.2945 H   0  0  0  0  0  0
   22.7226   46.0617   -6.4937 H   0  0  0  0  0  0
   21.9204   43.5120   -7.8496 H   0  0  0  0  0  0
   18.6651   37.5407   -6.3021 H   0  0  0  0  0  0
   17.5950   37.3147   -7.6765 H   0  0  0  0  0  0
   17.7384   38.9004   -6.9315 H   0  0  0  0  0  0
   19.9425   37.3895   -8.4114 H   0  0  0  0  0  0
   19.7793   39.0885  -10.1976 H   0  0  0  0  0  0
   18.4353   39.8684   -9.3676 H   0  0  0  0  0  0
   18.2577   38.2353   -9.9933 H   0  0  0  0  0  0
   19.2592   39.8807   -5.8567 H   0  0  0  0  0  0
   23.7175   40.3304   -7.8692 H   0  0  0  0  0  0
   22.0587   38.8454   -8.9957 H   0  0  0  0  0  0
   22.7617   40.6318   -3.4869 H   0  0  0  0  0  0
   22.1948   42.2086   -2.7215 H   0  0  0  0  0  0
   19.8469   41.3031   -2.5953 H   0  0  0  0  0  0
   20.4138   39.7263   -3.3607 H   0  0  0  0  0  0
   19.4889   42.8453   -4.9473 H   0  0  0  0  0  0
   21.4086   43.1398   -6.5737 H   0  0  0  0  0  0
   20.4448   44.5076   -6.0322 H   0  0  0  0  0  0
   23.9322   43.7343   -4.1117 H   0  0  0  0  0  0
   24.3636   43.5321   -6.8975 H   0  0  0  0  0  0
   24.5988   44.9541   -7.8456 H   0  0  0  0  0  0
   24.2798   42.9625   -9.7010 H   0  0  0  0  0  0
   22.6774   42.2434   -9.8254 H   0  0  0  0  0  0
   23.6848   41.8818   -8.4468 H   0  0  0  0  0  0
   22.1717   45.9046   -8.7601 H   0  0  0  0  0  0
   23.2032   45.2617   -9.9964 H   0  0  0  0  0  0
   21.2809   43.8018  -10.7790 H   0  0  0  0  0  0
   20.2614   44.4914   -9.5494 H   0  0  0  0  0  0
   21.6146   46.0591  -11.8033 H   0  0  0  0  0  0
   19.9994   45.4490  -11.8870 H   0  0  0  0  0  0
   19.1006   47.1680  -10.7306 H   0  0  0  0  0  0
   20.2232   47.0128   -9.4457 H   0  0  0  0  0  0
   21.8506   48.2458  -11.3573 H   0  0  0  0  0  0
   20.2862   48.8156  -11.8472 H   0  0  0  0  0  0
   19.9483   49.6038   -9.4008 H   0  0  0  0  0  0
   21.1232   50.4773  -10.3503 H   0  0  0  0  0  0
   21.8705   48.1832   -8.5128 H   0  0  0  0  0  0
   22.9993   49.2590   -9.3286 H   0  0  0  0  0  0
   23.7914   48.0453   -7.3321 H   0  0  0  0  0  0
   23.7774   48.6783   -3.0692 H   0  0  0  0  0  0
   25.2269   45.0873   -5.2689 H   0  0  0  0  0  0
   20.5236   43.4020   -3.8068 H   0  0  0  0  0  0
  1  2  1  0  0  0
  1 42  1  0  0  0
  1 43  1  0  0  0
  1 44  1  0  0  0
  2  3  1  0  0  0
  2  4  1  0  0  0
  2 45  1  0  0  0
  3 46  1  0  0  0
  3 47  1  0  0  0
  3 48  1  0  0  0
  4  9  1  0  0  0
  4  5  2  0  0  0
  5  6  1  0  0  0
  5 49  1  0  0  0
  6  7  2  0  0  0
  6 10  1  0  0  0
  7  8  1  0  0  0
  8  9  2  0  0  0
  8 50  1  0  0  0
  9 51  1  0  0  0
 10 12  1  0  0  0
 10 11  1  0  0  0
 10 13  1  0  0  0
 11 12  1  0  0  0
 11 52  1  0  0  0
 11 53  1  0  0  0
 12 54  1  0  0  0
 12 55  1  0  0  0
 13 14  1  0  0  0
 13 56  1  0  0  0
 13 82  1  0  0  0
 14 15  1  0  0  0
 14 57  1  0  0  0
 14 58  1  0  0  0
 15 39  1  0  0  0
 15 16  1  0  0  0
 15 17  1  0  0  0
 16 59  1  0  0  0
 17 40  1  0  0  0
 17 38  1  0  0  0
 17 18  1  0  0  0
 18 19  1  0  0  0
 18 60  1  0  0  0
 18 61  1  0  0  0
 19 41  1  0  0  0
 19 20  1  0  0  0
 19 21  1  0  0  0
 20 62  1  0  0  0
 20 63  1  0  0  0
 20 64  1  0  0  0
 21 22  1  0  0  0
 21 65  1  0  0  0
 21 66  1  0  0  0
 22 23  1  0  0  0
 22 67  1  0  0  0
 22 68  1  0  0  0
 23 24  1  0  0  0
 23 69  1  0  0  0
 23 70  1  0  0  0
 24 25  1  0  0  0
 24 71  1  0  0  0
 24 72  1  0  0  0
 25 26  1  0  0  0
 25 73  1  0  0  0
 25 74  1  0  0  0
 26 27  1  0  0  0
 26 75  1  0  0  0
 26 76  1  0  0  0
 27 28  1  0  0  0
 27 77  1  0  0  0
 27 78  1  0  0  0
 28 29  1  0  0  0
 29 35  1  0  0  0
 29 30  2  0  0  0
 30 31  1  0  0  0
 30 79  1  0  0  0
 31 32  2  0  0  0
 31 36  1  0  0  0
 32 33  1  0  0  0
 32 80  1  0  0  0
 33 34  1  0  0  0
 33 35  2  0  0  0
 36 37  2  0  0  0
 36 38  1  0  0  0
 38 81  1  0  0  0
M  CHG  1  13   1
M  END
> <s_m_source_file>
BACE_52.smi

> <i_m_source_file_index>
1

> <i_lp_mmshare_version>
42013

> <i_f3d_flags>
0

> <s_epik_input>
W0NIM11bQ0hdKFtDSDNdKWMxW2NIXWMobltjSF1bY0hdMSlDMihbQ0gyXVtDSDJdMilbTkhdW0NIMl1bQ0BASF0oW09IXSlbQ0BASF0oW05IXUMoPU8pYyhbY0hdYzM0KVtjSF1jKENsKW40KVtDSDJdW0NASF0oW0NIM10pW0NIMl1bQ0gyXVtDSDJdW0NIMl1bQ0gyXVtDSDJdW0NIMl1PMw==

> <s_epik_cmdline>
J2VwaWtfcHl0aG9uJywgJy1waCcsICc3LjAnLCAnLXRuJywgJzgnLCAnLW1hJywgJzIwMCcsICctaW1hZScsICc8aW5maWxlLm1hZT4nLCAnLW9tYWUnLCAnPG91dGZpbGUubWFlPic=

> <r_lp_tautomer_probability>
1

> <r_epik_Ionization_Penalty>
  0.7499

> <r_epik_Ionization_Penalty_Charging>
  0.7485

> <r_epik_Ionization_Penalty_Neutral>
  0.0014

> <r_epik_State_Penalty>
  1.7619

> <r_epik_Charging_Adjusted_Penalty>
2.51039

> <i_epik_Tot_Q>
1

> <i_epik_Tot_abs_Q>
1

> <s_lp_Force_Field>
OPLS_2005

> <r_lp_Energy>
33.2315

> <b_lp_Chiralities_Consistent>
1

> <s_lp_Variant>
BACE_52.smi:1-3

> <chiral flag>
1

> <version>
0

> <s_i_glide_gridfile>
second_dock_grid_2

> <i_i_glide_lignum>
101

> <i_i_glide_rotatable_bonds>
7

> <r_i_docking_score>
-1.12468

> <r_i_glide_ligand_efficiency>
-0.0295967

> <r_i_glide_ligand_efficiency_sa>
-0.0995034

> <r_i_glide_ligand_efficiency_ln>
-0.242513

> <r_glide_XP_GScore>
-2.88658

> <r_i_glide_gscore>
-2.88658

> <r_i_glide_evdw>
-32.4169

> <r_i_glide_ecoul>
-11.5111

> <r_i_glide_energy>
-43.928

> <r_i_glide_einternal>
12.5493

> <r_i_glide_emodel>
-56.4322

> <r_glide_XP_HBond>
-0.7

> <i_i_glide_confnum>
1

> <i_i_glide_posenum>
6

> <r_i_glide_eff_state_penalty>
1.7619

> <i_glide_XP_PoseRank>
1

$$$$
BACE_53.smi:1
                    3D
 Structure written by MMmdl.
 81 83  0  0  1  0            999 V2000
   22.3612   40.7804  -10.7604 C   0  0  0  0  0  0
   21.1596   39.9631  -11.2691 C   0  0  0  0  0  0
   20.2922   40.8400  -12.1913 C   0  0  0  0  0  0
   20.3265   39.3143  -10.1568 C   0  0  0  0  0  0
   19.1783   38.5651  -10.4952 C   0  0  0  0  0  0
   18.3578   37.9980   -9.5014 C   0  0  0  0  0  0
   18.6710   38.1798   -8.1428 C   0  0  0  0  0  0
   19.8245   38.9086   -7.7869 C   0  0  0  0  0  0
   20.1689   39.1458   -6.3347 C   0  0  0  0  0  0
   20.0600   40.5832   -6.0404 N   0  3  0  0  0  0
   20.9612   41.0875   -4.9848 C   0  0  0  0  0  0
   20.6756   42.5696   -4.6562 C   0  0  1  0  0  0
   21.5320   42.9500   -3.5954 O   0  0  0  0  0  0
   20.8022   43.5309   -5.8735 C   0  0  2  0  0  0
   22.1548   43.5417   -6.6415 C   0  0  0  0  0  0
   23.4602   43.9262   -5.9013 C   0  0  2  0  0  0
   23.4319   45.3243   -5.2567 C   0  0  0  0  0  0
   24.6775   43.7549   -6.8399 C   0  0  0  0  0  0
   24.8989   44.9042   -7.8473 C   0  0  0  0  0  0
   25.7060   44.4790   -9.0886 C   0  0  0  0  0  0
   24.8159   43.9522  -10.2290 C   0  0  0  0  0  0
   24.1910   45.0851  -11.0684 C   0  0  0  0  0  0
   23.0993   44.6116  -12.0452 C   0  0  0  0  0  0
   21.7406   44.3343  -11.3765 C   0  0  0  0  0  0
   20.9337   45.5955  -11.0195 C   0  0  0  0  0  0
   19.8891   45.3194   -9.9523 C   0  0  0  0  0  0
   20.1524   45.6410   -8.6069 C   0  0  0  0  0  0
   19.1840   45.3302   -7.6318 C   0  0  0  0  0  0
   17.9772   44.7328   -8.0490 C   0  0  0  0  0  0
   17.8096   44.4509   -9.4189 C   0  0  0  0  0  0
   18.7420   44.7307  -10.3560 N   0  0  0  0  0  0
   19.4347   45.6339   -6.1853 C   0  0  0  0  0  0
   18.8603   46.5735   -5.6401 O   0  0  0  0  0  0
   20.3119   44.8652   -5.5152 N   0  0  0  0  0  0
   20.6548   39.4540   -8.7884 C   0  0  0  0  0  0
   19.6603   42.6395   -4.2649 H   0  0  0  0  0  0
   20.0846   43.1422   -6.5968 H   0  0  0  0  0  0
   23.6068   43.2033   -5.0993 H   0  0  0  0  0  0
   23.1014   40.1496  -10.2672 H   0  0  0  0  0  0
   22.0505   41.5505  -10.0556 H   0  0  0  0  0  0
   22.8600   41.2891  -11.5855 H   0  0  0  0  0  0
   21.5649   39.1517  -11.8727 H   0  0  0  0  0  0
   19.5188   40.2618  -12.6961 H   0  0  0  0  0  0
   20.8982   41.3045  -12.9691 H   0  0  0  0  0  0
   19.7997   41.6352  -11.6304 H   0  0  0  0  0  0
   18.9076   38.4364  -11.5315 H   0  0  0  0  0  0
   17.4786   37.4373   -9.7843 H   0  0  0  0  0  0
   18.0242   37.7573   -7.3854 H   0  0  0  0  0  0
   19.4845   38.6062   -5.6798 H   0  0  0  0  0  0
   21.1805   38.7819   -6.1529 H   0  0  0  0  0  0
   20.2444   41.0853   -6.8953 H   0  0  0  0  0  0
   20.8176   40.4837   -4.0870 H   0  0  0  0  0  0
   21.9994   40.9520   -5.2926 H   0  0  0  0  0  0
   21.2593   43.7882   -3.2437 H   0  0  0  0  0  0
   22.2939   42.5466   -7.0653 H   0  0  0  0  0  0
   22.0566   44.1830   -7.5137 H   0  0  0  0  0  0
   23.1615   46.0952   -5.9777 H   0  0  0  0  0  0
   24.4070   45.5815   -4.8411 H   0  0  0  0  0  0
   22.7168   45.3692   -4.4393 H   0  0  0  0  0  0
   25.5824   43.6501   -6.2386 H   0  0  0  0  0  0
   24.5822   42.8090   -7.3766 H   0  0  0  0  0  0
   23.9490   45.3348   -8.1626 H   0  0  0  0  0  0
   25.4294   45.7093   -7.3373 H   0  0  0  0  0  0
   26.2903   45.3241   -9.4552 H   0  0  0  0  0  0
   26.4372   43.7210   -8.8049 H   0  0  0  0  0  0
   25.4141   43.3224  -10.8903 H   0  0  0  0  0  0
   24.0481   43.2987   -9.8148 H   0  0  0  0  0  0
   23.7936   45.8642  -10.4197 H   0  0  0  0  0  0
   24.9890   45.5628  -11.6386 H   0  0  0  0  0  0
   22.9660   45.3532  -12.8371 H   0  0  0  0  0  0
   23.4473   43.7072  -12.5480 H   0  0  0  0  0  0
   21.1374   43.7031  -12.0303 H   0  0  0  0  0  0
   21.9106   43.7571  -10.4692 H   0  0  0  0  0  0
   21.5931   46.3819  -10.6542 H   0  0  0  0  0  0
   20.4505   45.9967  -11.9111 H   0  0  0  0  0  0
   21.0851   46.1102   -8.3272 H   0  0  0  0  0  0
   17.2020   44.4795   -7.3391 H   0  0  0  0  0  0
   16.9037   43.9835   -9.7728 H   0  0  0  0  0  0
   20.5278   45.1706   -4.5774 H   0  0  0  0  0  0
   21.5337   40.0004   -8.4828 H   0  0  0  0  0  0
   19.0992   40.7830   -5.7546 H   0  0  0  0  0  0
  1  2  1  0  0  0
  1 39  1  0  0  0
  1 40  1  0  0  0
  1 41  1  0  0  0
  2  3  1  0  0  0
  2  4  1  0  0  0
  2 42  1  0  0  0
  3 43  1  0  0  0
  3 44  1  0  0  0
  3 45  1  0  0  0
  4 35  1  0  0  0
  4  5  2  0  0  0
  5  6  1  0  0  0
  5 46  1  0  0  0
  6  7  2  0  0  0
  6 47  1  0  0  0
  7  8  1  0  0  0
  7 48  1  0  0  0
  8  9  1  0  0  0
  8 35  2  0  0  0
  9 10  1  0  0  0
  9 49  1  0  0  0
  9 50  1  0  0  0
 10 11  1  0  0  0
 10 51  1  0  0  0
 10 81  1  0  0  0
 11 12  1  0  0  0
 11 52  1  0  0  0
 11 53  1  0  0  0
 12 36  1  0  0  0
 12 13  1  0  0  0
 12 14  1  0  0  0
 13 54  1  0  0  0
 14 37  1  0  0  0
 14 34  1  0  0  0
 14 15  1  0  0  0
 15 16  1  0  0  0
 15 55  1  0  0  0
 15 56  1  0  0  0
 16 38  1  0  0  0
 16 17  1  0  0  0
 16 18  1  0  0  0
 17 57  1  0  0  0
 17 58  1  0  0  0
 17 59  1  0  0  0
 18 19  1  0  0  0
 18 60  1  0  0  0
 18 61  1  0  0  0
 19 20  1  0  0  0
 19 62  1  0  0  0
 19 63  1  0  0  0
 20 21  1  0  0  0
 20 64  1  0  0  0
 20 65  1  0  0  0
 21 22  1  0  0  0
 21 66  1  0  0  0
 21 67  1  0  0  0
 22 23  1  0  0  0
 22 68  1  0  0  0
 22 69  1  0  0  0
 23 24  1  0  0  0
 23 70  1  0  0  0
 23 71  1  0  0  0
 24 25  1  0  0  0
 24 72  1  0  0  0
 24 73  1  0  0  0
 25 26  1  0  0  0
 25 74  1  0  0  0
 25 75  1  0  0  0
 26 31  1  0  0  0
 26 27  2  0  0  0
 27 28  1  0  0  0
 27 76  1  0  0  0
 28 29  2  0  0  0
 28 32  1  0  0  0
 29 30  1  0  0  0
 29 77  1  0  0  0
 30 31  2  0  0  0
 30 78  1  0  0  0
 32 33  2  0  0  0
 32 34  1  0  0  0
 34 79  1  0  0  0
 35 80  1  0  0  0
M  CHG  1  10   1
M  END
> <s_m_source_file>
BACE_53.smi

> <i_m_source_file_index>
1

> <i_lp_mmshare_version>
42013

> <i_f3d_flags>
0

> <s_epik_input>
W0NIM11bQ0hdKFtDSDNdKWMxW2NIXVtjSF1bY0hdYyhbY0hdMSlbQ0gyXVtOSF1bQ0gyXVtDQEBIXShbT0hdKVtDQEBIXShbTkhdQyg9TyljKFtjSF1jMjMpW2NIXVtjSF1uMylbQ0gyXVtDQEhdKFtDSDNdKVtDSDJdW0NIMl1bQ0gyXVtDSDJdW0NIMl1bQ0gyXVtDSDJdW0NIMl0y

> <s_epik_cmdline>
J2VwaWtfcHl0aG9uJywgJy1waCcsICc3LjAnLCAnLXRuJywgJzgnLCAnLW1hJywgJzIwMCcsICctaW1hZScsICc8aW5maWxlLm1hZT4nLCAnLW9tYWUnLCAnPG91dGZpbGUubWFlPic=

> <r_epik_Ionization_Penalty>
  0.0181

> <r_epik_Ionization_Penalty_Charging>
  0.0173

> <r_epik_Ionization_Penalty_Neutral>
  0.0008

> <r_epik_State_Penalty>
  0.0137

> <r_epik_Charging_Adjusted_Penalty>
0.0310503

> <i_epik_Tot_Q>
1

> <i_epik_Tot_abs_Q>
1

> <s_lp_Force_Field>
OPLS_2005

> <r_lp_Energy>
33.3199

> <b_lp_Chiralities_Consistent>
1

> <s_lp_Variant>
BACE_53.smi:1-1

> <chiral flag>
1

> <version>
0

> <s_i_glide_gridfile>
second_dock_grid_2

> <i_i_glide_lignum>
102

> <i_i_glide_rotatable_bonds>
7

> <r_i_docking_score>
-5.5381

> <r_i_glide_ligand_efficiency>
-0.158232

> <r_i_glide_ligand_efficiency_sa>
-0.517586

> <r_i_glide_ligand_efficiency_ln>
-1.21574

> <r_glide_XP_GScore>
-5.5518

> <r_i_glide_gscore>
-5.5518

> <r_i_glide_evdw>
-33.1656

> <r_i_glide_ecoul>
-14.8038

> <r_i_glide_energy>
-47.9694

> <r_i_glide_einternal>
8.07672

> <r_i_glide_emodel>
-63.1903

> <r_glide_XP_HBond>
-0.716066

> <i_i_glide_confnum>
1

> <i_i_glide_posenum>
12

> <r_i_glide_eff_state_penalty>
0.0137

> <i_glide_XP_PoseRank>
1

$$$$
BACE_53.smi:1
                    3D
 Structure written by MMmdl.
 80 82  0  0  1  0            999 V2000
   22.7312   42.5487   -3.3929 C   0  0  0  0  0  0
   21.9018   42.8800   -4.6392 C   0  0  0  0  0  0
   20.3992   42.9057   -4.3263 C   0  0  0  0  0  0
   22.2287   41.9259   -5.7802 C   0  0  0  0  0  0
   21.9127   40.5527   -5.6861 C   0  0  0  0  0  0
   22.2283   39.6794   -6.7431 C   0  0  0  0  0  0
   22.8634   40.1685   -7.9001 C   0  0  0  0  0  0
   23.1609   41.5415   -8.0163 C   0  0  0  0  0  0
   23.7892   42.0842   -9.2894 C   0  0  0  0  0  0
   22.8585   42.2324  -10.4198 N   0  0  0  0  0  0
   21.9852   43.4139  -10.4016 C   0  0  0  0  0  0
   20.7302   43.2895   -9.4899 C   0  0  1  0  0  0
   20.3787   44.6049   -9.1025 O   0  0  0  0  0  0
   19.4410   42.6294  -10.0590 C   0  0  2  0  0  0
   19.2804   41.1149   -9.7733 C   0  0  0  0  0  0
   20.2919   40.1078  -10.3697 C   0  0  2  0  0  0
   20.3950   40.0978  -11.9084 C   0  0  0  0  0  0
   20.0348   38.7009   -9.7974 C   0  0  0  0  0  0
   18.8490   37.9623  -10.4400 C   0  0  0  0  0  0
   18.0770   37.0728   -9.4600 C   0  0  0  0  0  0
   17.0830   37.8603   -8.5927 C   0  0  0  0  0  0
   15.6908   37.9950   -9.2390 C   0  0  0  0  0  0
   14.6965   38.7972   -8.3763 C   0  0  0  0  0  0
   14.9064   40.3182   -8.4642 C   0  0  0  0  0  0
   14.3298   40.9303   -9.7536 C   0  0  0  0  0  0
   15.0306   42.2184  -10.1317 C   0  0  0  0  0  0
   16.1479   42.1755  -10.9872 C   0  0  0  0  0  0
   16.8474   43.3697  -11.2406 C   0  0  0  0  0  0
   16.3736   44.5664  -10.6693 C   0  0  0  0  0  0
   15.2400   44.5027   -9.8377 C   0  0  0  0  0  0
   14.5748   43.3602   -9.5718 N   0  0  0  0  0  0
   18.0981   43.3540  -12.0611 C   0  0  0  0  0  0
   18.0591   43.6870  -13.2400 O   0  0  0  0  0  0
   19.2334   42.9457  -11.4723 N   0  0  0  0  0  0
   22.8601   42.4121   -6.9454 C   0  0  0  0  0  0
   20.9615   42.7859   -8.5605 H   0  0  0  0  0  0
   18.6258   43.0662   -9.4805 H   0  0  0  0  0  0
   21.2667   40.3810   -9.9920 H   0  0  0  0  0  0
   23.7917   42.5502   -3.6380 H   0  0  0  0  0  0
   22.4844   41.5639   -2.9955 H   0  0  0  0  0  0
   22.5680   43.2802   -2.6002 H   0  0  0  0  0  0
   22.1809   43.8855   -4.9570 H   0  0  0  0  0  0
   19.8143   43.1511   -5.2134 H   0  0  0  0  0  0
   20.1671   43.6469   -3.5610 H   0  0  0  0  0  0
   20.0569   41.9371   -3.9607 H   0  0  0  0  0  0
   21.4299   40.1629   -4.8007 H   0  0  0  0  0  0
   21.9881   38.6303   -6.6641 H   0  0  0  0  0  0
   23.1029   39.4922   -8.7081 H   0  0  0  0  0  0
   24.3035   43.0254   -9.0846 H   0  0  0  0  0  0
   24.5707   41.3768   -9.5744 H   0  0  0  0  0  0
   23.3810   42.1842  -11.2918 H   0  0  0  0  0  0
   22.5797   44.2712  -10.0798 H   0  0  0  0  0  0
   21.6805   43.6564  -11.4203 H   0  0  0  0  0  0
   19.7319   44.5492   -8.4151 H   0  0  0  0  0  0
   19.2939   40.9981   -8.6879 H   0  0  0  0  0  0
   18.2796   40.8060  -10.0651 H   0  0  0  0  0  0
   19.4181   39.9985  -12.3821 H   0  0  0  0  0  0
   21.0198   39.2733  -12.2520 H   0  0  0  0  0  0
   20.8561   41.0100  -12.2828 H   0  0  0  0  0  0
   20.9309   38.0910   -9.9178 H   0  0  0  0  0  0
   19.8943   38.7762   -8.7181 H   0  0  0  0  0  0
   18.1507   38.6518  -10.9129 H   0  0  0  0  0  0
   19.2597   37.3497  -11.2397 H   0  0  0  0  0  0
   17.5400   36.2974  -10.0045 H   0  0  0  0  0  0
   18.7892   36.5502   -8.8287 H   0  0  0  0  0  0
   16.9719   37.3501   -7.6400 H   0  0  0  0  0  0
   17.4967   38.8372   -8.3461 H   0  0  0  0  0  0
   15.7807   38.4391  -10.2298 H   0  0  0  0  0  0
   15.2845   36.9968   -9.4001 H   0  0  0  0  0  0
   13.6730   38.5613   -8.6726 H   0  0  0  0  0  0
   14.7823   38.4760   -7.3359 H   0  0  0  0  0  0
   14.4603   40.8125   -7.6006 H   0  0  0  0  0  0
   15.9737   40.5301   -8.3959 H   0  0  0  0  0  0
   14.4259   40.2360  -10.5885 H   0  0  0  0  0  0
   13.2602   41.1059   -9.6404 H   0  0  0  0  0  0
   16.4889   41.2354  -11.3989 H   0  0  0  0  0  0
   16.8842   45.5044  -10.8350 H   0  0  0  0  0  0
   14.8612   45.3943   -9.3628 H   0  0  0  0  0  0
   20.0578   42.9084  -12.0505 H   0  0  0  0  0  0
   23.0991   43.4621   -7.0310 H   0  0  0  0  0  0
  1  2  1  0  0  0
  1 39  1  0  0  0
  1 40  1  0  0  0
  1 41  1  0  0  0
  2  3  1  0  0  0
  2  4  1  0  0  0
  2 42  1  0  0  0
  3 43  1  0  0  0
  3 44  1  0  0  0
  3 45  1  0  0  0
  4 35  1  0  0  0
  4  5  2  0  0  0
  5  6  1  0  0  0
  5 46  1  0  0  0
  6  7  2  0  0  0
  6 47  1  0  0  0
  7  8  1  0  0  0
  7 48  1  0  0  0
  8  9  1  0  0  0
  8 35  2  0  0  0
  9 10  1  0  0  0
  9 49  1  0  0  0
  9 50  1  0  0  0
 10 11  1  0  0  0
 10 51  1  0  0  0
 11 12  1  0  0  0
 11 52  1  0  0  0
 11 53  1  0  0  0
 12 36  1  0  0  0
 12 13  1  0  0  0
 12 14  1  0  0  0
 13 54  1  0  0  0
 14 37  1  0  0  0
 14 34  1  0  0  0
 14 15  1  0  0  0
 15 16  1  0  0  0
 15 55  1  0  0  0
 15 56  1  0  0  0
 16 38  1  0  0  0
 16 17  1  0  0  0
 16 18  1  0  0  0
 17 57  1  0  0  0
 17 58  1  0  0  0
 17 59  1  0  0  0
 18 19  1  0  0  0
 18 60  1  0  0  0
 18 61  1  0  0  0
 19 20  1  0  0  0
 19 62  1  0  0  0
 19 63  1  0  0  0
 20 21  1  0  0  0
 20 64  1  0  0  0
 20 65  1  0  0  0
 21 22  1  0  0  0
 21 66  1  0  0  0
 21 67  1  0  0  0
 22 23  1  0  0  0
 22 68  1  0  0  0
 22 69  1  0  0  0
 23 24  1  0  0  0
 23 70  1  0  0  0
 23 71  1  0  0  0
 24 25  1  0  0  0
 24 72  1  0  0  0
 24 73  1  0  0  0
 25 26  1  0  0  0
 25 74  1  0  0  0
 25 75  1  0  0  0
 26 31  1  0  0  0
 26 27  2  0  0  0
 27 28  1  0  0  0
 27 76  1  0  0  0
 28 29  2  0  0  0
 28 32  1  0  0  0
 29 30  1  0  0  0
 29 77  1  0  0  0
 30 31  2  0  0  0
 30 78  1  0  0  0
 32 33  2  0  0  0
 32 34  1  0  0  0
 34 79  1  0  0  0
 35 80  1  0  0  0
M  END
> <s_m_source_file>
BACE_53.smi

> <i_m_source_file_index>
1

> <i_lp_mmshare_version>
42013

> <i_f3d_flags>
0

> <s_epik_input>
W0NIM11bQ0hdKFtDSDNdKWMxW2NIXVtjSF1bY0hdYyhbY0hdMSlbQ0gyXVtOSF1bQ0gyXVtDQEBIXShbT0hdKVtDQEBIXShbTkhdQyg9TyljKFtjSF1jMjMpW2NIXVtjSF1uMylbQ0gyXVtDQEhdKFtDSDNdKVtDSDJdW0NIMl1bQ0gyXVtDSDJdW0NIMl1bQ0gyXVtDSDJdW0NIMl0y

> <s_epik_cmdline>
J2VwaWtfcHl0aG9uJywgJy1waCcsICc3LjAnLCAnLXRuJywgJzgnLCAnLW1hJywgJzIwMCcsICctaW1hZScsICc8aW5maWxlLm1hZT4nLCAnLW9tYWUnLCAnPG91dGZpbGUubWFlPic=

> <r_epik_Ionization_Penalty>
  2.1025

> <r_epik_Ionization_Penalty_Charging>
  0.0000

> <r_epik_Ionization_Penalty_Neutral>
  2.1025

> <r_epik_State_Penalty>
  2.2376

> <r_epik_Charging_Adjusted_Penalty>
2.23761

> <i_epik_Tot_Q>
0

> <i_epik_Tot_abs_Q>
0

> <s_lp_Force_Field>
OPLS_2005

> <r_lp_Energy>
40.4993

> <b_lp_Chiralities_Consistent>
1

> <s_lp_Variant>
BACE_53.smi:1-2

> <chiral flag>
1

> <version>
0

> <s_i_glide_gridfile>
second_dock_grid_2

> <i_i_glide_lignum>
103

> <i_i_glide_rotatable_bonds>
7

> <r_i_docking_score>
-2.39672

> <r_i_glide_ligand_efficiency>
-0.0684777

> <r_i_glide_ligand_efficiency_sa>
-0.223995

> <r_i_glide_ligand_efficiency_ln>
-0.526133

> <r_glide_XP_GScore>
-4.63432

> <r_i_glide_gscore>
-4.63432

> <r_i_glide_evdw>
-40.4816

> <r_i_glide_ecoul>
-6.94264

> <r_i_glide_energy>
-47.4243

> <r_i_glide_einternal>
5.82963

> <r_i_glide_emodel>
-63.8844

> <r_glide_XP_HBond>
-1.89

> <i_i_glide_confnum>
1

> <i_i_glide_posenum>
1

> <r_i_glide_eff_state_penalty>
2.2376

> <i_glide_XP_PoseRank>
1

$$$$
BACE_54.smi:1
                    3D
 Structure written by MMmdl.
 77 79  0  0  1  0            999 V2000
   22.8600   43.0190   -3.9955 C   0  0  0  0  0  0
   21.4840   42.5144   -4.4727 C   0  0  0  0  0  0
   20.6768   42.0690   -3.2407 C   0  0  0  0  0  0
   21.6113   41.4463   -5.5702 C   0  0  0  0  0  0
   20.9125   40.2174   -5.5173 C   0  0  0  0  0  0
   21.1252   39.2299   -6.4992 C   0  0  0  0  0  0
   22.0608   39.4387   -7.5274 C   0  0  0  0  0  0
   22.7344   40.6735   -7.6193 C   0  0  0  0  0  0
   23.7895   40.9184   -8.6873 C   0  0  0  0  0  0
   23.3823   40.5501  -10.0586 N   0  3  0  0  0  0
   22.0712   41.0334  -10.5334 C   0  0  0  0  0  0
   21.9373   42.5744  -10.4749 C   0  0  1  0  0  0
   22.9767   43.1039  -11.2807 O   0  0  0  0  0  0
   20.5832   43.1734  -10.9568 C   0  0  2  0  0  0
   20.3881   44.6017  -10.3907 C   0  0  0  0  0  0
   19.3410   45.5031  -11.0933 C   0  0  2  0  0  0
   19.4888   46.9625  -10.6308 C   0  0  0  0  0  0
   17.8709   45.0372  -10.9798 C   0  0  0  0  0  0
   17.3467   44.8303   -9.5482 C   0  0  0  0  0  0
   16.0022   44.3895   -9.6406 O   0  0  0  0  0  0
   15.5179   43.8057   -8.4411 C   0  0  0  0  0  0
   14.0952   43.2916   -8.6918 C   0  0  0  0  0  0
   13.9872   42.1662   -9.7429 C   0  0  0  0  0  0
   14.4603   40.9148   -9.2494 O   0  0  0  0  0  0
   15.6839   40.4224   -9.6441 C   0  0  0  0  0  0
   16.6753   41.1686  -10.3214 C   0  0  0  0  0  0
   17.8829   40.5344  -10.6674 C   0  0  0  0  0  0
   18.0615   39.1787  -10.3314 C   0  0  0  0  0  0
   17.0228   38.5235   -9.6402 C   0  0  0  0  0  0
   17.1473   37.0721   -9.2270 C   0  0  0  0  0  0
   15.8630   39.1271   -9.3134 N   0  0  0  0  0  0
   18.9719   41.3043  -11.3387 C   0  0  0  0  0  0
   19.4177   40.9782  -12.4394 O   0  0  0  0  0  0
   19.4485   42.3215  -10.6048 N   0  0  0  0  0  0
   22.4695   41.6798   -6.6663 C   0  0  0  0  0  0
   22.0946   42.9026   -9.4459 H   0  0  0  0  0  0
   20.6108   43.2461  -12.0399 H   0  0  0  0  0  0
   19.5842   45.4992  -12.1563 H   0  0  0  0  0  0
   23.4257   43.5123   -4.7846 H   0  0  0  0  0  0
   23.4689   42.1983   -3.6164 H   0  0  0  0  0  0
   22.7535   43.7488   -3.1928 H   0  0  0  0  0  0
   20.9574   43.3584   -4.9195 H   0  0  0  0  0  0
   19.6600   41.8018   -3.5086 H   0  0  0  0  0  0
   20.6073   42.8691   -2.5035 H   0  0  0  0  0  0
   21.1328   41.2082   -2.7506 H   0  0  0  0  0  0
   20.2119   40.0030   -4.7258 H   0  0  0  0  0  0
   20.5904   38.2927   -6.4402 H   0  0  0  0  0  0
   22.2482   38.6510   -8.2419 H   0  0  0  0  0  0
   24.1019   41.9640   -8.6774 H   0  0  0  0  0  0
   24.6723   40.3357   -8.4405 H   0  0  0  0  0  0
   24.0796   40.9079  -10.6953 H   0  0  0  0  0  0
   21.9511   40.6810  -11.5575 H   0  0  0  0  0  0
   21.2950   40.5469   -9.9431 H   0  0  0  0  0  0
   22.8899   42.7654  -12.1631 H   0  0  0  0  0  0
   20.1962   44.5585   -9.3181 H   0  0  0  0  0  0
   21.3475   45.1144  -10.4771 H   0  0  0  0  0  0
   19.3207   47.0622   -9.5582 H   0  0  0  0  0  0
   18.7805   47.6152  -11.1422 H   0  0  0  0  0  0
   20.4888   47.3442  -10.8411 H   0  0  0  0  0  0
   17.2297   45.7609  -11.4838 H   0  0  0  0  0  0
   17.7434   44.1137  -11.5432 H   0  0  0  0  0  0
   17.9510   44.0840   -9.0322 H   0  0  0  0  0  0
   17.3889   45.7497   -8.9645 H   0  0  0  0  0  0
   16.1590   42.9872   -8.1115 H   0  0  0  0  0  0
   15.5148   44.5528   -7.6468 H   0  0  0  0  0  0
   13.6658   42.9498   -7.7501 H   0  0  0  0  0  0
   13.4765   44.1295   -9.0115 H   0  0  0  0  0  0
   12.9294   42.0142   -9.9583 H   0  0  0  0  0  0
   14.4167   42.4550  -10.7006 H   0  0  0  0  0  0
   16.5344   42.2057  -10.5694 H   0  0  0  0  0  0
   18.9739   38.6567  -10.5823 H   0  0  0  0  0  0
   18.1000   36.6512   -9.5494 H   0  0  0  0  0  0
   16.3454   36.4841   -9.6728 H   0  0  0  0  0  0
   17.0813   36.9797   -8.1411 H   0  0  0  0  0  0
   19.0096   42.4814   -9.7086 H   0  0  0  0  0  0
   22.9953   42.6203   -6.7420 H   0  0  0  0  0  0
   23.4160   39.5390  -10.1124 H   0  0  0  0  0  0
  1  2  1  0  0  0
  1 39  1  0  0  0
  1 40  1  0  0  0
  1 41  1  0  0  0
  2  3  1  0  0  0
  2  4  1  0  0  0
  2 42  1  0  0  0
  3 43  1  0  0  0
  3 44  1  0  0  0
  3 45  1  0  0  0
  4 35  1  0  0  0
  4  5  2  0  0  0
  5  6  1  0  0  0
  5 46  1  0  0  0
  6  7  2  0  0  0
  6 47  1  0  0  0
  7  8  1  0  0  0
  7 48  1  0  0  0
  8  9  1  0  0  0
  8 35  2  0  0  0
  9 10  1  0  0  0
  9 49  1  0  0  0
  9 50  1  0  0  0
 10 11  1  0  0  0
 10 51  1  0  0  0
 10 77  1  0  0  0
 11 12  1  0  0  0
 11 52  1  0  0  0
 11 53  1  0  0  0
 12 36  1  0  0  0
 12 13  1  0  0  0
 12 14  1  0  0  0
 13 54  1  0  0  0
 14 37  1  0  0  0
 14 34  1  0  0  0
 14 15  1  0  0  0
 15 16  1  0  0  0
 15 55  1  0  0  0
 15 56  1  0  0  0
 16 38  1  0  0  0
 16 17  1  0  0  0
 16 18  1  0  0  0
 17 57  1  0  0  0
 17 58  1  0  0  0
 17 59  1  0  0  0
 18 19  1  0  0  0
 18 60  1  0  0  0
 18 61  1  0  0  0
 19 20  1  0  0  0
 19 62  1  0  0  0
 19 63  1  0  0  0
 20 21  1  0  0  0
 21 22  1  0  0  0
 21 64  1  0  0  0
 21 65  1  0  0  0
 22 23  1  0  0  0
 22 66  1  0  0  0
 22 67  1  0  0  0
 23 24  1  0  0  0
 23 68  1  0  0  0
 23 69  1  0  0  0
 24 25  1  0  0  0
 25 31  1  0  0  0
 25 26  2  0  0  0
 26 27  1  0  0  0
 26 70  1  0  0  0
 27 28  2  0  0  0
 27 32  1  0  0  0
 28 29  1  0  0  0
 28 71  1  0  0  0
 29 30  1  0  0  0
 29 31  2  0  0  0
 30 72  1  0  0  0
 30 73  1  0  0  0
 30 74  1  0  0  0
 32 33  2  0  0  0
 32 34  1  0  0  0
 34 75  1  0  0  0
 35 76  1  0  0  0
M  CHG  1  10   1
M  END
> <s_m_source_file>
BACE_54.smi

> <i_m_source_file_index>
1

> <i_lp_mmshare_version>
42013

> <i_f3d_flags>
0

> <s_epik_input>
W0NIM11bQ0hdKFtDSDNdKWMxW2NIXVtjSF1bY0hdYyhbY0hdMSlbQ0gyXVtOSF1bQ0gyXVtDQEBIXShbT0hdKVtDQEBIXShbTkhdQyg9TyljKFtjSF1jMjMpW2NIXWMobjMpW0NIM10pW0NIMl1bQ0BIXShbQ0gzXSlbQ0gyXVtDSDJdT1tDSDJdW0NIMl1bQ0gyXU8y

> <s_epik_cmdline>
J2VwaWtfcHl0aG9uJywgJy1waCcsICc3LjAnLCAnLXRuJywgJzgnLCAnLW1hJywgJzIwMCcsICctaW1hZScsICc8aW5maWxlLm1hZT4nLCAnLW9tYWUnLCAnPG91dGZpbGUubWFlPic=

> <r_lp_tautomer_probability>
1

> <r_epik_Ionization_Penalty>
  0.0176

> <r_epik_Ionization_Penalty_Charging>
  0.0176

> <r_epik_Ionization_Penalty_Neutral>
  0.0000

> <r_epik_State_Penalty>
  0.0139

> <r_epik_Charging_Adjusted_Penalty>
0.0314671

> <i_epik_Tot_Q>
1

> <i_epik_Tot_abs_Q>
1

> <s_lp_Force_Field>
OPLS_2005

> <r_lp_Energy>
26.044

> <b_lp_Chiralities_Consistent>
1

> <s_lp_Variant>
BACE_54.smi:1-1

> <chiral flag>
1

> <version>
0

> <s_i_glide_gridfile>
second_dock_grid_2

> <i_i_glide_lignum>
104

> <i_i_glide_rotatable_bonds>
7

> <r_i_docking_score>
-4.55936

> <r_i_glide_ligand_efficiency>
-0.130267

> <r_i_glide_ligand_efficiency_sa>
-0.426113

> <r_i_glide_ligand_efficiency_ln>
-1.00088

> <r_glide_XP_GScore>
-4.57326

> <r_i_glide_gscore>
-4.57326

> <r_i_glide_evdw>
-37.7655

> <r_i_glide_ecoul>
-5.03801

> <r_i_glide_energy>
-42.8035

> <r_i_glide_einternal>
4.67522

> <r_i_glide_emodel>
-56.5879

> <r_glide_XP_HBond>
-0.7

> <i_i_glide_confnum>
1

> <i_i_glide_posenum>
10

> <r_i_glide_eff_state_penalty>
0.0139

> <i_glide_XP_PoseRank>
1

$$$$
BACE_54.smi:1
                    3D
 Structure written by MMmdl.
 76 78  0  0  1  0            999 V2000
   17.1203   38.9325   -7.2140 C   0  0  0  0  0  0
   16.9304   38.5755   -8.6973 C   0  0  0  0  0  0
   16.9013   37.0583   -8.9481 C   0  0  0  0  0  0
   17.9786   39.2569   -9.5642 C   0  0  0  0  0  0
   17.5756   40.2240  -10.5089 C   0  0  0  0  0  0
   18.5278   40.8449  -11.3387 C   0  0  0  0  0  0
   19.8857   40.4974  -11.2291 C   0  0  0  0  0  0
   20.3045   39.5459  -10.2742 C   0  0  0  0  0  0
   21.7738   39.1848  -10.1589 C   0  0  0  0  0  0
   22.4574   39.7523   -8.9923 N   0  0  0  0  0  0
   22.5084   41.2166   -8.9385 C   0  0  0  0  0  0
   23.4714   41.8531   -9.9731 C   0  0  1  0  0  0
   22.8594   41.9088  -11.2400 O   0  0  0  0  0  0
   23.9255   43.3089   -9.6467 C   0  0  2  0  0  0
   25.2075   43.2779   -8.7784 C   0  0  0  0  0  0
   26.0232   44.5883   -8.6617 C   0  0  2  0  0  0
   27.3828   44.3110   -7.9991 C   0  0  0  0  0  0
   25.3040   45.7704   -7.9738 C   0  0  0  0  0  0
   24.7965   45.5126   -6.5451 C   0  0  0  0  0  0
   24.1050   46.6767   -6.1314 O   0  0  0  0  0  0
   23.3548   46.4977   -4.9429 C   0  0  0  0  0  0
   22.6223   47.8096   -4.6361 C   0  0  0  0  0  0
   21.5729   48.2308   -5.6838 C   0  0  0  0  0  0
   20.4020   47.4115   -5.6401 O   0  0  0  0  0  0
   20.1655   46.4951   -6.6426 C   0  0  0  0  0  0
   21.1427   46.0284   -7.5537 C   0  0  0  0  0  0
   20.7646   45.1060   -8.5501 C   0  0  0  0  0  0
   19.4192   44.7003   -8.6097 C   0  0  0  0  0  0
   18.5225   45.1979   -7.6466 C   0  0  0  0  0  0
   17.0725   44.7688   -7.6572 C   0  0  0  0  0  0
   18.8819   46.0698   -6.6777 N   0  0  0  0  0  0
   21.7635   44.5714   -9.5281 C   0  0  0  0  0  0
   21.5291   44.5744  -10.7354 O   0  0  0  0  0  0
   22.8671   44.0550   -8.9602 N   0  0  0  0  0  0
   19.3474   38.9297   -9.4425 C   0  0  0  0  0  0
   24.3481   41.2123  -10.0938 H   0  0  0  0  0  0
   24.1822   43.8261  -10.5740 H   0  0  0  0  0  0
   26.2453   44.9163   -9.6798 H   0  0  0  0  0  0
   17.1419   40.0130   -7.0719 H   0  0  0  0  0  0
   18.0469   38.5232   -6.8126 H   0  0  0  0  0  0
   16.2975   38.5497   -6.6079 H   0  0  0  0  0  0
   15.9541   38.9641   -8.9917 H   0  0  0  0  0  0
   16.7891   36.8448  -10.0113 H   0  0  0  0  0  0
   16.0601   36.5910   -8.4397 H   0  0  0  0  0  0
   17.8144   36.5748   -8.5997 H   0  0  0  0  0  0
   16.5320   40.4876  -10.6060 H   0  0  0  0  0  0
   18.2134   41.5785  -12.0627 H   0  0  0  0  0  0
   20.6012   40.9721  -11.8809 H   0  0  0  0  0  0
   21.8449   38.0999  -10.1053 H   0  0  0  0  0  0
   22.2858   39.4706  -11.0750 H   0  0  0  0  0  0
   23.4066   39.3802   -8.9799 H   0  0  0  0  0  0
   21.5093   41.6466   -9.0211 H   0  0  0  0  0  0
   22.8589   41.4947   -7.9429 H   0  0  0  0  0  0
   23.3990   41.4402  -11.8717 H   0  0  0  0  0  0
   24.9775   42.8873   -7.7851 H   0  0  0  0  0  0
   25.8808   42.5500   -9.2350 H   0  0  0  0  0  0
   27.2653   43.9185   -6.9883 H   0  0  0  0  0  0
   27.9892   45.2148   -7.9364 H   0  0  0  0  0  0
   27.9549   43.5806   -8.5679 H   0  0  0  0  0  0
   25.9765   46.6307   -7.9540 H   0  0  0  0  0  0
   24.4714   46.0908   -8.5961 H   0  0  0  0  0  0
   24.1251   44.6535   -6.5290 H   0  0  0  0  0  0
   25.6168   45.3026   -5.8584 H   0  0  0  0  0  0
   22.6393   45.6778   -5.0458 H   0  0  0  0  0  0
   24.0280   46.2433   -4.1221 H   0  0  0  0  0  0
   22.1458   47.7507   -3.6597 H   0  0  0  0  0  0
   23.3652   48.6021   -4.5485 H   0  0  0  0  0  0
   21.2369   49.2356   -5.4275 H   0  0  0  0  0  0
   22.0055   48.3322   -6.6789 H   0  0  0  0  0  0
   22.1645   46.3655   -7.5182 H   0  0  0  0  0  0
   19.0901   43.9970   -9.3630 H   0  0  0  0  0  0
   16.8388   44.1802   -8.5468 H   0  0  0  0  0  0
   16.4078   45.6365   -7.6399 H   0  0  0  0  0  0
   16.8605   44.1477   -6.7859 H   0  0  0  0  0  0
   22.9269   44.1124   -7.9569 H   0  0  0  0  0  0
   19.6694   38.2000   -8.7139 H   0  0  0  0  0  0
  1  2  1  0  0  0
  1 39  1  0  0  0
  1 40  1  0  0  0
  1 41  1  0  0  0
  2  3  1  0  0  0
  2  4  1  0  0  0
  2 42  1  0  0  0
  3 43  1  0  0  0
  3 44  1  0  0  0
  3 45  1  0  0  0
  4 35  1  0  0  0
  4  5  2  0  0  0
  5  6  1  0  0  0
  5 46  1  0  0  0
  6  7  2  0  0  0
  6 47  1  0  0  0
  7  8  1  0  0  0
  7 48  1  0  0  0
  8  9  1  0  0  0
  8 35  2  0  0  0
  9 10  1  0  0  0
  9 49  1  0  0  0
  9 50  1  0  0  0
 10 11  1  0  0  0
 10 51  1  0  0  0
 11 12  1  0  0  0
 11 52  1  0  0  0
 11 53  1  0  0  0
 12 36  1  0  0  0
 12 13  1  0  0  0
 12 14  1  0  0  0
 13 54  1  0  0  0
 14 37  1  0  0  0
 14 34  1  0  0  0
 14 15  1  0  0  0
 15 16  1  0  0  0
 15 55  1  0  0  0
 15 56  1  0  0  0
 16 38  1  0  0  0
 16 17  1  0  0  0
 16 18  1  0  0  0
 17 57  1  0  0  0
 17 58  1  0  0  0
 17 59  1  0  0  0
 18 19  1  0  0  0
 18 60  1  0  0  0
 18 61  1  0  0  0
 19 20  1  0  0  0
 19 62  1  0  0  0
 19 63  1  0  0  0
 20 21  1  0  0  0
 21 22  1  0  0  0
 21 64  1  0  0  0
 21 65  1  0  0  0
 22 23  1  0  0  0
 22 66  1  0  0  0
 22 67  1  0  0  0
 23 24  1  0  0  0
 23 68  1  0  0  0
 23 69  1  0  0  0
 24 25  1  0  0  0
 25 31  1  0  0  0
 25 26  2  0  0  0
 26 27  1  0  0  0
 26 70  1  0  0  0
 27 28  2  0  0  0
 27 32  1  0  0  0
 28 29  1  0  0  0
 28 71  1  0  0  0
 29 30  1  0  0  0
 29 31  2  0  0  0
 30 72  1  0  0  0
 30 73  1  0  0  0
 30 74  1  0  0  0
 32 33  2  0  0  0
 32 34  1  0  0  0
 34 75  1  0  0  0
 35 76  1  0  0  0
M  END
> <s_m_source_file>
BACE_54.smi

> <i_m_source_file_index>
1

> <i_lp_mmshare_version>
42013

> <i_f3d_flags>
0

> <s_epik_input>
W0NIM11bQ0hdKFtDSDNdKWMxW2NIXVtjSF1bY0hdYyhbY0hdMSlbQ0gyXVtOSF1bQ0gyXVtDQEBIXShbT0hdKVtDQEBIXShbTkhdQyg9TyljKFtjSF1jMjMpW2NIXWMobjMpW0NIM10pW0NIMl1bQ0BIXShbQ0gzXSlbQ0gyXVtDSDJdT1tDSDJdW0NIMl1bQ0gyXU8y

> <s_epik_cmdline>
J2VwaWtfcHl0aG9uJywgJy1waCcsICc3LjAnLCAnLXRuJywgJzgnLCAnLW1hJywgJzIwMCcsICctaW1hZScsICc8aW5maWxlLm1hZT4nLCAnLW9tYWUnLCAnPG91dGZpbGUubWFlPic=

> <r_lp_tautomer_probability>
1

> <r_epik_Ionization_Penalty>
  2.0939

> <r_epik_Ionization_Penalty_Charging>
  0.0000

> <r_epik_Ionization_Penalty_Neutral>
  2.0939

> <r_epik_State_Penalty>
  2.2295

> <r_epik_Charging_Adjusted_Penalty>
2.2295

> <i_epik_Tot_Q>
0

> <i_epik_Tot_abs_Q>
0

> <s_lp_Force_Field>
OPLS_2005

> <r_lp_Energy>
33.9145

> <b_lp_Chiralities_Consistent>
1

> <s_lp_Variant>
BACE_54.smi:1-2

> <chiral flag>
1

> <version>
0

> <s_i_glide_gridfile>
second_dock_grid_2

> <i_i_glide_lignum>
105

> <i_i_glide_rotatable_bonds>
7

> <r_i_docking_score>
-0.2184

> <r_i_glide_ligand_efficiency>
-0.00624001

> <r_i_glide_ligand_efficiency_sa>
-0.0204115

> <r_i_glide_ligand_efficiency_ln>
-0.0479437

> <r_glide_XP_GScore>
-2.4479

> <r_i_glide_gscore>
-2.4479

> <r_i_glide_evdw>
-31.6102

> <r_i_glide_ecoul>
-8.60795

> <r_i_glide_energy>
-40.2182

> <r_i_glide_einternal>
5.47961

> <r_i_glide_emodel>
-48.816

> <r_glide_XP_HBond>
-0.96

> <i_i_glide_confnum>
1

> <i_i_glide_posenum>
8

> <r_i_glide_eff_state_penalty>
2.2295

> <i_glide_XP_PoseRank>
1

$$$$
BACE_55.smi:1
                    3D
 Structure written by MMmdl.
 87 89  0  0  1  0            999 V2000
   21.0227   40.9098   -7.8647 C   0  0  0  0  0  0
   20.5047   39.6521   -7.1618 C   0  0  0  0  0  0
   21.6472   38.6515   -6.9390 C   0  0  0  0  0  0
   19.3220   39.0675   -7.9251 C   0  0  0  0  0  0
   18.0246   39.5259   -7.6243 C   0  0  0  0  0  0
   16.8910   39.1082   -8.3614 C   0  0  0  0  0  0
   17.0753   38.1219   -9.3555 C   0  0  0  0  0  0
   18.3610   37.6297   -9.6401 C   0  0  0  0  0  0
   19.4865   38.1204   -8.9559 C   0  0  0  0  0  0
   15.5116   39.7377   -8.0860 C   0  0  0  0  0  0
   14.5830   39.6654   -9.3233 C   0  0  0  0  0  0
   14.8432   38.9840   -6.9330 C   0  0  0  0  0  0
   15.6738   41.1592   -7.6700 N   0  3  0  0  0  0
   16.2689   42.0721   -8.6814 C   0  0  0  0  0  0
   16.8774   43.3456   -8.0537 C   0  0  1  0  0  0
   17.9610   42.9496   -7.2399 O   0  0  0  0  0  0
   17.4940   44.4068   -9.0180 C   0  0  2  0  0  0
   17.4141   45.8085   -8.3485 C   0  0  0  0  0  0
   18.4186   46.9141   -8.7657 C   0  0  2  0  0  0
   18.5036   47.1745  -10.2780 C   0  0  0  0  0  0
   19.7978   46.8488   -8.0588 C   0  0  0  0  0  0
   20.7135   45.6656   -8.4191 C   0  0  0  0  0  0
   22.0978   45.7447   -7.7507 C   0  0  0  0  0  0
   23.0263   44.5940   -8.1806 C   0  0  0  0  0  0
   23.7015   44.8417   -9.5443 C   0  0  0  0  0  0
   24.2405   43.5733  -10.2405 C   0  0  0  0  0  0
   23.1619   42.5458  -10.6310 C   0  0  0  0  0  0
   22.0776   43.1750  -11.3683 N   0  0  0  0  0  0
   20.8269   42.5493  -11.4032 C   0  0  0  0  0  0
   19.6798   43.3655  -11.3541 C   0  0  0  0  0  0
   18.3864   42.8124  -11.4443 C   0  0  0  0  0  0
   18.2510   41.4184  -11.6238 C   0  0  0  0  0  0
   19.3916   40.5912  -11.6567 C   0  0  0  0  0  0
   20.6791   41.1526  -11.5420 C   0  0  0  0  0  0
   17.1743   43.7013  -11.4429 C   0  0  0  0  0  0
   16.4598   43.7492  -12.4400 O   0  0  0  0  0  0
   16.8648   44.4187  -10.3428 N   0  0  0  0  0  0
   16.1123   43.8234   -7.4433 H   0  0  0  0  0  0
   18.5392   44.1587   -9.1698 H   0  0  0  0  0  0
   17.9764   47.8276   -8.3658 H   0  0  0  0  0  0
   20.2410   41.6607   -7.9752 H   0  0  0  0  0  0
   21.3851   40.6561   -8.8582 H   0  0  0  0  0  0
   21.8450   41.3633   -7.3107 H   0  0  0  0  0  0
   20.1385   39.9446   -6.1760 H   0  0  0  0  0  0
   21.2764   37.7501   -6.4587 H   0  0  0  0  0  0
   22.4155   39.0774   -6.2937 H   0  0  0  0  0  0
   22.1283   38.3654   -7.8732 H   0  0  0  0  0  0
   17.9218   40.2514   -6.8401 H   0  0  0  0  0  0
   16.2477   37.7354   -9.9287 H   0  0  0  0  0  0
   18.4785   36.8951  -10.4206 H   0  0  0  0  0  0
   20.4644   37.7530   -9.2262 H   0  0  0  0  0  0
   14.2812   38.6415   -9.5430 H   0  0  0  0  0  0
   15.0606   40.0655  -10.2182 H   0  0  0  0  0  0
   13.6604   40.2219   -9.1760 H   0  0  0  0  0  0
   14.6823   37.9365   -7.1880 H   0  0  0  0  0  0
   13.8748   39.4117   -6.6731 H   0  0  0  0  0  0
   15.4650   39.0131   -6.0401 H   0  0  0  0  0  0
   14.7816   41.5168   -7.3585 H   0  0  0  0  0  0
   17.0462   41.5597   -9.2420 H   0  0  0  0  0  0
   15.4830   42.3348   -9.3903 H   0  0  0  0  0  0
   17.6578   42.5861   -6.4145 H   0  0  0  0  0  0
   16.4008   46.1926   -8.4799 H   0  0  0  0  0  0
   17.5218   45.6894   -7.2692 H   0  0  0  0  0  0
   18.9617   46.3475  -10.8125 H   0  0  0  0  0  0
   19.0977   48.0654  -10.4870 H   0  0  0  0  0  0
   17.5138   47.3366  -10.7039 H   0  0  0  0  0  0
   20.3336   47.7738   -8.2754 H   0  0  0  0  0  0
   19.6435   46.8527   -6.9793 H   0  0  0  0  0  0
   20.2556   44.7328   -8.0968 H   0  0  0  0  0  0
   20.8295   45.6104   -9.5001 H   0  0  0  0  0  0
   22.5749   46.7034   -7.9594 H   0  0  0  0  0  0
   21.9631   45.7022   -6.6693 H   0  0  0  0  0  0
   23.8049   44.4495   -7.4301 H   0  0  0  0  0  0
   22.4524   43.6680   -8.1903 H   0  0  0  0  0  0
   23.0135   45.3566  -10.2146 H   0  0  0  0  0  0
   24.5252   45.5421   -9.3991 H   0  0  0  0  0  0
   24.7722   43.8758  -11.1448 H   0  0  0  0  0  0
   24.9820   43.0905   -9.6039 H   0  0  0  0  0  0
   23.6040   41.7575  -11.2409 H   0  0  0  0  0  0
   22.7727   42.0675   -9.7351 H   0  0  0  0  0  0
   22.0787   44.1840  -11.3261 H   0  0  0  0  0  0
   19.8009   44.4329  -11.2753 H   0  0  0  0  0  0
   17.2722   40.9727  -11.7301 H   0  0  0  0  0  0
   19.2788   39.5240  -11.7816 H   0  0  0  0  0  0
   21.5470   40.5109  -11.5937 H   0  0  0  0  0  0
   16.0608   45.0207  -10.4363 H   0  0  0  0  0  0
   16.2803   41.1456   -6.8622 H   0  0  0  0  0  0
  1  2  1  0  0  0
  1 41  1  0  0  0
  1 42  1  0  0  0
  1 43  1  0  0  0
  2  3  1  0  0  0
  2  4  1  0  0  0
  2 44  1  0  0  0
  3 45  1  0  0  0
  3 46  1  0  0  0
  3 47  1  0  0  0
  4  9  1  0  0  0
  4  5  2  0  0  0
  5  6  1  0  0  0
  5 48  1  0  0  0
  6  7  2  0  0  0
  6 10  1  0  0  0
  7  8  1  0  0  0
  7 49  1  0  0  0
  8  9  2  0  0  0
  8 50  1  0  0  0
  9 51  1  0  0  0
 10 11  1  0  0  0
 10 12  1  0  0  0
 10 13  1  0  0  0
 11 52  1  0  0  0
 11 53  1  0  0  0
 11 54  1  0  0  0
 12 55  1  0  0  0
 12 56  1  0  0  0
 12 57  1  0  0  0
 13 14  1  0  0  0
 13 58  1  0  0  0
 13 87  1  0  0  0
 14 15  1  0  0  0
 14 59  1  0  0  0
 14 60  1  0  0  0
 15 38  1  0  0  0
 15 16  1  0  0  0
 15 17  1  0  0  0
 16 61  1  0  0  0
 17 39  1  0  0  0
 17 37  1  0  0  0
 17 18  1  0  0  0
 18 19  1  0  0  0
 18 62  1  0  0  0
 18 63  1  0  0  0
 19 40  1  0  0  0
 19 20  1  0  0  0
 19 21  1  0  0  0
 20 64  1  0  0  0
 20 65  1  0  0  0
 20 66  1  0  0  0
 21 22  1  0  0  0
 21 67  1  0  0  0
 21 68  1  0  0  0
 22 23  1  0  0  0
 22 69  1  0  0  0
 22 70  1  0  0  0
 23 24  1  0  0  0
 23 71  1  0  0  0
 23 72  1  0  0  0
 24 25  1  0  0  0
 24 73  1  0  0  0
 24 74  1  0  0  0
 25 26  1  0  0  0
 25 75  1  0  0  0
 25 76  1  0  0  0
 26 27  1  0  0  0
 26 77  1  0  0  0
 26 78  1  0  0  0
 27 28  1  0  0  0
 27 79  1  0  0  0
 27 80  1  0  0  0
 28 29  1  0  0  0
 28 81  1  0  0  0
 29 34  1  0  0  0
 29 30  2  0  0  0
 30 31  1  0  0  0
 30 82  1  0  0  0
 31 32  2  0  0  0
 31 35  1  0  0  0
 32 33  1  0  0  0
 32 83  1  0  0  0
 33 34  2  0  0  0
 33 84  1  0  0  0
 34 85  1  0  0  0
 35 36  2  0  0  0
 35 37  1  0  0  0
 37 86  1  0  0  0
M  CHG  1  13   1
M  END
> <s_m_source_file>
BACE_55.smi

> <i_m_source_file_index>
1

> <i_lp_mmshare_version>
42013

> <i_f3d_flags>
0

> <s_epik_input>
W0NIM11bQ0hdKFtDSDNdKWMxW2NIXWMoW2NIXVtjSF1bY0hdMSlDKFtDSDNdKShbQ0gzXSlbTkhdW0NIMl1bQ0BASF0oW09IXSlbQ0BASF0oW05IXUMoPU8pYyhbY0hdYzIzKVtjSF1bY0hdW2NIXTMpW0NIMl1bQ0BIXShbQ0gzXSlbQ0gyXVtDSDJdW0NIMl1bQ0gyXVtDSDJdW0NIMl1bQ0gyXVtOSF0y

> <s_epik_cmdline>
J2VwaWtfcHl0aG9uJywgJy1waCcsICc3LjAnLCAnLXRuJywgJzgnLCAnLW1hJywgJzIwMCcsICctaW1hZScsICc8aW5maWxlLm1hZT4nLCAnLW9tYWUnLCAnPG91dGZpbGUubWFlPic=

> <r_epik_Ionization_Penalty>
  0.0172

> <r_epik_Ionization_Penalty_Charging>
  0.0165

> <r_epik_Ionization_Penalty_Neutral>
  0.0007

> <r_epik_State_Penalty>
  0.0130

> <r_epik_Charging_Adjusted_Penalty>
0.0295552

> <i_epik_Tot_Q>
1

> <i_epik_Tot_abs_Q>
1

> <s_lp_Force_Field>
OPLS_2005

> <r_lp_Energy>
44.7108

> <b_lp_Chiralities_Consistent>
1

> <s_lp_Variant>
BACE_55.smi:1-1

> <chiral flag>
1

> <version>
0

> <s_i_glide_gridfile>
second_dock_grid_2

> <i_i_glide_lignum>
106

> <i_i_glide_rotatable_bonds>
7

> <r_i_docking_score>
-6.02101

> <r_i_glide_ligand_efficiency>
-0.16273

> <r_i_glide_ligand_efficiency_sa>
-0.542252

> <r_i_glide_ligand_efficiency_ln>
-1.30582

> <r_glide_XP_GScore>
-6.03401

> <r_i_glide_gscore>
-6.03401

> <r_i_glide_evdw>
-33.8848

> <r_i_glide_ecoul>
-17.3266

> <r_i_glide_energy>
-51.2114

> <r_i_glide_einternal>
2.55925

> <r_i_glide_emodel>
-73.7801

> <r_glide_XP_HBond>
-1.70411

> <i_i_glide_confnum>
1

> <i_i_glide_posenum>
7

> <r_i_glide_eff_state_penalty>
0.013

> <i_glide_XP_PoseRank>
1

$$$$
BACE_55.smi:1
                    3D
 Structure written by MMmdl.
 86 88  0  0  1  0            999 V2000
   29.2626   46.9773  -12.9242 C   0  0  0  0  0  0
   28.9019   45.9876  -14.0414 C   0  0  0  0  0  0
   27.6394   46.4242  -14.8022 C   0  0  0  0  0  0
   28.7771   44.5674  -13.5003 C   0  0  0  0  0  0
   27.7657   44.2343  -12.5706 C   0  0  0  0  0  0
   27.6707   42.9332  -12.0192 C   0  0  0  0  0  0
   28.6117   41.9602  -12.4397 C   0  0  0  0  0  0
   29.6068   42.2765  -13.3828 C   0  0  0  0  0  0
   29.6923   43.5772  -13.9111 C   0  0  0  0  0  0
   26.5657   42.6292  -10.9865 C   0  0  0  0  0  0
   26.6765   41.1851  -10.4536 C   0  0  0  0  0  0
   26.7421   43.5901   -9.7878 C   0  0  0  0  0  0
   25.2595   42.8318  -11.6537 N   0  0  0  0  0  0
   24.0185   42.9274  -10.8694 C   0  0  0  0  0  0
   23.6014   41.6103  -10.1622 C   0  0  1  0  0  0
   23.9101   41.8437   -8.7988 O   0  0  0  0  0  0
   22.1045   41.2196  -10.2471 C   0  0  2  0  0  0
   21.7888   39.8104   -9.6472 C   0  0  0  0  0  0
   22.0434   39.5815   -8.1390 C   0  0  2  0  0  0
   21.6507   38.1501   -7.7620 C   0  0  0  0  0  0
   21.2947   40.5949   -7.2482 C   0  0  0  0  0  0
   21.7881   40.6534   -5.7899 C   0  0  0  0  0  0
   21.1288   41.7943   -4.9987 C   0  0  0  0  0  0
   21.6330   43.2066   -5.3627 C   0  0  0  0  0  0
   20.5659   44.3124   -5.2043 C   0  0  0  0  0  0
   19.8563   44.7074   -6.5149 C   0  0  0  0  0  0
   18.9016   43.6454   -7.0814 C   0  0  0  0  0  0
   18.4457   44.0085   -8.4179 N   0  0  0  0  0  0
   18.3297   42.8919   -9.2471 C   0  0  0  0  0  0
   19.2526   42.7256  -10.2988 C   0  0  0  0  0  0
   19.2698   41.5375  -11.0563 C   0  0  0  0  0  0
   18.2674   40.5657  -10.8418 C   0  0  0  0  0  0
   17.3127   40.7486   -9.8227 C   0  0  0  0  0  0
   17.3578   41.8958   -9.0066 C   0  0  0  0  0  0
   20.3558   41.2903  -12.0617 C   0  0  0  0  0  0
   20.0617   41.1042  -13.2373 O   0  0  0  0  0  0
   21.6341   41.2467  -11.6360 N   0  0  0  0  0  0
   24.1523   40.7568  -10.5552 H   0  0  0  0  0  0
   21.5665   41.9899   -9.7044 H   0  0  0  0  0  0
   23.1147   39.6630   -7.9573 H   0  0  0  0  0  0
   30.1848   46.6780  -12.4225 H   0  0  0  0  0  0
   28.4800   47.0346  -12.1671 H   0  0  0  0  0  0
   29.4117   47.9809  -13.3223 H   0  0  0  0  0  0
   29.7256   45.9953  -14.7556 H   0  0  0  0  0  0
   27.4343   45.7497  -15.6319 H   0  0  0  0  0  0
   27.7647   47.4270  -15.2123 H   0  0  0  0  0  0
   26.7611   46.4359  -14.1574 H   0  0  0  0  0  0
   27.0630   44.9938  -12.2633 H   0  0  0  0  0  0
   28.5918   40.9478  -12.0660 H   0  0  0  0  0  0
   30.3060   41.5137  -13.6980 H   0  0  0  0  0  0
   30.4679   43.8053  -14.6270 H   0  0  0  0  0  0
   27.6599   40.9860  -10.0469 H   0  0  0  0  0  0
   26.4623   40.4441  -11.2253 H   0  0  0  0  0  0
   26.0242   40.9807   -9.6170 H   0  0  0  0  0  0
   27.7469   43.5064   -9.3717 H   0  0  0  0  0  0
   26.0494   43.3690   -8.9741 H   0  0  0  0  0  0
   26.5875   44.6336  -10.0680 H   0  0  0  0  0  0
   25.1244   42.0553  -12.3014 H   0  0  0  0  0  0
   24.0748   43.7583  -10.1665 H   0  0  0  0  0  0
   23.2262   43.2213  -11.5547 H   0  0  0  0  0  0
   23.4262   42.5934   -8.4967 H   0  0  0  0  0  0
   20.7455   39.5636   -9.8355 H   0  0  0  0  0  0
   22.3618   39.0708  -10.2106 H   0  0  0  0  0  0
   20.5656   38.0264   -7.7614 H   0  0  0  0  0  0
   22.0193   37.8884   -6.7717 H   0  0  0  0  0  0
   22.0622   37.4311   -8.4667 H   0  0  0  0  0  0
   21.4058   41.5938   -7.6578 H   0  0  0  0  0  0
   20.2242   40.3885   -7.2711 H   0  0  0  0  0  0
   21.5639   39.7066   -5.2980 H   0  0  0  0  0  0
   22.8678   40.7666   -5.7573 H   0  0  0  0  0  0
   20.0599   41.7283   -5.1541 H   0  0  0  0  0  0
   21.2755   41.6316   -3.9301 H   0  0  0  0  0  0
   22.4819   43.4374   -4.7156 H   0  0  0  0  0  0
   22.0399   43.2412   -6.3736 H   0  0  0  0  0  0
   19.8405   44.0443   -4.4351 H   0  0  0  0  0  0
   21.0694   45.2074   -4.8400 H   0  0  0  0  0  0
   19.2952   45.6257   -6.3459 H   0  0  0  0  0  0
   20.6158   44.9532   -7.2577 H   0  0  0  0  0  0
   19.4048   42.6782   -7.1096 H   0  0  0  0  0  0
   18.0297   43.5217   -6.4424 H   0  0  0  0  0  0
   18.9994   44.7558   -8.8080 H   0  0  0  0  0  0
   20.0034   43.4843  -10.4712 H   0  0  0  0  0  0
   18.2516   39.6615  -11.4330 H   0  0  0  0  0  0
   16.5650   39.9886   -9.6384 H   0  0  0  0  0  0
   16.6529   42.0079   -8.1933 H   0  0  0  0  0  0
   22.3399   41.0752  -12.3427 H   0  0  0  0  0  0
  1  2  1  0  0  0
  1 41  1  0  0  0
  1 42  1  0  0  0
  1 43  1  0  0  0
  2  3  1  0  0  0
  2  4  1  0  0  0
  2 44  1  0  0  0
  3 45  1  0  0  0
  3 46  1  0  0  0
  3 47  1  0  0  0
  4  9  1  0  0  0
  4  5  2  0  0  0
  5  6  1  0  0  0
  5 48  1  0  0  0
  6  7  2  0  0  0
  6 10  1  0  0  0
  7  8  1  0  0  0
  7 49  1  0  0  0
  8  9  2  0  0  0
  8 50  1  0  0  0
  9 51  1  0  0  0
 10 11  1  0  0  0
 10 12  1  0  0  0
 10 13  1  0  0  0
 11 52  1  0  0  0
 11 53  1  0  0  0
 11 54  1  0  0  0
 12 55  1  0  0  0
 12 56  1  0  0  0
 12 57  1  0  0  0
 13 14  1  0  0  0
 13 58  1  0  0  0
 14 15  1  0  0  0
 14 59  1  0  0  0
 14 60  1  0  0  0
 15 38  1  0  0  0
 15 16  1  0  0  0
 15 17  1  0  0  0
 16 61  1  0  0  0
 17 39  1  0  0  0
 17 37  1  0  0  0
 17 18  1  0  0  0
 18 19  1  0  0  0
 18 62  1  0  0  0
 18 63  1  0  0  0
 19 40  1  0  0  0
 19 20  1  0  0  0
 19 21  1  0  0  0
 20 64  1  0  0  0
 20 65  1  0  0  0
 20 66  1  0  0  0
 21 22  1  0  0  0
 21 67  1  0  0  0
 21 68  1  0  0  0
 22 23  1  0  0  0
 22 69  1  0  0  0
 22 70  1  0  0  0
 23 24  1  0  0  0
 23 71  1  0  0  0
 23 72  1  0  0  0
 24 25  1  0  0  0
 24 73  1  0  0  0
 24 74  1  0  0  0
 25 26  1  0  0  0
 25 75  1  0  0  0
 25 76  1  0  0  0
 26 27  1  0  0  0
 26 77  1  0  0  0
 26 78  1  0  0  0
 27 28  1  0  0  0
 27 79  1  0  0  0
 27 80  1  0  0  0
 28 29  1  0  0  0
 28 81  1  0  0  0
 29 34  1  0  0  0
 29 30  2  0  0  0
 30 31  1  0  0  0
 30 82  1  0  0  0
 31 32  2  0  0  0
 31 35  1  0  0  0
 32 33  1  0  0  0
 32 83  1  0  0  0
 33 34  2  0  0  0
 33 84  1  0  0  0
 34 85  1  0  0  0
 35 36  2  0  0  0
 35 37  1  0  0  0
 37 86  1  0  0  0
M  END
> <s_m_source_file>
BACE_55.smi

> <i_m_source_file_index>
1

> <i_lp_mmshare_version>
42013

> <i_f3d_flags>
0

> <s_epik_input>
W0NIM11bQ0hdKFtDSDNdKWMxW2NIXWMoW2NIXVtjSF1bY0hdMSlDKFtDSDNdKShbQ0gzXSlbTkhdW0NIMl1bQ0BASF0oW09IXSlbQ0BASF0oW05IXUMoPU8pYyhbY0hdYzIzKVtjSF1bY0hdW2NIXTMpW0NIMl1bQ0BIXShbQ0gzXSlbQ0gyXVtDSDJdW0NIMl1bQ0gyXVtDSDJdW0NIMl1bQ0gyXVtOSF0y

> <s_epik_cmdline>
J2VwaWtfcHl0aG9uJywgJy1waCcsICc3LjAnLCAnLXRuJywgJzgnLCAnLW1hJywgJzIwMCcsICctaW1hZScsICc8aW5maWxlLm1hZT4nLCAnLW9tYWUnLCAnPG91dGZpbGUubWFlPic=

> <r_epik_Ionization_Penalty>
  2.1302

> <r_epik_Ionization_Penalty_Charging>
  0.0000

> <r_epik_Ionization_Penalty_Neutral>
  2.1302

> <r_epik_State_Penalty>
  2.2676

> <r_epik_Charging_Adjusted_Penalty>
2.26762

> <i_epik_Tot_Q>
0

> <i_epik_Tot_abs_Q>
0

> <s_lp_Force_Field>
OPLS_2005

> <r_lp_Energy>
48.2193

> <b_lp_Chiralities_Consistent>
1

> <s_lp_Variant>
BACE_55.smi:1-2

> <chiral flag>
1

> <version>
0

> <s_i_glide_gridfile>
second_dock_grid_2

> <i_i_glide_lignum>
107

> <i_i_glide_rotatable_bonds>
7

> <r_i_docking_score>
-2.54484

> <r_i_glide_ligand_efficiency>
-0.0687795

> <r_i_glide_ligand_efficiency_sa>
-0.229188

> <r_i_glide_ligand_efficiency_ln>
-0.551916

> <r_glide_XP_GScore>
-4.81244

> <r_i_glide_gscore>
-4.81244

> <r_i_glide_evdw>
-36.8364

> <r_i_glide_ecoul>
-8.60295

> <r_i_glide_energy>
-45.4394

> <r_i_glide_einternal>
6.47326

> <r_i_glide_emodel>
-59.5266

> <r_glide_XP_HBond>
-1.3078

> <i_i_glide_confnum>
1

> <i_i_glide_posenum>
7

> <r_i_glide_eff_state_penalty>
2.2676

> <i_glide_XP_PoseRank>
1

$$$$
