BACE_119.smi:1
                    3D
 Structure written by MMmdl.
 88 93  0  0  1  0            999 V2000
   22.6796   42.7419   -3.3312 C   0  0  0  0  0  0
   21.5466   41.7745   -3.7448 C   0  0  0  0  0  0
   20.4990   41.7108   -2.6178 C   0  0  0  0  0  0
   22.1844   40.3785   -3.9140 C   0  0  0  0  0  0
   20.8590   42.2622   -5.0316 C   0  0  0  0  0  0
   20.5611   43.6363   -5.2064 C   0  0  0  0  0  0
   19.9617   44.0986   -6.3969 C   0  0  0  0  0  0
   19.6810   43.2065   -7.3655 N   0  3  0  0  0  0
   19.8898   41.8844   -7.2370 C   0  0  0  0  0  0
   20.4682   41.3752   -6.0650 C   0  0  0  0  0  0
   19.6336   45.5392   -6.6872 C   0  0  0  0  0  0
   20.0336   46.6495   -5.7334 C   0  0  0  0  0  0
   20.7584   46.4962   -7.0448 C   0  0  0  0  0  0
   18.3384   45.6754   -7.3803 N   0  0  0  0  0  0
   18.4598   45.9392   -8.8167 C   0  0  0  0  0  0
   17.1723   45.6180   -9.6091 C   0  0  1  0  0  0
   17.2558   46.2850  -10.8508 O   0  0  0  0  0  0
   16.8607   44.1236   -9.9279 C   0  0  2  0  0  0
   15.9341   43.4818   -8.8685 C   0  0  0  0  0  0
   15.6705   42.0151   -9.1669 C   0  0  0  0  0  0
   16.2574   40.9997   -8.3815 C   0  0  0  0  0  0
   16.0562   39.6423   -8.7138 C   0  0  0  0  0  0
   16.6724   38.5445   -7.8608 C   0  0  0  0  0  0
   17.3160   37.3819   -8.6544 C   0  0  0  0  0  0
   18.3647   37.7997   -9.7028 C   0  0  0  0  0  0
   19.6077   38.4282   -9.0658 C   0  0  0  0  0  0
   20.6390   38.7254  -10.0485 N   0  0  0  0  0  0
   20.8671   40.0673  -10.3842 C   0  0  0  0  0  0
   19.8130   40.9810  -10.6146 C   0  0  0  0  0  0
   20.0927   42.3435  -10.8812 C   0  0  0  0  0  0
   21.4369   42.7704  -10.9710 C   0  0  0  0  0  0
   22.4928   41.8619  -10.7433 C   0  0  0  0  0  0
   22.1969   40.5146  -10.4519 C   0  0  0  0  0  0
   23.8809   42.3097  -10.7850 C   0  0  0  0  0  0
   24.3615   43.5029  -11.1393 N   0  0  0  0  0  0
   25.7399   43.3847  -11.0360 C   0  0  0  0  0  0
   26.0280   42.1160  -10.6061 C   0  0  0  0  0  0
   24.8601   41.4260  -10.4396 O   0  0  0  0  0  0
   18.9867   43.3446  -11.0297 C   0  0  0  0  0  0
   19.0124   44.2227  -11.8920 O   0  0  0  0  0  0
   18.0373   43.2628  -10.0837 N   0  0  0  0  0  0
   15.2528   39.3108   -9.8223 C   0  0  0  0  0  0
   14.6732   40.3219  -10.6085 C   0  0  0  0  0  0
   14.8732   41.6725  -10.2769 C   0  0  0  0  0  0
   16.3179   46.0728   -9.1010 H   0  0  0  0  0  0
   16.3104   44.0760  -10.8718 H   0  0  0  0  0  0
   23.4128   42.8637   -4.1275 H   0  0  0  0  0  0
   23.2070   42.3838   -2.4520 H   0  0  0  0  0  0
   22.3116   43.7278   -3.0633 H   0  0  0  0  0  0
   19.7005   41.0102   -2.8607 H   0  0  0  0  0  0
   20.0357   42.6825   -2.4412 H   0  0  0  0  0  0
   20.9405   41.3837   -1.6776 H   0  0  0  0  0  0
   21.4357   39.6063   -4.0721 H   0  0  0  0  0  0
   22.7425   40.0879   -3.0273 H   0  0  0  0  0  0
   22.8783   40.3544   -4.7521 H   0  0  0  0  0  0
   20.8022   44.3388   -4.4304 H   0  0  0  0  0  0
   19.5780   41.2757   -8.0625 H   0  0  0  0  0  0
   20.6202   40.3122   -5.9888 H   0  0  0  0  0  0
   19.3733   47.5092   -5.6420 H   0  0  0  0  0  0
   20.6161   46.4196   -4.8436 H   0  0  0  0  0  0
   21.7780   46.1147   -7.0023 H   0  0  0  0  0  0
   20.5933   47.2913   -7.7672 H   0  0  0  0  0  0
   17.7954   44.8275   -7.2378 H   0  0  0  0  0  0
   18.6925   46.9954   -8.9524 H   0  0  0  0  0  0
   19.3120   45.4064   -9.2377 H   0  0  0  0  0  0
   17.9128   45.8409  -11.3762 H   0  0  0  0  0  0
   16.3707   43.5687   -7.8706 H   0  0  0  0  0  0
   14.9802   44.0078   -8.8297 H   0  0  0  0  0  0
   16.8540   41.2598   -7.5175 H   0  0  0  0  0  0
   17.4058   38.9758   -7.1769 H   0  0  0  0  0  0
   15.8733   38.1512   -7.2356 H   0  0  0  0  0  0
   16.5338   36.8136   -9.1586 H   0  0  0  0  0  0
   17.7680   36.6816   -7.9512 H   0  0  0  0  0  0
   18.6703   36.9236  -10.2711 H   0  0  0  0  0  0
   17.9256   38.4818  -10.4302 H   0  0  0  0  0  0
   19.3233   39.3125   -8.5085 H   0  0  0  0  0  0
   20.0326   37.7469   -8.3299 H   0  0  0  0  0  0
   21.4716   38.1555   -9.9718 H   0  0  0  0  0  0
   18.7876   40.6423  -10.5595 H   0  0  0  0  0  0
   21.6613   43.8072  -11.1780 H   0  0  0  0  0  0
   23.0012   39.8172  -10.2683 H   0  0  0  0  0  0
   26.4030   44.2027  -11.2766 H   0  0  0  0  0  0
   26.9405   41.5768  -10.3957 H   0  0  0  0  0  0
   18.0503   42.4397   -9.4990 H   0  0  0  0  0  0
   15.0670   38.2770  -10.0689 H   0  0  0  0  0  0
   14.0595   40.0520  -11.4535 H   0  0  0  0  0  0
   14.4183   42.4425  -10.8821 H   0  0  0  0  0  0
   19.2694   43.5566   -8.2278 H   0  0  0  0  0  0
  1  2  1  0  0  0
  1 47  1  0  0  0
  1 48  1  0  0  0
  1 49  1  0  0  0
  2  3  1  0  0  0
  2  4  1  0  0  0
  2  5  1  0  0  0
  3 50  1  0  0  0
  3 51  1  0  0  0
  3 52  1  0  0  0
  4 53  1  0  0  0
  4 54  1  0  0  0
  4 55  1  0  0  0
  5 10  1  0  0  0
  5  6  2  0  0  0
  6  7  1  0  0  0
  6 56  1  0  0  0
  7  8  2  0  0  0
  7 11  1  0  0  0
  8  9  1  0  0  0
  8 88  1  0  0  0
  9 10  2  0  0  0
  9 57  1  0  0  0
 10 58  1  0  0  0
 11 13  1  0  0  0
 11 12  1  0  0  0
 11 14  1  0  0  0
 12 13  1  0  0  0
 12 59  1  0  0  0
 12 60  1  0  0  0
 13 61  1  0  0  0
 13 62  1  0  0  0
 14 15  1  0  0  0
 14 63  1  0  0  0
 15 16  1  0  0  0
 15 64  1  0  0  0
 15 65  1  0  0  0
 16 45  1  0  0  0
 16 17  1  0  0  0
 16 18  1  0  0  0
 17 66  1  0  0  0
 18 46  1  0  0  0
 18 41  1  0  0  0
 18 19  1  0  0  0
 19 20  1  0  0  0
 19 67  1  0  0  0
 19 68  1  0  0  0
 20 44  1  0  0  0
 20 21  2  0  0  0
 21 22  1  0  0  0
 21 69  1  0  0  0
 22 23  1  0  0  0
 22 42  2  0  0  0
 23 24  1  0  0  0
 23 70  1  0  0  0
 23 71  1  0  0  0
 24 25  1  0  0  0
 24 72  1  0  0  0
 24 73  1  0  0  0
 25 26  1  0  0  0
 25 74  1  0  0  0
 25 75  1  0  0  0
 26 27  1  0  0  0
 26 76  1  0  0  0
 26 77  1  0  0  0
 27 28  1  0  0  0
 27 78  1  0  0  0
 28 33  1  0  0  0
 28 29  2  0  0  0
 29 30  1  0  0  0
 29 79  1  0  0  0
 30 31  2  0  0  0
 30 39  1  0  0  0
 31 32  1  0  0  0
 31 80  1  0  0  0
 32 33  2  0  0  0
 32 34  1  0  0  0
 33 81  1  0  0  0
 34 38  1  0  0  0
 34 35  2  0  0  0
 35 36  1  0  0  0
 36 37  2  0  0  0
 36 82  1  0  0  0
 37 38  1  0  0  0
 37 83  1  0  0  0
 39 40  2  0  0  0
 39 41  1  0  0  0
 41 84  1  0  0  0
 42 43  1  0  0  0
 42 85  1  0  0  0
 43 44  2  0  0  0
 43 86  1  0  0  0
 44 87  1  0  0  0
M  CHG  1   8   1
M  END
> <s_m_source_file>
BACE_119.smi

> <i_m_source_file_index>
1

> <i_lp_mmshare_version>
42013

> <i_f3d_flags>
0

> <s_epik_input>
W0NIM11DKFtDSDNdKShbQ0gzXSljMVtjSF1jKG5bY0hdW2NIXTEpQzIoW0NIMl1bQ0gyXTIpW05IXVtDSDJdW0NAQEhdKFtPSF0pW0NASF0oW0NIMl0zKVtOSF1DKD1PKWMoW2NIXWMoW2NIXTQpLWM1bltjSF1bY0hdbzUpW2NIXWM0W05IXVtDSDJdW0NIMl1bQ0gyXVtDSDJdYyhbY0hdYzM2KVtjSF1bY0hdW2NIXTY=

> <s_epik_cmdline>
J2VwaWtfcHl0aG9uJywgJy1waCcsICc3LjAnLCAnLXRuJywgJzgnLCAnLW1hJywgJzIwMCcsICctaW1hZScsICc8aW5maWxlLm1hZT4nLCAnLW9tYWUnLCAnPG91dGZpbGUubWFlPic=

> <r_epik_Ionization_Penalty>
  2.3787

> <r_epik_Ionization_Penalty_Charging>
  2.3782

> <r_epik_Ionization_Penalty_Neutral>
  0.0005

> <r_epik_State_Penalty>
  2.7040

> <r_epik_Charging_Adjusted_Penalty>
5.08222

> <i_epik_Tot_Q>
1

> <i_epik_Tot_abs_Q>
1

> <s_lp_Force_Field>
OPLS_2005

> <r_lp_Energy>
49.3643

> <b_lp_Chiralities_Consistent>
1

> <s_lp_Variant>
BACE_119.smi:1-3

> <chiral flag>
1

> <version>
0

> <s_i_glide_gridfile>
second_dock_grid_2

> <i_i_glide_lignum>
244

> <i_i_glide_rotatable_bonds>
8

> <r_i_docking_score>
-0.737435

> <r_i_glide_ligand_efficiency>
-0.0167599

> <r_i_glide_ligand_efficiency_sa>
-0.0591682

> <r_i_glide_ligand_efficiency_ln>
-0.15414

> <r_glide_XP_GScore>
-3.44144

> <r_i_glide_gscore>
-3.44144

> <r_i_glide_evdw>
-49.1315

> <r_i_glide_ecoul>
-4.98976

> <r_i_glide_energy>
-54.1212

> <r_i_glide_einternal>
2.23534

> <r_i_glide_emodel>
-76.7921

> <r_glide_XP_HBond>
0

> <i_i_glide_confnum>
1

> <i_i_glide_posenum>
8

> <r_i_glide_eff_state_penalty>
2.704

> <i_glide_XP_PoseRank>
1

$$$$
BACE_120.smi:1
                    3D
 Structure written by MMmdl.
 72 75  0  0  1  0            999 V2000
   20.1543   40.1500   -5.4546 C   0  0  0  0  0  0
   21.5642   40.7317   -5.7182 C   0  0  0  0  0  0
   22.4928   40.1590   -4.6282 C   0  0  0  0  0  0
   22.0569   40.2437   -7.0332 N   0  3  0  0  0  0
   21.0673   40.1107   -8.1309 C   0  0  0  0  0  0
   21.7286   39.6246   -9.4383 C   0  0  1  0  0  0
   22.4598   38.4505   -9.1417 O   0  0  0  0  0  0
   20.7527   39.3666  -10.6182 C   0  0  2  0  0  0
   21.0229   40.2797  -11.8410 C   0  0  0  0  0  0
   20.6588   41.7399  -11.6239 C   0  0  0  0  0  0
   21.6407   42.6786  -11.2437 C   0  0  0  0  0  0
   21.2815   44.0212  -11.0116 C   0  0  0  0  0  0
   19.9395   44.4281  -11.1486 C   0  0  0  0  0  0
   18.9566   43.4932  -11.5323 C   0  0  0  0  0  0
   17.5003   43.8945  -11.6397 C   0  0  0  0  0  0
   16.8181   43.9642  -10.2628 C   0  0  0  0  0  0
   15.2860   43.8983  -10.3549 C   0  0  0  0  0  0
   14.7389   42.4721  -10.5514 C   0  0  0  0  0  0
   14.6499   41.7426   -9.2925 N   0  0  0  0  0  0
   15.3068   40.5154   -9.1214 C   0  0  0  0  0  0
   14.7113   39.5483   -8.2850 C   0  0  0  0  0  0
   15.2481   38.3357   -8.0409 N   0  0  0  0  0  0
   16.4296   38.0413   -8.6199 C   0  0  0  0  0  0
   17.1386   38.9361   -9.4516 C   0  0  0  0  0  0
   16.5486   40.1950   -9.7201 C   0  0  0  0  0  0
   18.4603   38.5306  -10.0384 C   0  0  0  0  0  0
   18.7025   37.3500  -10.2895 O   0  0  0  0  0  0
   19.3643   39.5152  -10.1693 N   0  0  0  0  0  0
   19.3242   42.1591  -11.7891 C   0  0  0  0  0  0
   21.6122   42.2706   -5.6742 C   0  0  0  0  0  0
   22.7744   42.9814   -5.2834 C   0  0  0  0  0  0
   22.7774   44.3893   -5.2447 C   0  0  0  0  0  0
   21.6202   45.1093   -5.5912 C   0  0  0  0  0  0
   20.4580   44.4185   -5.9779 C   0  0  0  0  0  0
   18.8855   45.3842   -6.4410 Br  0  0  0  0  0  0
   20.4561   43.0112   -6.0198 C   0  0  0  0  0  0
   22.4514   40.3845   -9.7363 H   0  0  0  0  0  0
   20.9152   38.3421  -10.9575 H   0  0  0  0  0  0
   19.7904   40.4244   -4.4637 H   0  0  0  0  0  0
   20.1663   39.0608   -5.4954 H   0  0  0  0  0  0
   19.4140   40.4882   -6.1791 H   0  0  0  0  0  0
   22.1951   40.5026   -3.6367 H   0  0  0  0  0  0
   23.5331   40.4494   -4.7757 H   0  0  0  0  0  0
   22.4670   39.0685   -4.6169 H   0  0  0  0  0  0
   22.7670   40.8873   -7.3524 H   0  0  0  0  0  0
   20.2780   39.4188   -7.8401 H   0  0  0  0  0  0
   20.5796   41.0679   -8.3158 H   0  0  0  0  0  0
   23.3402   38.5523   -9.4714 H   0  0  0  0  0  0
   22.0660   40.2094  -12.1510 H   0  0  0  0  0  0
   20.4448   39.9148  -12.6913 H   0  0  0  0  0  0
   22.6685   42.3706  -11.1192 H   0  0  0  0  0  0
   22.0341   44.7372  -10.7158 H   0  0  0  0  0  0
   19.6658   45.4541  -10.9505 H   0  0  0  0  0  0
   17.4219   44.8561  -12.1483 H   0  0  0  0  0  0
   16.9910   43.1732  -12.2795 H   0  0  0  0  0  0
   17.1668   43.1528   -9.6235 H   0  0  0  0  0  0
   17.1227   44.8849   -9.7646 H   0  0  0  0  0  0
   14.8439   44.3347   -9.4581 H   0  0  0  0  0  0
   14.9561   44.5299  -11.1808 H   0  0  0  0  0  0
   13.7221   42.5428  -10.9388 H   0  0  0  0  0  0
   15.3038   41.9274  -11.3070 H   0  0  0  0  0  0
   13.7823   41.8549   -8.7869 H   0  0  0  0  0  0
   13.7669   39.7499   -7.8006 H   0  0  0  0  0  0
   16.8259   37.0625   -8.3924 H   0  0  0  0  0  0
   17.0488   40.9068  -10.3586 H   0  0  0  0  0  0
   19.0741   40.4505   -9.9210 H   0  0  0  0  0  0
   18.5719   41.4425  -12.0852 H   0  0  0  0  0  0
   23.6845   42.4713   -5.0088 H   0  0  0  0  0  0
   23.6709   44.9186   -4.9480 H   0  0  0  0  0  0
   21.6250   46.1890   -5.5587 H   0  0  0  0  0  0
   19.5494   42.5020   -6.3118 H   0  0  0  0  0  0
   22.4914   39.3429   -6.8894 H   0  0  0  0  0  0
  1  2  1  0  0  0
  1 39  1  0  0  0
  1 40  1  0  0  0
  1 41  1  0  0  0
  2  3  1  0  0  0
  2  4  1  0  0  0
  2 30  1  0  0  0
  3 42  1  0  0  0
  3 43  1  0  0  0
  3 44  1  0  0  0
  4  5  1  0  0  0
  4 45  1  0  0  0
  4 72  1  0  0  0
  5  6  1  0  0  0
  5 46  1  0  0  0
  5 47  1  0  0  0
  6 37  1  0  0  0
  6  7  1  0  0  0
  6  8  1  0  0  0
  7 48  1  0  0  0
  8 38  1  0  0  0
  8 28  1  0  0  0
  8  9  1  0  0  0
  9 10  1  0  0  0
  9 49  1  0  0  0
  9 50  1  0  0  0
 10 29  1  0  0  0
 10 11  2  0  0  0
 11 12  1  0  0  0
 11 51  1  0  0  0
 12 13  2  0  0  0
 12 52  1  0  0  0
 13 14  1  0  0  0
 13 53  1  0  0  0
 14 15  1  0  0  0
 14 29  2  0  0  0
 15 16  1  0  0  0
 15 54  1  0  0  0
 15 55  1  0  0  0
 16 17  1  0  0  0
 16 56  1  0  0  0
 16 57  1  0  0  0
 17 18  1  0  0  0
 17 58  1  0  0  0
 17 59  1  0  0  0
 18 19  1  0  0  0
 18 60  1  0  0  0
 18 61  1  0  0  0
 19 20  1  0  0  0
 19 62  1  0  0  0
 20 25  1  0  0  0
 20 21  2  0  0  0
 21 22  1  0  0  0
 21 63  1  0  0  0
 22 23  2  0  0  0
 23 24  1  0  0  0
 23 64  1  0  0  0
 24 25  2  0  0  0
 24 26  1  0  0  0
 25 65  1  0  0  0
 26 27  2  0  0  0
 26 28  1  0  0  0
 28 66  1  0  0  0
 29 67  1  0  0  0
 30 36  1  0  0  0
 30 31  2  0  0  0
 31 32  1  0  0  0
 31 68  1  0  0  0
 32 33  2  0  0  0
 32 69  1  0  0  0
 33 34  1  0  0  0
 33 70  1  0  0  0
 34 35  1  0  0  0
 34 36  2  0  0  0
 36 71  1  0  0  0
M  CHG  1   4   1
M  END
> <s_m_source_file>
BACE_120.smi

> <i_m_source_file_index>
1

> <i_lp_mmshare_version>
42013

> <i_f3d_flags>
0

> <s_epik_input>
QnJjKFtjSF0xKVtjSF1bY0hdW2NIXWMxQyhbQ0gzXSkoW0NIM10pW05IXVtDSDJdW0NAQEhdKFtPSF0pW0NASF0oW0NIMl0yKVtOSF1DKD1PKWMoW2NIXTMpW2NIXW5bY0hdYzNbTkhdW0NIMl1bQ0gyXVtDSDJdW0NIMl1jKFtjSF00KVtjSF1bY0hdW2NIXWMyNA==

> <s_epik_cmdline>
J2VwaWtfcHl0aG9uJywgJy1waCcsICc3LjAnLCAnLXRuJywgJzgnLCAnLW1hJywgJzIwMCcsICctaW1hZScsICc8aW5maWxlLm1hZT4nLCAnLW9tYWUnLCAnPG91dGZpbGUubWFlPic=

> <r_lp_tautomer_probability>
1

> <r_epik_Ionization_Penalty>
  0.0262

> <r_epik_Ionization_Penalty_Charging>
  0.0247

> <r_epik_Ionization_Penalty_Neutral>
  0.0015

> <r_epik_State_Penalty>
  0.0201

> <r_epik_Charging_Adjusted_Penalty>
0.0447449

> <i_epik_Tot_Q>
1

> <i_epik_Tot_abs_Q>
1

> <s_lp_Force_Field>
OPLS_2005

> <r_lp_Energy>
30.3696

> <b_lp_Chiralities_Consistent>
1

> <s_lp_Variant>
BACE_120.smi:1-1

> <chiral flag>
1

> <version>
0

> <s_i_glide_gridfile>
second_dock_grid_2

> <i_i_glide_lignum>
245

> <i_i_glide_rotatable_bonds>
6

> <r_i_docking_score>
-4.08094

> <r_i_glide_ligand_efficiency>
-0.113359

> <r_i_glide_ligand_efficiency_sa>
-0.374305

> <r_i_glide_ligand_efficiency_ln>
-0.890351

> <r_glide_XP_GScore>
-4.10104

> <r_i_glide_gscore>
-4.10104

> <r_i_glide_evdw>
-35.0174

> <r_i_glide_ecoul>
-9.46315

> <r_i_glide_energy>
-44.4805

> <r_i_glide_einternal>
10.7794

> <r_i_glide_emodel>
-67.1071

> <r_glide_XP_HBond>
-0.48

> <i_i_glide_confnum>
1

> <i_i_glide_posenum>
1

> <r_i_glide_eff_state_penalty>
0.0201

> <i_glide_XP_PoseRank>
1

$$$$
BACE_120.smi:1
                    3D
 Structure written by MMmdl.
 71 74  0  0  1  0            999 V2000
   25.2149   43.2089   -9.0021 C   0  0  0  0  0  0
   25.3267   42.4275  -10.3298 C   0  0  0  0  0  0
   25.9418   41.0540  -10.0054 C   0  0  0  0  0  0
   23.9867   42.1152  -10.8401 N   0  0  0  0  0  0
   23.0694   43.1735  -11.2628 C   0  0  0  0  0  0
   21.6455   42.6220  -11.4956 C   0  0  1  0  0  0
   21.6603   41.7491  -12.6081 O   0  0  0  0  0  0
   21.0152   41.9445  -10.2533 C   0  0  2  0  0  0
   21.3012   40.4252  -10.0934 C   0  0  0  0  0  0
   20.6590   39.8491   -8.8495 C   0  0  0  0  0  0
   21.3022   39.9564   -7.5989 C   0  0  0  0  0  0
   20.6527   39.4998   -6.4373 C   0  0  0  0  0  0
   19.3588   38.9509   -6.5217 C   0  0  0  0  0  0
   18.7219   38.8335   -7.7721 C   0  0  0  0  0  0
   17.3263   38.2622   -7.8726 C   0  0  0  0  0  0
   16.2431   39.2287   -7.3658 C   0  0  0  0  0  0
   14.8231   38.7986   -7.7752 C   0  0  0  0  0  0
   14.4996   38.9494   -9.2765 C   0  0  0  0  0  0
   14.0600   40.2919   -9.6398 N   0  0  0  0  0  0
   15.0198   41.3069   -9.7579 C   0  0  0  0  0  0
   14.7366   42.5936   -9.2525 C   0  0  0  0  0  0
   15.6060   43.6263   -9.2969 N   0  0  0  0  0  0
   16.8284   43.3946   -9.8186 C   0  0  0  0  0  0
   17.2199   42.1510  -10.3549 C   0  0  0  0  0  0
   16.2862   41.0951  -10.3461 C   0  0  0  0  0  0
   18.5861   41.9325  -10.9190 C   0  0  0  0  0  0
   18.7261   41.4030  -12.0187 O   0  0  0  0  0  0
   19.5933   42.2782  -10.0984 N   0  0  0  0  0  0
   19.3839   39.2601   -8.9349 C   0  0  0  0  0  0
   26.1945   43.2090  -11.3400 C   0  0  0  0  0  0
   25.9108   44.5670  -11.6276 C   0  0  0  0  0  0
   26.7161   45.3077  -12.5139 C   0  0  0  0  0  0
   27.8348   44.7071  -13.1180 C   0  0  0  0  0  0
   28.1388   43.3633  -12.8397 C   0  0  0  0  0  0
   29.6606   42.5482  -13.6399 Br  0  0  0  0  0  0
   27.3200   42.6172  -11.9733 C   0  0  0  0  0  0
   21.0262   43.4770  -11.7699 H   0  0  0  0  0  0
   21.4618   42.4296   -9.3853 H   0  0  0  0  0  0
   26.2012   43.3829   -8.5706 H   0  0  0  0  0  0
   24.6280   42.6566   -8.2665 H   0  0  0  0  0  0
   24.7413   44.1827   -9.1194 H   0  0  0  0  0  0
   26.9643   41.1407   -9.6401 H   0  0  0  0  0  0
   25.9594   40.3955  -10.8738 H   0  0  0  0  0  0
   25.3580   40.5459   -9.2406 H   0  0  0  0  0  0
   24.0606   41.3837  -11.5467 H   0  0  0  0  0  0
   23.0171   43.9572  -10.5073 H   0  0  0  0  0  0
   23.4267   43.6453  -12.1783 H   0  0  0  0  0  0
   22.4982   41.3012  -12.6397 H   0  0  0  0  0  0
   20.9338   39.8740  -10.9586 H   0  0  0  0  0  0
   22.3706   40.2280  -10.0479 H   0  0  0  0  0  0
   22.2821   40.4038   -7.5265 H   0  0  0  0  0  0
   21.1363   39.5904   -5.4752 H   0  0  0  0  0  0
   18.8451   38.6242   -5.6314 H   0  0  0  0  0  0
   17.1413   37.9672   -8.9038 H   0  0  0  0  0  0
   17.3004   37.3494   -7.2910 H   0  0  0  0  0  0
   16.3007   39.2836   -6.2784 H   0  0  0  0  0  0
   16.4403   40.2392   -7.7166 H   0  0  0  0  0  0
   14.6952   37.7507   -7.5038 H   0  0  0  0  0  0
   14.0860   39.3430   -7.1813 H   0  0  0  0  0  0
   15.3071   38.5942   -9.9133 H   0  0  0  0  0  0
   13.6601   38.2935   -9.4938 H   0  0  0  0  0  0
   13.1923   40.5500   -9.1610 H   0  0  0  0  0  0
   13.7803   42.8060   -8.7981 H   0  0  0  0  0  0
   17.5075   44.2349   -9.8161 H   0  0  0  0  0  0
   16.5573   40.1349  -10.7572 H   0  0  0  0  0  0
   19.3342   42.6583   -9.2004 H   0  0  0  0  0  0
   18.8954   39.1781   -9.8947 H   0  0  0  0  0  0
   25.0706   45.0625  -11.1633 H   0  0  0  0  0  0
   26.4823   46.3416  -12.7201 H   0  0  0  0  0  0
   28.4649   45.2739  -13.7866 H   0  0  0  0  0  0
   27.5985   41.5887  -11.8009 H   0  0  0  0  0  0
  1  2  1  0  0  0
  1 39  1  0  0  0
  1 40  1  0  0  0
  1 41  1  0  0  0
  2  3  1  0  0  0
  2  4  1  0  0  0
  2 30  1  0  0  0
  3 42  1  0  0  0
  3 43  1  0  0  0
  3 44  1  0  0  0
  4  5  1  0  0  0
  4 45  1  0  0  0
  5  6  1  0  0  0
  5 46  1  0  0  0
  5 47  1  0  0  0
  6 37  1  0  0  0
  6  7  1  0  0  0
  6  8  1  0  0  0
  7 48  1  0  0  0
  8 38  1  0  0  0
  8 28  1  0  0  0
  8  9  1  0  0  0
  9 10  1  0  0  0
  9 49  1  0  0  0
  9 50  1  0  0  0
 10 29  1  0  0  0
 10 11  2  0  0  0
 11 12  1  0  0  0
 11 51  1  0  0  0
 12 13  2  0  0  0
 12 52  1  0  0  0
 13 14  1  0  0  0
 13 53  1  0  0  0
 14 15  1  0  0  0
 14 29  2  0  0  0
 15 16  1  0  0  0
 15 54  1  0  0  0
 15 55  1  0  0  0
 16 17  1  0  0  0
 16 56  1  0  0  0
 16 57  1  0  0  0
 17 18  1  0  0  0
 17 58  1  0  0  0
 17 59  1  0  0  0
 18 19  1  0  0  0
 18 60  1  0  0  0
 18 61  1  0  0  0
 19 20  1  0  0  0
 19 62  1  0  0  0
 20 25  1  0  0  0
 20 21  2  0  0  0
 21 22  1  0  0  0
 21 63  1  0  0  0
 22 23  2  0  0  0
 23 24  1  0  0  0
 23 64  1  0  0  0
 24 25  2  0  0  0
 24 26  1  0  0  0
 25 65  1  0  0  0
 26 27  2  0  0  0
 26 28  1  0  0  0
 28 66  1  0  0  0
 29 67  1  0  0  0
 30 36  1  0  0  0
 30 31  2  0  0  0
 31 32  1  0  0  0
 31 68  1  0  0  0
 32 33  2  0  0  0
 32 69  1  0  0  0
 33 34  1  0  0  0
 33 70  1  0  0  0
 34 35  1  0  0  0
 34 36  2  0  0  0
 36 71  1  0  0  0
M  END
> <s_m_source_file>
BACE_120.smi

> <i_m_source_file_index>
1

> <i_lp_mmshare_version>
42013

> <i_f3d_flags>
0

> <s_epik_input>
QnJjKFtjSF0xKVtjSF1bY0hdW2NIXWMxQyhbQ0gzXSkoW0NIM10pW05IXVtDSDJdW0NAQEhdKFtPSF0pW0NASF0oW0NIMl0yKVtOSF1DKD1PKWMoW2NIXTMpW2NIXW5bY0hdYzNbTkhdW0NIMl1bQ0gyXVtDSDJdW0NIMl1jKFtjSF00KVtjSF1bY0hdW2NIXWMyNA==

> <s_epik_cmdline>
J2VwaWtfcHl0aG9uJywgJy1waCcsICc3LjAnLCAnLXRuJywgJzgnLCAnLW1hJywgJzIwMCcsICctaW1hZScsICc8aW5maWxlLm1hZT4nLCAnLW9tYWUnLCAnPG91dGZpbGUubWFlPic=

> <r_lp_tautomer_probability>
1

> <r_epik_Ionization_Penalty>
  1.8971

> <r_epik_Ionization_Penalty_Charging>
  0.0000

> <r_epik_Ionization_Penalty_Neutral>
  1.8971

> <r_epik_State_Penalty>
  2.0160

> <r_epik_Charging_Adjusted_Penalty>
2.01604

> <i_epik_Tot_Q>
0

> <i_epik_Tot_abs_Q>
0

> <s_lp_Force_Field>
OPLS_2005

> <r_lp_Energy>
37.2102

> <b_lp_Chiralities_Consistent>
1

> <s_lp_Variant>
BACE_120.smi:1-2

> <chiral flag>
1

> <version>
0

> <s_i_glide_gridfile>
second_dock_grid_2

> <i_i_glide_lignum>
246

> <i_i_glide_rotatable_bonds>
6

> <r_i_docking_score>
-2.15898

> <r_i_glide_ligand_efficiency>
-0.0599717

> <r_i_glide_ligand_efficiency_sa>
-0.198022

> <r_i_glide_ligand_efficiency_ln>
-0.471032

> <r_glide_XP_GScore>
-4.17498

> <r_i_glide_gscore>
-4.17498

> <r_i_glide_evdw>
-38.7241

> <r_i_glide_ecoul>
-12.6881

> <r_i_glide_energy>
-51.4122

> <r_i_glide_einternal>
15.709

> <r_i_glide_emodel>
-65.1011

> <r_glide_XP_HBond>
-1.625

> <i_i_glide_confnum>
1

> <i_i_glide_posenum>
1

> <r_i_glide_eff_state_penalty>
2.016

> <i_glide_XP_PoseRank>
1

$$$$
BACE_121.smi:1
                    3D
 Structure written by MMmdl.
 86 90  0  0  1  0            999 V2000
   15.6805   37.5973   -9.2916 C   0  0  0  0  0  0
   16.1026   38.6769   -8.2729 C   0  0  0  0  0  0
   14.9633   38.8087   -7.2350 C   0  0  0  0  0  0
   17.3148   38.0746   -7.6397 N   0  3  0  0  0  0
   18.3629   38.8949   -6.9870 C   0  0  0  0  0  0
   19.5951   39.2325   -7.8943 C   0  0  1  0  0  0
   19.2396   40.0295   -9.0109 O   0  0  0  0  0  0
   20.7509   39.9748   -7.1532 C   0  0  2  0  0  0
   20.1873   40.9913   -6.1312 C   0  0  0  0  0  0
   21.0834   42.1358   -5.7206 C   0  0  0  0  0  0
   20.8516   43.4337   -6.2241 C   0  0  0  0  0  0
   21.6314   44.5212   -5.7839 C   0  0  0  0  0  0
   21.3313   45.9266   -6.2807 C   0  0  0  0  0  0
   22.5390   46.6812   -6.8698 C   0  0  0  0  0  0
   23.2709   45.9536   -8.0095 C   0  0  0  0  0  0
   22.4084   45.7525   -9.2713 C   0  0  0  0  0  0
   23.1483   45.1122  -10.3531 N   0  0  0  0  0  0
   23.6260   43.8019  -10.1959 C   0  0  0  0  0  0
   23.0246   42.8735   -9.3155 C   0  0  0  0  0  0
   23.5844   41.5862   -9.1576 C   0  0  0  0  0  0
   24.7669   41.2824   -9.8658 C   0  0  0  0  0  0
   25.3000   42.1643  -10.7450 N   0  3  0  0  0  0
   26.4639   41.7645  -11.5635 C   0  0  0  0  0  0
   27.8292   42.2393  -11.0787 C   0  0  0  0  0  0
   28.9723   41.7486  -11.7459 C   0  0  0  0  0  0
   30.2636   42.1517  -11.3561 C   0  0  0  0  0  0
   30.4233   43.0681  -10.3010 C   0  0  0  0  0  0
   29.2879   43.5745   -9.6396 C   0  0  0  0  0  0
   27.9964   43.1580  -10.0176 C   0  0  0  0  0  0
   24.7609   43.3952  -10.9270 C   0  0  0  0  0  0
   22.9650   40.5830   -8.2249 C   0  0  0  0  0  0
   23.6525   39.7501   -7.6411 O   0  0  0  0  0  0
   21.6305   40.6589   -8.1114 N   0  0  0  0  0  0
   22.6528   44.2926   -4.8398 C   0  0  0  0  0  0
   22.8737   42.9975   -4.3359 C   0  0  0  0  0  0
   22.0991   41.9153   -4.7764 C   0  0  0  0  0  0
   16.3468   40.0520   -8.9465 C   0  0  0  0  0  0
   16.4980   41.2265   -8.1628 C   0  0  0  0  0  0
   16.8620   42.4544   -8.7532 C   0  0  0  0  0  0
   17.2622   43.9697   -7.6719 Br  0  0  0  0  0  0
   16.9855   42.5540  -10.1489 C   0  0  0  0  0  0
   16.7606   41.4235  -10.9514 C   0  0  0  0  0  0
   16.4519   40.1861  -10.3569 C   0  0  0  0  0  0
   19.9964   38.3016   -8.2957 H   0  0  0  0  0  0
   21.3393   39.2431   -6.5957 H   0  0  0  0  0  0
   14.7042   37.8027   -9.7301 H   0  0  0  0  0  0
   15.6604   36.6149   -8.8197 H   0  0  0  0  0  0
   16.4067   37.4755  -10.0923 H   0  0  0  0  0  0
   14.0911   39.3006   -7.6707 H   0  0  0  0  0  0
   15.2578   39.3855   -6.3575 H   0  0  0  0  0  0
   14.6109   37.8404   -6.8744 H   0  0  0  0  0  0
   16.9232   37.4535   -6.9256 H   0  0  0  0  0  0
   17.9052   39.7497   -6.5043 H   0  0  0  0  0  0
   18.7340   38.2855   -6.1621 H   0  0  0  0  0  0
   18.4202   39.7328   -9.3800 H   0  0  0  0  0  0
   19.2924   41.4551   -6.5444 H   0  0  0  0  0  0
   19.8911   40.4568   -5.2278 H   0  0  0  0  0  0
   20.0576   43.5949   -6.9364 H   0  0  0  0  0  0
   20.5343   45.8835   -7.0214 H   0  0  0  0  0  0
   20.9279   46.4943   -5.4418 H   0  0  0  0  0  0
   22.2114   47.6597   -7.2184 H   0  0  0  0  0  0
   23.2566   46.8779   -6.0739 H   0  0  0  0  0  0
   24.1552   46.5316   -8.2805 H   0  0  0  0  0  0
   23.6455   44.9991   -7.6412 H   0  0  0  0  0  0
   21.5062   45.1811   -9.0483 H   0  0  0  0  0  0
   22.0668   46.7239   -9.6319 H   0  0  0  0  0  0
   23.6410   45.7253  -10.9889 H   0  0  0  0  0  0
   22.1444   43.1437   -8.7534 H   0  0  0  0  0  0
   25.2835   40.3398   -9.7752 H   0  0  0  0  0  0
   26.4662   40.6759  -11.6315 H   0  0  0  0  0  0
   26.2936   42.1502  -12.5701 H   0  0  0  0  0  0
   28.8649   41.0429  -12.5587 H   0  0  0  0  0  0
   31.1285   41.7606  -11.8743 H   0  0  0  0  0  0
   31.4117   43.3864  -10.0005 H   0  0  0  0  0  0
   29.4081   44.2827   -8.8331 H   0  0  0  0  0  0
   27.1531   43.5656   -9.4803 H   0  0  0  0  0  0
   25.2685   44.0349  -11.6361 H   0  0  0  0  0  0
   21.1509   41.3030   -8.7209 H   0  0  0  0  0  0
   23.2632   45.1076   -4.4789 H   0  0  0  0  0  0
   23.6563   42.8344   -3.6114 H   0  0  0  0  0  0
   22.2737   40.9254   -4.3797 H   0  0  0  0  0  0
   16.4008   41.1945   -7.0880 H   0  0  0  0  0  0
   17.2645   43.4933  -10.6014 H   0  0  0  0  0  0
   16.8637   41.4907  -12.0235 H   0  0  0  0  0  0
   16.3196   39.3513  -11.0252 H   0  0  0  0  0  0
   17.7671   37.4838   -8.3194 H   0  0  0  0  0  0
  1  2  1  0  0  0
  1 46  1  0  0  0
  1 47  1  0  0  0
  1 48  1  0  0  0
  2  3  1  0  0  0
  2  4  1  0  0  0
  2 37  1  0  0  0
  3 49  1  0  0  0
  3 50  1  0  0  0
  3 51  1  0  0  0
  4  5  1  0  0  0
  4 52  1  0  0  0
  4 86  1  0  0  0
  5  6  1  0  0  0
  5 53  1  0  0  0
  5 54  1  0  0  0
  6 44  1  0  0  0
  6  7  1  0  0  0
  6  8  1  0  0  0
  7 55  1  0  0  0
  8 45  1  0  0  0
  8 33  1  0  0  0
  8  9  1  0  0  0
  9 10  1  0  0  0
  9 56  1  0  0  0
  9 57  1  0  0  0
 10 36  1  0  0  0
 10 11  2  0  0  0
 11 12  1  0  0  0
 11 58  1  0  0  0
 12 13  1  0  0  0
 12 34  2  0  0  0
 13 14  1  0  0  0
 13 59  1  0  0  0
 13 60  1  0  0  0
 14 15  1  0  0  0
 14 61  1  0  0  0
 14 62  1  0  0  0
 15 16  1  0  0  0
 15 63  1  0  0  0
 15 64  1  0  0  0
 16 17  1  0  0  0
 16 65  1  0  0  0
 16 66  1  0  0  0
 17 18  1  0  0  0
 17 67  1  0  0  0
 18 30  1  0  0  0
 18 19  2  0  0  0
 19 20  1  0  0  0
 19 68  1  0  0  0
 20 21  2  0  0  0
 20 31  1  0  0  0
 21 22  1  0  0  0
 21 69  1  0  0  0
 22 23  1  0  0  0
 22 30  2  0  0  0
 23 24  1  0  0  0
 23 70  1  0  0  0
 23 71  1  0  0  0
 24 29  1  0  0  0
 24 25  2  0  0  0
 25 26  1  0  0  0
 25 72  1  0  0  0
 26 27  2  0  0  0
 26 73  1  0  0  0
 27 28  1  0  0  0
 27 74  1  0  0  0
 28 29  2  0  0  0
 28 75  1  0  0  0
 29 76  1  0  0  0
 30 77  1  0  0  0
 31 32  2  0  0  0
 31 33  1  0  0  0
 33 78  1  0  0  0
 34 35  1  0  0  0
 34 79  1  0  0  0
 35 36  2  0  0  0
 35 80  1  0  0  0
 36 81  1  0  0  0
 37 43  1  0  0  0
 37 38  2  0  0  0
 38 39  1  0  0  0
 38 82  1  0  0  0
 39 40  1  0  0  0
 39 41  2  0  0  0
 41 42  1  0  0  0
 41 83  1  0  0  0
 42 43  2  0  0  0
 42 84  1  0  0  0
 43 85  1  0  0  0
M  CHG  2   4   1  22   1
M  END
> <s_m_source_file>
BACE_121.smi

> <i_m_source_file_index>
1

> <i_lp_mmshare_version>
42013

> <i_f3d_flags>
0

> <s_epik_input>
W2NIXTFbY0hdW2NIXWMoQnIpW2NIXWMxQyhbQ0gzXSkoW0NIM10pW05IXVtDSDJdW0NAQEhdKFtPSF0pW0NASF0oW0NIMl0yKVtOSF1DKD1PKWMoW2NIXVtuK10oW2NIXTMpW0NIMl1jNFtjSF1bY0hdW2NIXVtjSF1bY0hdNClbY0hdYzNbTkhdW0NIMl1bQ0gyXVtDSDJdW0NIMl1jKFtjSF1jMjUpW2NIXVtjSF1bY0hdNQ==

> <s_epik_cmdline>
J2VwaWtfcHl0aG9uJywgJy1waCcsICc3LjAnLCAnLXRuJywgJzgnLCAnLW1hJywgJzIwMCcsICctaW1hZScsICc8aW5maWxlLm1hZT4nLCAnLW9tYWUnLCAnPG91dGZpbGUubWFlPic=

> <r_lp_tautomer_probability>
1

> <r_epik_Ionization_Penalty>
  0.0270

> <r_epik_Ionization_Penalty_Charging>
  0.0270

> <r_epik_Ionization_Penalty_Neutral>
  0.0000

> <r_epik_State_Penalty>
  0.0221

> <r_epik_Charging_Adjusted_Penalty>
0.0490488

> <i_epik_Tot_Q>
2

> <i_epik_Tot_abs_Q>
2

> <s_lp_Force_Field>
OPLS_2005

> <r_lp_Energy>
36.4735

> <b_lp_Chiralities_Consistent>
1

> <s_lp_Variant>
BACE_121.smi:1-1

> <chiral flag>
1

> <version>
0

> <s_i_glide_gridfile>
second_dock_grid_2

> <i_i_glide_lignum>
247

> <i_i_glide_rotatable_bonds>
8

> <r_i_docking_score>
-4.91686

> <r_i_glide_ligand_efficiency>
-0.114346

> <r_i_glide_ligand_efficiency_sa>
-0.400598

> <r_i_glide_ligand_efficiency_ln>
-1.03269

> <r_glide_XP_GScore>
-4.93896

> <r_i_glide_gscore>
-4.93896

> <r_i_glide_evdw>
-46.2843

> <r_i_glide_ecoul>
-12.8338

> <r_i_glide_energy>
-59.1182

> <r_i_glide_einternal>
6.15549

> <r_i_glide_emodel>
-77.9671

> <r_glide_XP_HBond>
-1.33

> <i_i_glide_confnum>
1

> <i_i_glide_posenum>
9

> <r_i_glide_eff_state_penalty>
0.0221

> <i_glide_XP_PoseRank>
1

$$$$
BACE_121.smi:1
                    3D
 Structure written by MMmdl.
 85 89  0  0  1  0            999 V2000
   15.7289   41.1892   -8.0574 C   0  0  0  0  0  0
   16.3636   41.3198   -9.4667 C   0  0  0  0  0  0
   15.3946   40.6717  -10.4733 C   0  0  0  0  0  0
   16.4845   42.7450   -9.8339 N   0  0  0  0  0  0
   17.1569   43.6122   -8.8568 C   0  0  0  0  0  0
   17.5641   44.9741   -9.4687 C   0  0  1  0  0  0
   16.3800   45.6415   -9.8608 O   0  0  0  0  0  0
   18.3279   45.8968   -8.4825 C   0  0  2  0  0  0
   18.9481   47.1503   -9.1563 C   0  0  0  0  0  0
   19.9818   47.8708   -8.2947 C   0  0  0  0  0  0
   21.3588   47.7616   -8.5885 C   0  0  0  0  0  0
   22.3265   48.3679   -7.7569 C   0  0  0  0  0  0
   23.8048   48.2574   -8.1170 C   0  0  0  0  0  0
   24.7694   47.9502   -6.9487 C   0  0  0  0  0  0
   24.4878   46.6490   -6.1767 C   0  0  0  0  0  0
   24.7282   45.3702   -7.0065 C   0  0  0  0  0  0
   24.4098   44.1503   -6.2708 N   0  0  0  0  0  0
   23.0833   43.8567   -5.9209 C   0  0  0  0  0  0
   21.9846   44.5523   -6.4728 C   0  0  0  0  0  0
   20.6882   44.3016   -5.9884 C   0  0  0  0  0  0
   20.4995   43.3208   -4.9992 C   0  0  0  0  0  0
   21.5560   42.6254   -4.5231 N   0  3  0  0  0  0
   21.3109   41.6318   -3.4688 C   0  0  0  0  0  0
   21.1134   42.3041   -2.1223 C   0  0  0  0  0  0
   22.0601   43.2289   -1.6404 C   0  0  0  0  0  0
   21.9522   43.7650   -0.3455 C   0  0  0  0  0  0
   20.8579   43.4213    0.4604 C   0  0  0  0  0  0
   19.8710   42.5496   -0.0397 C   0  0  0  0  0  0
   20.0046   41.9825   -1.3204 C   0  0  0  0  0  0
   22.8244   42.8651   -4.9494 C   0  0  0  0  0  0
   19.5449   45.1293   -6.4500 C   0  0  0  0  0  0
   18.8596   45.7495   -5.6401 O   0  0  0  0  0  0
   19.3615   45.1409   -7.7762 N   0  0  0  0  0  0
   21.9019   49.0975   -6.6243 C   0  0  0  0  0  0
   20.5292   49.2129   -6.3286 C   0  0  0  0  0  0
   19.5711   48.6089   -7.1647 C   0  0  0  0  0  0
   17.7203   40.5986   -9.5954 C   0  0  0  0  0  0
   18.5343   40.8292  -10.7335 C   0  0  0  0  0  0
   19.7592   40.1528  -10.9006 C   0  0  0  0  0  0
   20.8349   40.4803  -12.4403 Br  0  0  0  0  0  0
   20.1899   39.2307   -9.9289 C   0  0  0  0  0  0
   19.3932   38.9862   -8.7948 C   0  0  0  0  0  0
   18.1684   39.6616   -8.6294 C   0  0  0  0  0  0
   18.1784   44.7957  -10.3531 H   0  0  0  0  0  0
   17.6062   46.2508   -7.7426 H   0  0  0  0  0  0
   15.4584   40.1577   -7.8281 H   0  0  0  0  0  0
   14.8100   41.7714   -7.9784 H   0  0  0  0  0  0
   16.3954   41.5296   -7.2630 H   0  0  0  0  0  0
   15.2730   39.6074  -10.2682 H   0  0  0  0  0  0
   15.7529   40.7647  -11.4986 H   0  0  0  0  0  0
   14.4034   41.1251  -10.4262 H   0  0  0  0  0  0
   15.5579   43.1042  -10.0329 H   0  0  0  0  0  0
   16.5204   43.7755   -7.9861 H   0  0  0  0  0  0
   18.0480   43.0999   -8.4928 H   0  0  0  0  0  0
   15.9731   45.1184  -10.5338 H   0  0  0  0  0  0
   19.4250   46.8605  -10.0926 H   0  0  0  0  0  0
   18.1604   47.8531   -9.4308 H   0  0  0  0  0  0
   21.6761   47.1967   -9.4541 H   0  0  0  0  0  0
   23.9281   47.5006   -8.8920 H   0  0  0  0  0  0
   24.1013   49.1991   -8.5792 H   0  0  0  0  0  0
   25.7888   47.9163   -7.3348 H   0  0  0  0  0  0
   24.7575   48.7823   -6.2454 H   0  0  0  0  0  0
   25.1361   46.6146   -5.2999 H   0  0  0  0  0  0
   23.4731   46.6850   -5.7848 H   0  0  0  0  0  0
   24.1677   45.3912   -7.9409 H   0  0  0  0  0  0
   25.7797   45.3197   -7.2926 H   0  0  0  0  0  0
   25.1590   43.7338   -5.7342 H   0  0  0  0  0  0
   22.1249   45.3231   -7.2157 H   0  0  0  0  0  0
   19.5374   43.0867   -4.5663 H   0  0  0  0  0  0
   20.4331   41.0503   -3.7579 H   0  0  0  0  0  0
   22.1564   40.9437   -3.4263 H   0  0  0  0  0  0
   22.9107   43.4999   -2.2434 H   0  0  0  0  0  0
   22.7012   44.4488    0.0238 H   0  0  0  0  0  0
   20.7619   43.8366    1.4530 H   0  0  0  0  0  0
   19.0215   42.2778    0.5700 H   0  0  0  0  0  0
   19.2602   41.2824   -1.6683 H   0  0  0  0  0  0
   23.6072   42.2941   -4.4716 H   0  0  0  0  0  0
   19.9983   44.5973   -8.3403 H   0  0  0  0  0  0
   22.6250   49.5684   -5.9761 H   0  0  0  0  0  0
   20.2094   49.7607   -5.4540 H   0  0  0  0  0  0
   18.5220   48.6909   -6.9217 H   0  0  0  0  0  0
   18.2132   41.5263  -11.4932 H   0  0  0  0  0  0
   21.1282   38.7107  -10.0547 H   0  0  0  0  0  0
   19.7189   38.2733   -8.0506 H   0  0  0  0  0  0
   17.5850   39.4355   -7.7488 H   0  0  0  0  0  0
  1  2  1  0  0  0
  1 46  1  0  0  0
  1 47  1  0  0  0
  1 48  1  0  0  0
  2  3  1  0  0  0
  2  4  1  0  0  0
  2 37  1  0  0  0
  3 49  1  0  0  0
  3 50  1  0  0  0
  3 51  1  0  0  0
  4  5  1  0  0  0
  4 52  1  0  0  0
  5  6  1  0  0  0
  5 53  1  0  0  0
  5 54  1  0  0  0
  6 44  1  0  0  0
  6  7  1  0  0  0
  6  8  1  0  0  0
  7 55  1  0  0  0
  8 45  1  0  0  0
  8 33  1  0  0  0
  8  9  1  0  0  0
  9 10  1  0  0  0
  9 56  1  0  0  0
  9 57  1  0  0  0
 10 36  1  0  0  0
 10 11  2  0  0  0
 11 12  1  0  0  0
 11 58  1  0  0  0
 12 13  1  0  0  0
 12 34  2  0  0  0
 13 14  1  0  0  0
 13 59  1  0  0  0
 13 60  1  0  0  0
 14 15  1  0  0  0
 14 61  1  0  0  0
 14 62  1  0  0  0
 15 16  1  0  0  0
 15 63  1  0  0  0
 15 64  1  0  0  0
 16 17  1  0  0  0
 16 65  1  0  0  0
 16 66  1  0  0  0
 17 18  1  0  0  0
 17 67  1  0  0  0
 18 30  1  0  0  0
 18 19  2  0  0  0
 19 20  1  0  0  0
 19 68  1  0  0  0
 20 21  2  0  0  0
 20 31  1  0  0  0
 21 22  1  0  0  0
 21 69  1  0  0  0
 22 23  1  0  0  0
 22 30  2  0  0  0
 23 24  1  0  0  0
 23 70  1  0  0  0
 23 71  1  0  0  0
 24 29  1  0  0  0
 24 25  2  0  0  0
 25 26  1  0  0  0
 25 72  1  0  0  0
 26 27  2  0  0  0
 26 73  1  0  0  0
 27 28  1  0  0  0
 27 74  1  0  0  0
 28 29  2  0  0  0
 28 75  1  0  0  0
 29 76  1  0  0  0
 30 77  1  0  0  0
 31 32  2  0  0  0
 31 33  1  0  0  0
 33 78  1  0  0  0
 34 35  1  0  0  0
 34 79  1  0  0  0
 35 36  2  0  0  0
 35 80  1  0  0  0
 36 81  1  0  0  0
 37 43  1  0  0  0
 37 38  2  0  0  0
 38 39  1  0  0  0
 38 82  1  0  0  0
 39 40  1  0  0  0
 39 41  2  0  0  0
 41 42  1  0  0  0
 41 83  1  0  0  0
 42 43  2  0  0  0
 42 84  1  0  0  0
 43 85  1  0  0  0
M  CHG  1  22   1
M  END
> <s_m_source_file>
BACE_121.smi

> <i_m_source_file_index>
1

> <i_lp_mmshare_version>
42013

> <i_f3d_flags>
0

> <s_epik_input>
W2NIXTFbY0hdW2NIXWMoQnIpW2NIXWMxQyhbQ0gzXSkoW0NIM10pW05IXVtDSDJdW0NAQEhdKFtPSF0pW0NASF0oW0NIMl0yKVtOSF1DKD1PKWMoW2NIXVtuK10oW2NIXTMpW0NIMl1jNFtjSF1bY0hdW2NIXVtjSF1bY0hdNClbY0hdYzNbTkhdW0NIMl1bQ0gyXVtDSDJdW0NIMl1jKFtjSF1jMjUpW2NIXVtjSF1bY0hdNQ==

> <s_epik_cmdline>
J2VwaWtfcHl0aG9uJywgJy1waCcsICc3LjAnLCAnLXRuJywgJzgnLCAnLW1hJywgJzIwMCcsICctaW1hZScsICc8aW5maWxlLm1hZT4nLCAnLW9tYWUnLCAnPG91dGZpbGUubWFlPic=

> <r_lp_tautomer_probability>
1

> <r_epik_Ionization_Penalty>
  1.8436

> <r_epik_Ionization_Penalty_Charging>
  0.0000

> <r_epik_Ionization_Penalty_Neutral>
  1.8436

> <r_epik_State_Penalty>
  1.9606

> <r_epik_Charging_Adjusted_Penalty>
1.96055

> <i_epik_Tot_Q>
1

> <i_epik_Tot_abs_Q>
1

> <s_lp_Force_Field>
OPLS_2005

> <r_lp_Energy>
42.2154

> <b_lp_Chiralities_Consistent>
1

> <s_lp_Variant>
BACE_121.smi:1-2

> <chiral flag>
1

> <version>
0

> <s_i_glide_gridfile>
second_dock_grid_2

> <i_i_glide_lignum>
248

> <i_i_glide_rotatable_bonds>
8

> <r_i_docking_score>
-2.63324

> <r_i_glide_ligand_efficiency>
-0.0612382

> <r_i_glide_ligand_efficiency_sa>
-0.214542

> <r_i_glide_ligand_efficiency_ln>
-0.553062

> <r_glide_XP_GScore>
-4.59384

> <r_i_glide_gscore>
-4.59384

> <r_i_glide_evdw>
-46.1904

> <r_i_glide_ecoul>
-8.17596

> <r_i_glide_energy>
-54.3664

> <r_i_glide_einternal>
4.60165

> <r_i_glide_emodel>
-68.1321

> <r_glide_XP_HBond>
-0.48

> <i_i_glide_confnum>
1

> <i_i_glide_posenum>
4

> <r_i_glide_eff_state_penalty>
1.9606

> <i_glide_XP_PoseRank>
1

$$$$
BACE_122.smi:1
                    3D
 Structure written by MMmdl.
 82 85  0  0  1  0            999 V2000
   14.1648   43.6457   -9.2860 C   0  0  0  0  0  0
   15.2995   43.0115   -8.4611 C   0  0  0  0  0  0
   16.3352   44.0645   -8.0400 C   0  0  0  0  0  0
   15.9794   41.8297   -9.1369 C   0  0  0  0  0  0
   16.5786   40.8258   -8.3408 C   0  0  0  0  0  0
   17.2003   39.6922   -8.9257 C   0  0  0  0  0  0
   17.2144   39.6075  -10.3387 C   0  0  0  0  0  0
   16.6407   40.6149  -11.1319 C   0  0  0  0  0  0
   16.0247   41.7227  -10.5383 C   0  0  0  0  0  0
   17.8582   38.5798   -8.0689 C   0  0  0  0  0  0
   17.2829   38.5584   -6.6430 C   0  0  0  0  0  0
   17.6155   37.1822   -8.6849 C   0  0  0  0  0  0
   19.3241   38.7837   -7.9032 N   0  3  0  0  0  0
   20.0668   39.4066   -9.0188 C   0  0  0  0  0  0
   21.5847   39.4764   -8.7439 C   0  0  1  0  0  0
   22.0598   38.1502   -8.8403 O   0  0  0  0  0  0
   22.4273   40.3770   -9.7021 C   0  0  2  0  0  0
   23.6625   40.9452   -8.9566 C   0  0  0  0  0  0
   24.5460   41.8646   -9.7846 C   0  0  0  0  0  0
   24.2491   43.2416   -9.8866 C   0  0  0  0  0  0
   25.0447   44.0894  -10.6815 C   0  0  0  0  0  0
   26.1682   43.5593  -11.3540 C   0  0  0  0  0  0
   26.4897   42.1940  -11.2274 C   0  0  0  0  0  0
   25.6840   41.3499  -10.4400 C   0  0  0  0  0  0
   24.7316   45.4258  -10.7437 O   0  0  0  0  0  0
   24.4571   45.9424  -12.0426 C   0  0  0  0  0  0
   22.9350   46.0512  -12.2174 C   0  0  0  0  0  0
   22.3143   47.1429  -11.3247 C   0  0  0  0  0  0
   20.7747   47.1153  -11.2754 C   0  0  0  0  0  0
   20.2898   46.0630  -10.3906 N   0  0  0  0  0  0
   19.7498   44.9541  -11.0391 C   0  0  0  0  0  0
   18.5865   45.0450  -11.8286 C   0  0  0  0  0  0
   18.1266   43.8823  -12.4723 C   0  0  0  0  0  0
   18.8600   42.6893  -12.3322 C   0  0  0  0  0  0
   20.0158   42.6944  -11.5174 C   0  0  0  0  0  0
   20.4312   43.8073  -10.8670 N   0  0  0  0  0  0
   20.8468   41.4516  -11.3493 C   0  0  0  0  0  0
   20.7180   40.4766  -12.0908 O   0  0  0  0  0  0
   21.6427   41.4739  -10.2675 N   0  0  0  0  0  0
   21.7294   39.8253   -7.7198 H   0  0  0  0  0  0
   22.7833   39.7798  -10.5441 H   0  0  0  0  0  0
   13.4407   42.8943   -9.6055 H   0  0  0  0  0  0
   14.5417   44.1567  -10.1717 H   0  0  0  0  0  0
   13.6261   44.3817   -8.6889 H   0  0  0  0  0  0
   14.8252   42.5939   -7.5766 H   0  0  0  0  0  0
   17.0672   43.6411   -7.3517 H   0  0  0  0  0  0
   15.8603   44.9079   -7.5401 H   0  0  0  0  0  0
   16.8759   44.4500   -8.9049 H   0  0  0  0  0  0
   16.5406   40.9476   -7.2685 H   0  0  0  0  0  0
   17.6829   38.7797  -10.8452 H   0  0  0  0  0  0
   16.6813   40.5502  -12.2060 H   0  0  0  0  0  0
   15.5974   42.4821  -11.1723 H   0  0  0  0  0  0
   16.1917   38.5485   -6.6377 H   0  0  0  0  0  0
   17.5862   39.4219   -6.0647 H   0  0  0  0  0  0
   17.6602   37.7117   -6.0736 H   0  0  0  0  0  0
   16.5496   36.9968   -8.8202 H   0  0  0  0  0  0
   17.9919   36.3922   -8.0364 H   0  0  0  0  0  0
   18.1047   37.0480   -9.6494 H   0  0  0  0  0  0
   19.4406   39.3869   -7.1015 H   0  0  0  0  0  0
   19.8754   38.8777   -9.9535 H   0  0  0  0  0  0
   19.6656   40.4137   -9.1084 H   0  0  0  0  0  0
   22.9884   38.1636   -9.0530 H   0  0  0  0  0  0
   23.3378   41.5019   -8.0764 H   0  0  0  0  0  0
   24.2744   40.1285   -8.5736 H   0  0  0  0  0  0
   23.3954   43.6532   -9.3683 H   0  0  0  0  0  0
   26.7980   44.2014  -11.9521 H   0  0  0  0  0  0
   27.3560   41.7920  -11.7326 H   0  0  0  0  0  0
   25.9411   40.3031  -10.3563 H   0  0  0  0  0  0
   24.9231   46.9226  -12.1419 H   0  0  0  0  0  0
   24.8738   45.3218  -12.8366 H   0  0  0  0  0  0
   22.7018   46.2742  -13.2595 H   0  0  0  0  0  0
   22.4948   45.0757  -12.0123 H   0  0  0  0  0  0
   22.7154   47.0744  -10.3114 H   0  0  0  0  0  0
   22.6370   48.1140  -11.7048 H   0  0  0  0  0  0
   20.4109   48.0652  -10.8817 H   0  0  0  0  0  0
   20.3676   47.0233  -12.2832 H   0  0  0  0  0  0
   21.0046   45.7873   -9.7329 H   0  0  0  0  0  0
   18.0589   45.9807  -11.9332 H   0  0  0  0  0  0
   17.2393   43.9126  -13.0867 H   0  0  0  0  0  0
   18.5507   41.7890  -12.8397 H   0  0  0  0  0  0
   21.6560   42.3571   -9.7757 H   0  0  0  0  0  0
   19.7522   37.8935   -7.6907 H   0  0  0  0  0  0
  1  2  1  0  0  0
  1 42  1  0  0  0
  1 43  1  0  0  0
  1 44  1  0  0  0
  2  3  1  0  0  0
  2  4  1  0  0  0
  2 45  1  0  0  0
  3 46  1  0  0  0
  3 47  1  0  0  0
  3 48  1  0  0  0
  4  9  1  0  0  0
  4  5  2  0  0  0
  5  6  1  0  0  0
  5 49  1  0  0  0
  6  7  2  0  0  0
  6 10  1  0  0  0
  7  8  1  0  0  0
  7 50  1  0  0  0
  8  9  2  0  0  0
  8 51  1  0  0  0
  9 52  1  0  0  0
 10 11  1  0  0  0
 10 12  1  0  0  0
 10 13  1  0  0  0
 11 53  1  0  0  0
 11 54  1  0  0  0
 11 55  1  0  0  0
 12 56  1  0  0  0
 12 57  1  0  0  0
 12 58  1  0  0  0
 13 14  1  0  0  0
 13 59  1  0  0  0
 13 82  1  0  0  0
 14 15  1  0  0  0
 14 60  1  0  0  0
 14 61  1  0  0  0
 15 40  1  0  0  0
 15 16  1  0  0  0
 15 17  1  0  0  0
 16 62  1  0  0  0
 17 41  1  0  0  0
 17 39  1  0  0  0
 17 18  1  0  0  0
 18 19  1  0  0  0
 18 63  1  0  0  0
 18 64  1  0  0  0
 19 24  1  0  0  0
 19 20  2  0  0  0
 20 21  1  0  0  0
 20 65  1  0  0  0
 21 22  2  0  0  0
 21 25  1  0  0  0
 22 23  1  0  0  0
 22 66  1  0  0  0
 23 24  2  0  0  0
 23 67  1  0  0  0
 24 68  1  0  0  0
 25 26  1  0  0  0
 26 27  1  0  0  0
 26 69  1  0  0  0
 26 70  1  0  0  0
 27 28  1  0  0  0
 27 71  1  0  0  0
 27 72  1  0  0  0
 28 29  1  0  0  0
 28 73  1  0  0  0
 28 74  1  0  0  0
 29 30  1  0  0  0
 29 75  1  0  0  0
 29 76  1  0  0  0
 30 31  1  0  0  0
 30 77  1  0  0  0
 31 36  1  0  0  0
 31 32  2  0  0  0
 32 33  1  0  0  0
 32 78  1  0  0  0
 33 34  2  0  0  0
 33 79  1  0  0  0
 34 35  1  0  0  0
 34 80  1  0  0  0
 35 36  2  0  0  0
 35 37  1  0  0  0
 37 38  2  0  0  0
 37 39  1  0  0  0
 39 81  1  0  0  0
M  CHG  1  13   1
M  END
> <s_m_source_file>
BACE_122.smi

> <i_m_source_file_index>
1

> <i_lp_mmshare_version>
42013

> <i_f3d_flags>
0

> <s_epik_input>
W0NIM11bQ0hdKFtDSDNdKWMxW2NIXWMoW2NIXVtjSF1bY0hdMSlDKFtDSDNdKShbQ0gzXSlbTkhdW0NIMl1bQ0BASF0oW09IXSlbQ0BIXShbQ0gyXTIpW05IXUMoPU8pYyhuMylbY0hdW2NIXVtjSF1jM1tOSF1bQ0gyXVtDSDJdW0NIMl1bQ0gyXU9jKFtjSF1jMjQpW2NIXVtjSF1bY0hdNA==

> <s_epik_cmdline>
J2VwaWtfcHl0aG9uJywgJy1waCcsICc3LjAnLCAnLXRuJywgJzgnLCAnLW1hJywgJzIwMCcsICctaW1hZScsICc8aW5maWxlLm1hZT4nLCAnLW9tYWUnLCAnPG91dGZpbGUubWFlPic=

> <r_lp_tautomer_probability>
1

> <r_epik_Ionization_Penalty>
  0.0323

> <r_epik_Ionization_Penalty_Charging>
  0.0201

> <r_epik_Ionization_Penalty_Neutral>
  0.0123

> <r_epik_State_Penalty>
  0.0253

> <r_epik_Charging_Adjusted_Penalty>
0.0453276

> <i_epik_Tot_Q>
1

> <i_epik_Tot_abs_Q>
1

> <s_lp_Force_Field>
OPLS_2005

> <r_lp_Energy>
40.1793

> <b_lp_Chiralities_Consistent>
1

> <s_lp_Variant>
BACE_122.smi:1-1

> <chiral flag>
1

> <version>
0

> <s_i_glide_gridfile>
second_dock_grid_2

> <i_i_glide_lignum>
249

> <i_i_glide_rotatable_bonds>
7

> <r_i_docking_score>
-4.02734

> <r_i_glide_ligand_efficiency>
-0.103265

> <r_i_glide_ligand_efficiency_sa>
-0.350194

> <r_i_glide_ligand_efficiency_ln>
-0.863576

> <r_glide_XP_GScore>
-4.05264

> <r_i_glide_gscore>
-4.05264

> <r_i_glide_evdw>
-39.0935

> <r_i_glide_ecoul>
-6.36634

> <r_i_glide_energy>
-45.4599

> <r_i_glide_einternal>
2.47056

> <r_i_glide_emodel>
-64.7386

> <r_glide_XP_HBond>
-0.697907

> <i_i_glide_confnum>
1

> <i_i_glide_posenum>
4

> <r_i_glide_eff_state_penalty>
0.0253

> <i_glide_XP_PoseRank>
1

$$$$
BACE_122.smi:1
                    3D
 Structure written by MMmdl.
 81 84  0  0  1  0            999 V2000
   25.7692   41.4125  -10.4044 C   0  0  0  0  0  0
   24.4697   42.1896  -10.1385 C   0  0  0  0  0  0
   24.1822   43.2120  -11.2487 C   0  0  0  0  0  0
   24.4707   42.8460   -8.7633 C   0  0  0  0  0  0
   23.4965   42.5015   -7.8003 C   0  0  0  0  0  0
   23.4850   43.1015   -6.5142 C   0  0  0  0  0  0
   24.5035   44.0371   -6.2095 C   0  0  0  0  0  0
   25.4762   44.3868   -7.1641 C   0  0  0  0  0  0
   25.4585   43.7973   -8.4397 C   0  0  0  0  0  0
   22.4360   42.7167   -5.4491 C   0  0  0  0  0  0
   21.4856   41.6741   -6.0774 C   0  0  0  0  0  0
   23.1180   42.0986   -4.2032 C   0  0  0  0  0  0
   21.6765   43.9115   -5.0214 N   0  0  0  0  0  0
   21.1690   44.8361   -6.0409 C   0  0  0  0  0  0
   19.6276   44.8717   -6.0288 C   0  0  1  0  0  0
   19.1905   46.1811   -5.7225 O   0  0  0  0  0  0
   18.9592   44.4157   -7.3538 C   0  0  2  0  0  0
   17.4237   44.5948   -7.2891 C   0  0  0  0  0  0
   16.6872   44.1475   -8.5439 C   0  0  0  0  0  0
   16.2808   42.8038   -8.6882 C   0  0  0  0  0  0
   15.6040   42.3708   -9.8570 C   0  0  0  0  0  0
   15.3099   43.3174  -10.8594 C   0  0  0  0  0  0
   15.7057   44.6614  -10.7172 C   0  0  0  0  0  0
   16.3991   45.0753   -9.5646 C   0  0  0  0  0  0
   15.2152   41.0663  -10.0817 O   0  0  0  0  0  0
   15.7834   40.0671   -9.2459 C   0  0  0  0  0  0
   15.5100   38.6709   -9.8207 C   0  0  0  0  0  0
   16.0560   37.5125   -8.9593 C   0  0  0  0  0  0
   17.5920   37.3866   -8.9321 C   0  0  0  0  0  0
   18.2084   38.3259   -8.0028 N   0  0  0  0  0  0
   19.3371   39.0191   -8.4554 C   0  0  0  0  0  0
   20.3739   38.3796   -9.1695 C   0  0  0  0  0  0
   21.4603   39.1565   -9.6129 C   0  0  0  0  0  0
   21.4669   40.5381   -9.3423 C   0  0  0  0  0  0
   20.3859   41.0995   -8.6238 C   0  0  0  0  0  0
   19.3553   40.3399   -8.1768 N   0  0  0  0  0  0
   20.3397   42.5837   -8.3650 C   0  0  0  0  0  0
   21.2246   43.3303   -8.7847 O   0  0  0  0  0  0
   19.2751   43.0216   -7.6710 N   0  0  0  0  0  0
   19.2588   44.2320   -5.2255 H   0  0  0  0  0  0
   19.3081   45.0535   -8.1688 H   0  0  0  0  0  0
   25.9374   40.6564   -9.6371 H   0  0  0  0  0  0
   26.6384   42.0704  -10.4210 H   0  0  0  0  0  0
   25.7274   40.9005  -11.3662 H   0  0  0  0  0  0
   23.6569   41.4623  -10.1566 H   0  0  0  0  0  0
   23.2304   43.7161  -11.0783 H   0  0  0  0  0  0
   24.1270   42.7262  -12.2233 H   0  0  0  0  0  0
   24.9582   43.9759  -11.3040 H   0  0  0  0  0  0
   22.7626   41.7576   -8.0698 H   0  0  0  0  0  0
   24.5632   44.4963   -5.2354 H   0  0  0  0  0  0
   26.2428   45.1050   -6.9135 H   0  0  0  0  0  0
   26.2128   44.0715   -9.1624 H   0  0  0  0  0  0
   22.0372   40.8103   -6.4507 H   0  0  0  0  0  0
   20.9338   42.0956   -6.9185 H   0  0  0  0  0  0
   20.7595   41.2900   -5.3607 H   0  0  0  0  0  0
   23.6614   41.1836   -4.4336 H   0  0  0  0  0  0
   22.3998   41.8204   -3.4331 H   0  0  0  0  0  0
   23.8249   42.7975   -3.7547 H   0  0  0  0  0  0
   20.9262   43.6402   -4.3933 H   0  0  0  0  0  0
   21.5567   45.8431   -5.8862 H   0  0  0  0  0  0
   21.5022   44.5194   -7.0275 H   0  0  0  0  0  0
   19.4775   46.7627   -6.4100 H   0  0  0  0  0  0
   17.0195   44.0418   -6.4402 H   0  0  0  0  0  0
   17.1828   45.6419   -7.1011 H   0  0  0  0  0  0
   16.5099   42.1153   -7.8892 H   0  0  0  0  0  0
   14.7883   43.0068  -11.7527 H   0  0  0  0  0  0
   15.4814   45.3747  -11.4964 H   0  0  0  0  0  0
   16.7039   46.1067   -9.4643 H   0  0  0  0  0  0
   16.8576   40.2276   -9.1998 H   0  0  0  0  0  0
   15.3777   40.1436   -8.2361 H   0  0  0  0  0  0
   14.4317   38.5466   -9.9256 H   0  0  0  0  0  0
   15.9205   38.6031  -10.8288 H   0  0  0  0  0  0
   15.6588   37.5712   -7.9449 H   0  0  0  0  0  0
   15.6592   36.5860   -9.3754 H   0  0  0  0  0  0
   17.8660   36.3830   -8.6063 H   0  0  0  0  0  0
   17.9843   37.5048   -9.9431 H   0  0  0  0  0  0
   17.5544   38.8831   -7.4725 H   0  0  0  0  0  0
   20.3448   37.3194   -9.3750 H   0  0  0  0  0  0
   22.2712   38.7018  -10.1624 H   0  0  0  0  0  0
   22.2863   41.1490   -9.6928 H   0  0  0  0  0  0
   18.6069   42.3264   -7.3706 H   0  0  0  0  0  0
  1  2  1  0  0  0
  1 42  1  0  0  0
  1 43  1  0  0  0
  1 44  1  0  0  0
  2  3  1  0  0  0
  2  4  1  0  0  0
  2 45  1  0  0  0
  3 46  1  0  0  0
  3 47  1  0  0  0
  3 48  1  0  0  0
  4  9  1  0  0  0
  4  5  2  0  0  0
  5  6  1  0  0  0
  5 49  1  0  0  0
  6  7  2  0  0  0
  6 10  1  0  0  0
  7  8  1  0  0  0
  7 50  1  0  0  0
  8  9  2  0  0  0
  8 51  1  0  0  0
  9 52  1  0  0  0
 10 11  1  0  0  0
 10 12  1  0  0  0
 10 13  1  0  0  0
 11 53  1  0  0  0
 11 54  1  0  0  0
 11 55  1  0  0  0
 12 56  1  0  0  0
 12 57  1  0  0  0
 12 58  1  0  0  0
 13 14  1  0  0  0
 13 59  1  0  0  0
 14 15  1  0  0  0
 14 60  1  0  0  0
 14 61  1  0  0  0
 15 40  1  0  0  0
 15 16  1  0  0  0
 15 17  1  0  0  0
 16 62  1  0  0  0
 17 41  1  0  0  0
 17 39  1  0  0  0
 17 18  1  0  0  0
 18 19  1  0  0  0
 18 63  1  0  0  0
 18 64  1  0  0  0
 19 24  1  0  0  0
 19 20  2  0  0  0
 20 21  1  0  0  0
 20 65  1  0  0  0
 21 22  2  0  0  0
 21 25  1  0  0  0
 22 23  1  0  0  0
 22 66  1  0  0  0
 23 24  2  0  0  0
 23 67  1  0  0  0
 24 68  1  0  0  0
 25 26  1  0  0  0
 26 27  1  0  0  0
 26 69  1  0  0  0
 26 70  1  0  0  0
 27 28  1  0  0  0
 27 71  1  0  0  0
 27 72  1  0  0  0
 28 29  1  0  0  0
 28 73  1  0  0  0
 28 74  1  0  0  0
 29 30  1  0  0  0
 29 75  1  0  0  0
 29 76  1  0  0  0
 30 31  1  0  0  0
 30 77  1  0  0  0
 31 36  1  0  0  0
 31 32  2  0  0  0
 32 33  1  0  0  0
 32 78  1  0  0  0
 33 34  2  0  0  0
 33 79  1  0  0  0
 34 35  1  0  0  0
 34 80  1  0  0  0
 35 36  2  0  0  0
 35 37  1  0  0  0
 37 38  2  0  0  0
 37 39  1  0  0  0
 39 81  1  0  0  0
M  END
> <s_m_source_file>
BACE_122.smi

> <i_m_source_file_index>
1

> <i_lp_mmshare_version>
42013

> <i_f3d_flags>
0

> <s_epik_input>
W0NIM11bQ0hdKFtDSDNdKWMxW2NIXWMoW2NIXVtjSF1bY0hdMSlDKFtDSDNdKShbQ0gzXSlbTkhdW0NIMl1bQ0BASF0oW09IXSlbQ0BIXShbQ0gyXTIpW05IXUMoPU8pYyhuMylbY0hdW2NIXVtjSF1jM1tOSF1bQ0gyXVtDSDJdW0NIMl1bQ0gyXU9jKFtjSF1jMjQpW2NIXVtjSF1bY0hdNA==

> <s_epik_cmdline>
J2VwaWtfcHl0aG9uJywgJy1waCcsICc3LjAnLCAnLXRuJywgJzgnLCAnLW1hJywgJzIwMCcsICctaW1hZScsICc8aW5maWxlLm1hZT4nLCAnLW9tYWUnLCAnPG91dGZpbGUubWFlPic=

> <r_lp_tautomer_probability>
1

> <r_epik_Ionization_Penalty>
  2.0406

> <r_epik_Ionization_Penalty_Charging>
  0.0000

> <r_epik_Ionization_Penalty_Neutral>
  2.0406

> <r_epik_State_Penalty>
  2.1552

> <r_epik_Charging_Adjusted_Penalty>
2.15519

> <i_epik_Tot_Q>
0

> <i_epik_Tot_abs_Q>
0

> <s_lp_Force_Field>
OPLS_2005

> <r_lp_Energy>
44.2653

> <b_lp_Chiralities_Consistent>
1

> <s_lp_Variant>
BACE_122.smi:1-2

> <chiral flag>
1

> <version>
0

> <s_i_glide_gridfile>
second_dock_grid_2

> <i_i_glide_lignum>
250

> <i_i_glide_rotatable_bonds>
7

> <r_i_docking_score>
-0.815754

> <r_i_glide_ligand_efficiency>
-0.0209168

> <r_i_glide_ligand_efficiency_sa>
-0.0709332

> <r_i_glide_ligand_efficiency_ln>
-0.174921

> <r_glide_XP_GScore>
-2.97095

> <r_i_glide_gscore>
-2.97095

> <r_i_glide_evdw>
-39.548

> <r_i_glide_ecoul>
-5.78733

> <r_i_glide_energy>
-45.3353

> <r_i_glide_einternal>
3.03101

> <r_i_glide_emodel>
-65.4773

> <r_glide_XP_HBond>
-0.7

> <i_i_glide_confnum>
1

> <i_i_glide_posenum>
2

> <r_i_glide_eff_state_penalty>
2.1552

> <i_glide_XP_PoseRank>
1

$$$$
BACE_122.smi:1
                    3D
 Structure written by MMmdl.
 83 86  0  0  1  0            999 V2000
   31.6857   44.6859  -10.7412 C   0  0  0  0  0  0
   30.5729   44.3459   -9.7348 C   0  0  0  0  0  0
   31.1555   43.8422   -8.4074 C   0  0  0  0  0  0
   29.5290   43.3935  -10.3189 C   0  0  0  0  0  0
   28.1541   43.7096  -10.2224 C   0  0  0  0  0  0
   27.1623   42.9077  -10.8446 C   0  0  0  0  0  0
   27.5853   41.7515  -11.5421 C   0  0  0  0  0  0
   28.9518   41.4240  -11.6360 C   0  0  0  0  0  0
   29.9207   42.2319  -11.0165 C   0  0  0  0  0  0
   25.6882   43.3598  -10.9139 C   0  0  0  0  0  0
   25.3230   44.4148   -9.8402 C   0  0  0  0  0  0
   25.4899   44.0351  -12.2827 C   0  0  0  0  0  0
   24.7134   42.2317  -10.8415 N   0  3  0  0  0  0
   24.6722   41.3763   -9.6347 C   0  0  0  0  0  0
   23.2926   40.6790   -9.4964 C   0  0  1  0  0  0
   23.3561   39.7500   -8.4394 O   0  0  0  0  0  0
   22.0793   41.6088   -9.2374 C   0  0  2  0  0  0
   22.3323   42.6790   -8.1447 C   0  0  0  0  0  0
   21.1159   43.5103   -7.7636 C   0  0  0  0  0  0
   20.3308   44.1399   -8.7536 C   0  0  0  0  0  0
   19.1830   44.8849   -8.4132 C   0  0  0  0  0  0
   18.8532   45.0377   -7.0434 C   0  0  0  0  0  0
   19.6543   44.4379   -6.0507 C   0  0  0  0  0  0
   20.7742   43.6679   -6.4073 C   0  0  0  0  0  0
   18.4725   45.4296   -9.4640 O   0  0  0  0  0  0
   17.1063   45.8125   -9.3070 C   0  0  0  0  0  0
   16.1512   44.6462   -9.6308 C   0  0  0  0  0  0
   15.9903   43.6425   -8.4826 C   0  0  0  0  0  0
   15.1339   42.4130   -8.8495 C   0  0  0  0  0  0
   15.2606   41.3255   -7.8826 N   0  0  0  0  0  0
   16.3944   40.5025   -7.8881 C   0  0  0  0  0  0
   16.4792   39.3494   -7.0834 C   0  0  0  0  0  0
   17.6673   38.5877   -7.0961 C   0  0  0  0  0  0
   18.7556   39.0001   -7.8960 C   0  0  0  0  0  0
   18.6200   40.1653   -8.6846 C   0  0  0  0  0  0
   17.4500   40.8325   -8.6677 N   0  3  0  0  0  0
   19.7322   40.7521   -9.4999 C   0  0  0  0  0  0
   19.5148   41.2797  -10.5913 O   0  0  0  0  0  0
   20.9117   40.8023   -8.8688 N   0  0  0  0  0  0
   23.0967   40.1027  -10.4025 H   0  0  0  0  0  0
   21.8695   42.1348  -10.1695 H   0  0  0  0  0  0
   31.2691   45.0781  -11.6689 H   0  0  0  0  0  0
   32.2965   43.8179  -10.9904 H   0  0  0  0  0  0
   32.3553   45.4462  -10.3373 H   0  0  0  0  0  0
   30.0647   45.2869   -9.5192 H   0  0  0  0  0  0
   30.3809   43.7524   -7.6485 H   0  0  0  0  0  0
   31.8980   44.5396   -8.0189 H   0  0  0  0  0  0
   31.6465   42.8760   -8.5142 H   0  0  0  0  0  0
   27.8883   44.6189   -9.7069 H   0  0  0  0  0  0
   26.8703   41.1165  -12.0398 H   0  0  0  0  0  0
   29.2575   40.5448  -12.1846 H   0  0  0  0  0  0
   30.9645   41.9686  -11.1076 H   0  0  0  0  0  0
   25.8658   45.3489   -9.9865 H   0  0  0  0  0  0
   25.5346   44.0733   -8.8261 H   0  0  0  0  0  0
   24.2674   44.6794   -9.8916 H   0  0  0  0  0  0
   26.1384   44.9061  -12.3907 H   0  0  0  0  0  0
   24.4625   44.3714  -12.4281 H   0  0  0  0  0  0
   25.7352   43.3557  -13.0967 H   0  0  0  0  0  0
   23.8012   42.6493  -10.9402 H   0  0  0  0  0  0
   25.4659   40.6315   -9.7194 H   0  0  0  0  0  0
   24.8921   41.9438   -8.7330 H   0  0  0  0  0  0
   23.9167   39.0351   -8.7298 H   0  0  0  0  0  0
   22.7172   42.1894   -7.2487 H   0  0  0  0  0  0
   23.1053   43.3762   -8.4555 H   0  0  0  0  0  0
   20.5870   44.0302   -9.7970 H   0  0  0  0  0  0
   17.9988   45.6119   -6.7243 H   0  0  0  0  0  0
   19.4088   44.5502   -5.0074 H   0  0  0  0  0  0
   21.3677   43.2042   -5.6326 H   0  0  0  0  0  0
   16.8738   46.2798   -8.3520 H   0  0  0  0  0  0
   16.9372   46.5960  -10.0459 H   0  0  0  0  0  0
   15.1691   45.0505   -9.8783 H   0  0  0  0  0  0
   16.5030   44.1386  -10.5298 H   0  0  0  0  0  0
   16.9756   43.3249   -8.1514 H   0  0  0  0  0  0
   15.5402   44.1576   -7.6398 H   0  0  0  0  0  0
   14.0847   42.6995   -8.9172 H   0  0  0  0  0  0
   15.4066   42.0367   -9.8357 H   0  0  0  0  0  0
   14.4903   41.1149   -7.2599 H   0  0  0  0  0  0
   15.6595   39.0447   -6.4434 H   0  0  0  0  0  0
   17.7370   37.7080   -6.4743 H   0  0  0  0  0  0
   19.6765   38.4336   -7.8892 H   0  0  0  0  0  0
   20.9804   40.3336   -7.9771 H   0  0  0  0  0  0
   24.8443   41.6317  -11.6491 H   0  0  0  0  0  0
   17.3927   41.6772   -9.2365 H   0  0  0  0  0  0
  1  2  1  0  0  0
  1 42  1  0  0  0
  1 43  1  0  0  0
  1 44  1  0  0  0
  2  3  1  0  0  0
  2  4  1  0  0  0
  2 45  1  0  0  0
  3 46  1  0  0  0
  3 47  1  0  0  0
  3 48  1  0  0  0
  4  9  1  0  0  0
  4  5  2  0  0  0
  5  6  1  0  0  0
  5 49  1  0  0  0
  6  7  2  0  0  0
  6 10  1  0  0  0
  7  8  1  0  0  0
  7 50  1  0  0  0
  8  9  2  0  0  0
  8 51  1  0  0  0
  9 52  1  0  0  0
 10 11  1  0  0  0
 10 12  1  0  0  0
 10 13  1  0  0  0
 11 53  1  0  0  0
 11 54  1  0  0  0
 11 55  1  0  0  0
 12 56  1  0  0  0
 12 57  1  0  0  0
 12 58  1  0  0  0
 13 14  1  0  0  0
 13 59  1  0  0  0
 13 82  1  0  0  0
 14 15  1  0  0  0
 14 60  1  0  0  0
 14 61  1  0  0  0
 15 40  1  0  0  0
 15 16  1  0  0  0
 15 17  1  0  0  0
 16 62  1  0  0  0
 17 41  1  0  0  0
 17 39  1  0  0  0
 17 18  1  0  0  0
 18 19  1  0  0  0
 18 63  1  0  0  0
 18 64  1  0  0  0
 19 24  1  0  0  0
 19 20  2  0  0  0
 20 21  1  0  0  0
 20 65  1  0  0  0
 21 22  2  0  0  0
 21 25  1  0  0  0
 22 23  1  0  0  0
 22 66  1  0  0  0
 23 24  2  0  0  0
 23 67  1  0  0  0
 24 68  1  0  0  0
 25 26  1  0  0  0
 26 27  1  0  0  0
 26 69  1  0  0  0
 26 70  1  0  0  0
 27 28  1  0  0  0
 27 71  1  0  0  0
 27 72  1  0  0  0
 28 29  1  0  0  0
 28 73  1  0  0  0
 28 74  1  0  0  0
 29 30  1  0  0  0
 29 75  1  0  0  0
 29 76  1  0  0  0
 30 31  1  0  0  0
 30 77  1  0  0  0
 31 36  1  0  0  0
 31 32  2  0  0  0
 32 33  1  0  0  0
 32 78  1  0  0  0
 33 34  2  0  0  0
 33 79  1  0  0  0
 34 35  1  0  0  0
 34 80  1  0  0  0
 35 36  2  0  0  0
 35 37  1  0  0  0
 36 83  1  0  0  0
 37 38  2  0  0  0
 37 39  1  0  0  0
 39 81  1  0  0  0
M  CHG  2  13   1  36   1
M  END
> <s_m_source_file>
BACE_122.smi

> <i_m_source_file_index>
1

> <i_lp_mmshare_version>
42013

> <i_f3d_flags>
0

> <s_epik_input>
W0NIM11bQ0hdKFtDSDNdKWMxW2NIXWMoW2NIXVtjSF1bY0hdMSlDKFtDSDNdKShbQ0gzXSlbTkhdW0NIMl1bQ0BASF0oW09IXSlbQ0BIXShbQ0gyXTIpW05IXUMoPU8pYyhuMylbY0hdW2NIXVtjSF1jM1tOSF1bQ0gyXVtDSDJdW0NIMl1bQ0gyXU9jKFtjSF1jMjQpW2NIXVtjSF1bY0hdNA==

> <s_epik_cmdline>
J2VwaWtfcHl0aG9uJywgJy1waCcsICc3LjAnLCAnLXRuJywgJzgnLCAnLW1hJywgJzIwMCcsICctaW1hZScsICc8aW5maWxlLm1hZT4nLCAnLW9tYWUnLCAnPG91dGZpbGUubWFlPic=

> <r_lp_tautomer_probability>
0.999994

> <r_epik_Ionization_Penalty>
  2.3266

> <r_epik_Ionization_Penalty_Charging>
  2.3262

> <r_epik_Ionization_Penalty_Neutral>
  0.0004

> <r_epik_State_Penalty>
  2.4711

> <r_epik_Charging_Adjusted_Penalty>
4.79729

> <i_epik_Tot_Q>
2

> <i_epik_Tot_abs_Q>
2

> <s_lp_Force_Field>
OPLS_2005

> <r_lp_Energy>
40.0518

> <b_lp_Chiralities_Consistent>
1

> <s_lp_Variant>
BACE_122.smi:1-3

> <chiral flag>
1

> <version>
0

> <s_i_glide_gridfile>
second_dock_grid_2

> <i_i_glide_lignum>
251

> <i_i_glide_rotatable_bonds>
7

> <r_i_docking_score>
-0.803295

> <r_i_glide_ligand_efficiency>
-0.0205973

> <r_i_glide_ligand_efficiency_sa>
-0.0698498

> <r_i_glide_ligand_efficiency_ln>
-0.172249

> <r_glide_XP_GScore>
-3.27439

> <r_i_glide_gscore>
-3.27439

> <r_i_glide_evdw>
-33.7646

> <r_i_glide_ecoul>
-13.7271

> <r_i_glide_energy>
-47.4918

> <r_i_glide_einternal>
4.85827

> <r_i_glide_emodel>
-61.6479

> <r_glide_XP_HBond>
-0.7

> <i_i_glide_confnum>
1

> <i_i_glide_posenum>
6

> <r_i_glide_eff_state_penalty>
2.4711

> <i_glide_XP_PoseRank>
1

$$$$
BACE_123.smi:1
                    3D
 Structure written by MMmdl.
 85 88  0  0  1  0            999 V2000
   23.8828   44.7434   -8.6192 C   0  0  0  0  0  0
   24.6588   44.4296   -7.3300 C   0  0  0  0  0  0
   26.1449   44.7855   -7.4842 C   0  0  0  0  0  0
   24.0483   45.1311   -6.0998 C   0  0  0  0  0  0
   22.7096   44.5420   -5.6916 C   0  0  0  0  0  0
   22.6566   43.2966   -5.0399 C   0  0  0  0  0  0
   21.3997   42.7309   -4.7149 C   0  0  0  0  0  0
   20.2568   43.4995   -5.0365 C   0  0  0  0  0  0
   20.2920   44.7050   -5.6408 N   0  0  0  0  0  0
   21.4994   45.2082   -5.9668 C   0  0  0  0  0  0
   21.2533   41.3489   -4.0522 C   0  0  0  0  0  0
   20.4542   41.5031   -2.7398 C   0  0  0  0  0  0
   22.6203   40.7468   -3.6406 C   0  0  0  0  0  0
   20.4954   40.4286   -4.9627 N   0  3  0  0  0  0
   21.2429   39.5655   -5.9262 C   0  0  0  0  0  0
   21.9915   40.3381   -7.0514 C   0  0  1  0  0  0
   23.2602   39.7504   -7.2395 O   0  0  0  0  0  0
   21.3525   40.3989   -8.4576 C   0  0  2  0  0  0
   21.5779   41.7664   -9.1349 C   0  0  0  0  0  0
   20.8779   41.8404  -10.4732 C   0  0  0  0  0  0
   19.8095   42.7409  -10.6644 C   0  0  0  0  0  0
   19.0413   42.6910  -11.8503 C   0  0  0  0  0  0
   19.3967   41.7499  -12.8357 C   0  0  0  0  0  0
   20.4865   40.8791  -12.6730 C   0  0  0  0  0  0
   21.2351   40.9312  -11.4902 C   0  0  0  0  0  0
   17.9560   43.4955  -12.1288 O   0  0  0  0  0  0
   17.5182   44.4700  -11.1823 C   0  0  0  0  0  0
   16.8160   43.8780   -9.9431 C   0  0  0  0  0  0
   15.8324   42.7457  -10.2664 C   0  0  0  0  0  0
   15.2632   42.0985   -8.9923 C   0  0  0  0  0  0
   14.8044   40.7403   -9.2374 N   0  0  0  0  0  0
   15.7131   39.6681   -9.2133 C   0  0  0  0  0  0
   17.1170   39.8478   -9.1720 C   0  0  0  0  0  0
   17.9887   38.7349   -9.1381 C   0  0  0  0  0  0
   17.4496   37.4337   -9.1844 C   0  0  0  0  0  0
   16.0600   37.2497   -9.2401 C   0  0  0  0  0  0
   15.1939   38.3593   -9.2397 C   0  0  0  0  0  0
   19.4754   38.9123   -9.1204 C   0  0  0  0  0  0
   20.2089   38.0641   -9.6261 O   0  0  0  0  0  0
   19.9387   40.0072   -8.4923 N   0  0  0  0  0  0
   22.2076   41.3478   -6.7251 H   0  0  0  0  0  0
   21.8902   39.6872   -9.0874 H   0  0  0  0  0  0
   22.8372   44.4481   -8.5369 H   0  0  0  0  0  0
   24.3052   44.2089   -9.4705 H   0  0  0  0  0  0
   23.9085   45.8087   -8.8498 H   0  0  0  0  0  0
   24.6165   43.3514   -7.1669 H   0  0  0  0  0  0
   26.7129   44.4939   -6.5975 H   0  0  0  0  0  0
   26.2859   45.8570   -7.6321 H   0  0  0  0  0  0
   26.5870   44.2708   -8.3381 H   0  0  0  0  0  0
   23.9467   46.2017   -6.2800 H   0  0  0  0  0  0
   24.7208   45.0329   -5.2464 H   0  0  0  0  0  0
   23.5858   42.7886   -4.8305 H   0  0  0  0  0  0
   19.2699   43.1286   -4.8148 H   0  0  0  0  0  0
   21.4969   46.1670   -6.4658 H   0  0  0  0  0  0
   20.3185   40.5439   -2.2371 H   0  0  0  0  0  0
   19.4614   41.9257   -2.8906 H   0  0  0  0  0  0
   20.9718   42.1592   -2.0393 H   0  0  0  0  0  0
   22.5048   39.7874   -3.1333 H   0  0  0  0  0  0
   23.1523   41.4113   -2.9558 H   0  0  0  0  0  0
   23.2879   40.5812   -4.4862 H   0  0  0  0  0  0
   19.7731   40.9518   -5.4415 H   0  0  0  0  0  0
   20.5531   38.8318   -6.3402 H   0  0  0  0  0  0
   21.9454   38.9515   -5.3628 H   0  0  0  0  0  0
   23.1695   38.9628   -7.7581 H   0  0  0  0  0  0
   21.2187   42.5684   -8.4876 H   0  0  0  0  0  0
   22.6441   41.9398   -9.2829 H   0  0  0  0  0  0
   19.5854   43.4423   -9.8779 H   0  0  0  0  0  0
   18.8599   41.7501  -13.7615 H   0  0  0  0  0  0
   20.7483   40.1755  -13.4491 H   0  0  0  0  0  0
   22.0597   40.2464  -11.3536 H   0  0  0  0  0  0
   18.3405   45.1246  -10.8945 H   0  0  0  0  0  0
   16.8065   45.1052  -11.7097 H   0  0  0  0  0  0
   17.5530   43.4973   -9.2408 H   0  0  0  0  0  0
   16.2972   44.6755   -9.4085 H   0  0  0  0  0  0
   15.0203   43.1060  -10.8981 H   0  0  0  0  0  0
   16.3549   41.9910  -10.8539 H   0  0  0  0  0  0
   15.9988   42.0880   -8.1866 H   0  0  0  0  0  0
   14.4283   42.6910   -8.6197 H   0  0  0  0  0  0
   13.8359   40.5406   -9.0003 H   0  0  0  0  0  0
   17.5378   40.8405   -9.1727 H   0  0  0  0  0  0
   18.0990   36.5691   -9.1776 H   0  0  0  0  0  0
   15.6600   36.2489   -9.2740 H   0  0  0  0  0  0
   14.1264   38.1964   -9.2629 H   0  0  0  0  0  0
   19.2589   40.6484   -8.1108 H   0  0  0  0  0  0
   20.0098   39.7841   -4.3553 H   0  0  0  0  0  0
  1  2  1  0  0  0
  1 43  1  0  0  0
  1 44  1  0  0  0
  1 45  1  0  0  0
  2  3  1  0  0  0
  2  4  1  0  0  0
  2 46  1  0  0  0
  3 47  1  0  0  0
  3 48  1  0  0  0
  3 49  1  0  0  0
  4  5  1  0  0  0
  4 50  1  0  0  0
  4 51  1  0  0  0
  5 10  1  0  0  0
  5  6  2  0  0  0
  6  7  1  0  0  0
  6 52  1  0  0  0
  7  8  2  0  0  0
  7 11  1  0  0  0
  8  9  1  0  0  0
  8 53  1  0  0  0
  9 10  2  0  0  0
 10 54  1  0  0  0
 11 12  1  0  0  0
 11 13  1  0  0  0
 11 14  1  0  0  0
 12 55  1  0  0  0
 12 56  1  0  0  0
 12 57  1  0  0  0
 13 58  1  0  0  0
 13 59  1  0  0  0
 13 60  1  0  0  0
 14 15  1  0  0  0
 14 61  1  0  0  0
 14 85  1  0  0  0
 15 16  1  0  0  0
 15 62  1  0  0  0
 15 63  1  0  0  0
 16 41  1  0  0  0
 16 17  1  0  0  0
 16 18  1  0  0  0
 17 64  1  0  0  0
 18 42  1  0  0  0
 18 40  1  0  0  0
 18 19  1  0  0  0
 19 20  1  0  0  0
 19 65  1  0  0  0
 19 66  1  0  0  0
 20 25  1  0  0  0
 20 21  2  0  0  0
 21 22  1  0  0  0
 21 67  1  0  0  0
 22 23  2  0  0  0
 22 26  1  0  0  0
 23 24  1  0  0  0
 23 68  1  0  0  0
 24 25  2  0  0  0
 24 69  1  0  0  0
 25 70  1  0  0  0
 26 27  1  0  0  0
 27 28  1  0  0  0
 27 71  1  0  0  0
 27 72  1  0  0  0
 28 29  1  0  0  0
 28 73  1  0  0  0
 28 74  1  0  0  0
 29 30  1  0  0  0
 29 75  1  0  0  0
 29 76  1  0  0  0
 30 31  1  0  0  0
 30 77  1  0  0  0
 30 78  1  0  0  0
 31 32  1  0  0  0
 31 79  1  0  0  0
 32 37  1  0  0  0
 32 33  2  0  0  0
 33 34  1  0  0  0
 33 80  1  0  0  0
 34 35  2  0  0  0
 34 38  1  0  0  0
 35 36  1  0  0  0
 35 81  1  0  0  0
 36 37  2  0  0  0
 36 82  1  0  0  0
 37 83  1  0  0  0
 38 39  2  0  0  0
 38 40  1  0  0  0
 40 84  1  0  0  0
M  CHG  1  14   1
M  END
> <s_m_source_file>
BACE_123.smi

> <i_m_source_file_index>
1

> <i_lp_mmshare_version>
42013

> <i_f3d_flags>
0

> <s_epik_input>
W0NIM11bQ0hdKFtDSDNdKVtDSDJdYzFbY0hdYyhbY0hdbltjSF0xKUMoW0NIM10pKFtDSDNdKVtOSF1bQ0gyXVtDQEBIXShbT0hdKVtDQEhdKFtDSDJdMilbTkhdQyg9TyljKFtjSF1bY0hdW2NIXTMpW2NIXWMzW05IXVtDSDJdW0NIMl1bQ0gyXVtDSDJdT2MoW2NIXWMyNClbY0hdW2NIXVtjSF00

> <s_epik_cmdline>
J2VwaWtfcHl0aG9uJywgJy1waCcsICc3LjAnLCAnLXRuJywgJzgnLCAnLW1hJywgJzIwMCcsICctaW1hZScsICc8aW5maWxlLm1hZT4nLCAnLW9tYWUnLCAnPG91dGZpbGUubWFlPic=

> <r_lp_tautomer_probability>
1

> <r_epik_Ionization_Penalty>
  0.0522

> <r_epik_Ionization_Penalty_Charging>
  0.0422

> <r_epik_Ionization_Penalty_Neutral>
  0.0100

> <r_epik_State_Penalty>
  0.0356

> <r_epik_Charging_Adjusted_Penalty>
0.0777645

> <i_epik_Tot_Q>
1

> <i_epik_Tot_abs_Q>
1

> <s_lp_Force_Field>
OPLS_2005

> <r_lp_Energy>
31.1625

> <b_lp_Chiralities_Consistent>
1

> <s_lp_Variant>
BACE_123.smi:1-1

> <chiral flag>
1

> <version>
0

> <s_i_glide_gridfile>
second_dock_grid_2

> <i_i_glide_lignum>
252

> <i_i_glide_rotatable_bonds>
8

> <r_i_docking_score>
-5.61533

> <r_i_glide_ligand_efficiency>
-0.140383

> <r_i_glide_ligand_efficiency_sa>
-0.480104

> <r_i_glide_ligand_efficiency_ln>
-1.19758

> <r_glide_XP_GScore>
-5.65093

> <r_i_glide_gscore>
-5.65093

> <r_i_glide_evdw>
-44.1341

> <r_i_glide_ecoul>
-10.3747

> <r_i_glide_energy>
-54.5088

> <r_i_glide_einternal>
4.24615

> <r_i_glide_emodel>
-70.2409

> <r_glide_XP_HBond>
-0.232433

> <i_i_glide_confnum>
1

> <i_i_glide_posenum>
10

> <r_i_glide_eff_state_penalty>
0.0356

> <i_glide_XP_PoseRank>
1

$$$$
BACE_123.smi:1
                    3D
 Structure written by MMmdl.
 84 87  0  0  1  0            999 V2000
   18.7546   47.5382  -13.6063 C   0  0  0  0  0  0
   19.1596   47.5673  -12.1208 C   0  0  0  0  0  0
   19.1730   49.0075  -11.5866 C   0  0  0  0  0  0
   18.2679   46.6651  -11.2450 C   0  0  0  0  0  0
   18.3152   45.2041  -11.6480 C   0  0  0  0  0  0
   19.3833   44.3810  -11.2396 C   0  0  0  0  0  0
   19.4083   43.0218  -11.6389 C   0  0  0  0  0  0
   18.3393   42.5836  -12.4542 C   0  0  0  0  0  0
   17.2997   43.3535  -12.8401 N   0  0  0  0  0  0
   17.2932   44.6373  -12.4322 C   0  0  0  0  0  0
   20.5225   42.0406  -11.2197 C   0  0  0  0  0  0
   21.3856   41.6417  -12.4402 C   0  0  0  0  0  0
   19.8518   40.7696  -10.6588 C   0  0  0  0  0  0
   21.3659   42.6784  -10.1836 N   0  0  0  0  0  0
   22.6856   42.1391   -9.7966 C   0  0  0  0  0  0
   22.7064   40.8179   -8.9798 C   0  0  1  0  0  0
   24.0825   40.5500   -8.8363 O   0  0  0  0  0  0
   22.0795   40.8182   -7.5458 C   0  0  2  0  0  0
   21.7044   39.3913   -7.0610 C   0  0  0  0  0  0
   20.3563   38.8887   -7.5611 C   0  0  0  0  0  0
   19.1797   39.1858   -6.8425 C   0  0  0  0  0  0
   17.9109   38.8167   -7.3346 C   0  0  0  0  0  0
   17.8322   38.0992   -8.5520 C   0  0  0  0  0  0
   19.0032   37.7901   -9.2663 C   0  0  0  0  0  0
   20.2635   38.1574   -8.7614 C   0  0  0  0  0  0
   16.8204   39.2142   -6.5925 O   0  0  0  0  0  0
   15.5094   39.1623   -7.1532 C   0  0  0  0  0  0
   15.3365   40.1831   -8.2958 C   0  0  0  0  0  0
   15.6249   41.6315   -7.8706 C   0  0  0  0  0  0
   16.0594   42.5019   -9.0619 C   0  0  0  0  0  0
   16.3493   43.8783   -8.6851 N   0  0  0  0  0  0
   17.5184   44.2426   -7.9983 C   0  0  0  0  0  0
   18.5454   43.3262   -7.6645 C   0  0  0  0  0  0
   19.7116   43.7590   -6.9875 C   0  0  0  0  0  0
   19.8215   45.1188   -6.6176 C   0  0  0  0  0  0
   18.8032   46.0331   -6.9419 C   0  0  0  0  0  0
   17.6615   45.5967   -7.6388 C   0  0  0  0  0  0
   20.8368   42.8114   -6.6621 C   0  0  0  0  0  0
   21.6689   43.0989   -5.8027 O   0  0  0  0  0  0
   20.9297   41.7223   -7.4424 N   0  0  0  0  0  0
   22.3311   39.9920   -9.5708 H   0  0  0  0  0  0
   22.8553   41.1826   -6.8695 H   0  0  0  0  0  0
   18.8590   46.5389  -14.0297 H   0  0  0  0  0  0
   19.3855   48.2034  -14.1972 H   0  0  0  0  0  0
   17.7191   47.8537  -13.7423 H   0  0  0  0  0  0
   20.1819   47.1935  -12.0517 H   0  0  0  0  0  0
   19.5124   49.0395  -10.5507 H   0  0  0  0  0  0
   18.1799   49.4550  -11.6251 H   0  0  0  0  0  0
   19.8457   49.6362  -12.1706 H   0  0  0  0  0  0
   17.2345   47.0135  -11.2736 H   0  0  0  0  0  0
   18.5816   46.7373  -10.2029 H   0  0  0  0  0  0
   20.1652   44.8136  -10.6328 H   0  0  0  0  0  0
   18.3138   41.5769  -12.8384 H   0  0  0  0  0  0
   16.4547   45.2351  -12.7597 H   0  0  0  0  0  0
   22.0599   40.8231  -12.1857 H   0  0  0  0  0  0
   22.0167   42.4515  -12.8183 H   0  0  0  0  0  0
   20.7689   41.2773  -13.2595 H   0  0  0  0  0  0
   20.5642   39.9664  -10.5497 H   0  0  0  0  0  0
   19.1018   40.3421  -11.3210 H   0  0  0  0  0  0
   19.3622   40.9468   -9.7010 H   0  0  0  0  0  0
   20.8189   42.7773   -9.3347 H   0  0  0  0  0  0
   23.1892   42.8988   -9.1988 H   0  0  0  0  0  0
   23.3113   42.0269  -10.6827 H   0  0  0  0  0  0
   24.2814   39.7012   -9.2285 H   0  0  0  0  0  0
   22.4797   38.6768   -7.3336 H   0  0  0  0  0  0
   21.6729   39.3870   -5.9706 H   0  0  0  0  0  0
   19.2458   39.7469   -5.9214 H   0  0  0  0  0  0
   16.8828   37.7956   -8.9656 H   0  0  0  0  0  0
   18.9304   37.3041  -10.2241 H   0  0  0  0  0  0
   21.1535   37.9170   -9.3241 H   0  0  0  0  0  0
   15.2617   38.1515   -7.4786 H   0  0  0  0  0  0
   14.8058   39.3978   -6.3534 H   0  0  0  0  0  0
   15.9890   39.9176   -9.1270 H   0  0  0  0  0  0
   14.3219   40.1176   -8.6926 H   0  0  0  0  0  0
   14.7415   42.0498   -7.3862 H   0  0  0  0  0  0
   16.4051   41.6448   -7.1096 H   0  0  0  0  0  0
   16.9294   42.0703   -9.5581 H   0  0  0  0  0  0
   15.2626   42.5177   -9.8057 H   0  0  0  0  0  0
   15.6092   44.5555   -8.7784 H   0  0  0  0  0  0
   18.4380   42.2852   -7.9281 H   0  0  0  0  0  0
   20.6978   45.4716   -6.0919 H   0  0  0  0  0  0
   18.9015   47.0718   -6.6641 H   0  0  0  0  0  0
   16.8904   46.3097   -7.8877 H   0  0  0  0  0  0
   20.1529   41.5165   -8.0510 H   0  0  0  0  0  0
  1  2  1  0  0  0
  1 43  1  0  0  0
  1 44  1  0  0  0
  1 45  1  0  0  0
  2  3  1  0  0  0
  2  4  1  0  0  0
  2 46  1  0  0  0
  3 47  1  0  0  0
  3 48  1  0  0  0
  3 49  1  0  0  0
  4  5  1  0  0  0
  4 50  1  0  0  0
  4 51  1  0  0  0
  5 10  1  0  0  0
  5  6  2  0  0  0
  6  7  1  0  0  0
  6 52  1  0  0  0
  7  8  2  0  0  0
  7 11  1  0  0  0
  8  9  1  0  0  0
  8 53  1  0  0  0
  9 10  2  0  0  0
 10 54  1  0  0  0
 11 12  1  0  0  0
 11 13  1  0  0  0
 11 14  1  0  0  0
 12 55  1  0  0  0
 12 56  1  0  0  0
 12 57  1  0  0  0
 13 58  1  0  0  0
 13 59  1  0  0  0
 13 60  1  0  0  0
 14 15  1  0  0  0
 14 61  1  0  0  0
 15 16  1  0  0  0
 15 62  1  0  0  0
 15 63  1  0  0  0
 16 41  1  0  0  0
 16 17  1  0  0  0
 16 18  1  0  0  0
 17 64  1  0  0  0
 18 42  1  0  0  0
 18 40  1  0  0  0
 18 19  1  0  0  0
 19 20  1  0  0  0
 19 65  1  0  0  0
 19 66  1  0  0  0
 20 25  1  0  0  0
 20 21  2  0  0  0
 21 22  1  0  0  0
 21 67  1  0  0  0
 22 23  2  0  0  0
 22 26  1  0  0  0
 23 24  1  0  0  0
 23 68  1  0  0  0
 24 25  2  0  0  0
 24 69  1  0  0  0
 25 70  1  0  0  0
 26 27  1  0  0  0
 27 28  1  0  0  0
 27 71  1  0  0  0
 27 72  1  0  0  0
 28 29  1  0  0  0
 28 73  1  0  0  0
 28 74  1  0  0  0
 29 30  1  0  0  0
 29 75  1  0  0  0
 29 76  1  0  0  0
 30 31  1  0  0  0
 30 77  1  0  0  0
 30 78  1  0  0  0
 31 32  1  0  0  0
 31 79  1  0  0  0
 32 37  1  0  0  0
 32 33  2  0  0  0
 33 34  1  0  0  0
 33 80  1  0  0  0
 34 35  2  0  0  0
 34 38  1  0  0  0
 35 36  1  0  0  0
 35 81  1  0  0  0
 36 37  2  0  0  0
 36 82  1  0  0  0
 37 83  1  0  0  0
 38 39  2  0  0  0
 38 40  1  0  0  0
 40 84  1  0  0  0
M  END
> <s_m_source_file>
BACE_123.smi

> <i_m_source_file_index>
1

> <i_lp_mmshare_version>
42013

> <i_f3d_flags>
0

> <s_epik_input>
W0NIM11bQ0hdKFtDSDNdKVtDSDJdYzFbY0hdYyhbY0hdbltjSF0xKUMoW0NIM10pKFtDSDNdKVtOSF1bQ0gyXVtDQEBIXShbT0hdKVtDQEhdKFtDSDJdMilbTkhdQyg9TyljKFtjSF1bY0hdW2NIXTMpW2NIXWMzW05IXVtDSDJdW0NIMl1bQ0gyXVtDSDJdT2MoW2NIXWMyNClbY0hdW2NIXVtjSF00

> <s_epik_cmdline>
J2VwaWtfcHl0aG9uJywgJy1waCcsICc3LjAnLCAnLXRuJywgJzgnLCAnLW1hJywgJzIwMCcsICctaW1hZScsICc8aW5maWxlLm1hZT4nLCAnLW9tYWUnLCAnPG91dGZpbGUubWFlPic=

> <r_lp_tautomer_probability>
1

> <r_epik_Ionization_Penalty>
  1.6198

> <r_epik_Ionization_Penalty_Charging>
  0.0000

> <r_epik_Ionization_Penalty_Neutral>
  1.6198

> <r_epik_State_Penalty>
  1.6838

> <r_epik_Charging_Adjusted_Penalty>
1.68378

> <i_epik_Tot_Q>
0

> <i_epik_Tot_abs_Q>
0

> <s_lp_Force_Field>
OPLS_2005

> <r_lp_Energy>
36.7481

> <b_lp_Chiralities_Consistent>
1

> <s_lp_Variant>
BACE_123.smi:1-2

> <chiral flag>
1

> <version>
0

> <s_i_glide_gridfile>
second_dock_grid_2

> <i_i_glide_lignum>
253

> <i_i_glide_rotatable_bonds>
8

> <r_i_docking_score>
-1.7322

> <r_i_glide_ligand_efficiency>
-0.0433051

> <r_i_glide_ligand_efficiency_sa>
-0.148101

> <r_i_glide_ligand_efficiency_ln>
-0.369428

> <r_glide_XP_GScore>
-3.416

> <r_i_glide_gscore>
-3.416

> <r_i_glide_evdw>
-41.1333

> <r_i_glide_ecoul>
-9.37851

> <r_i_glide_energy>
-50.5118

> <r_i_glide_einternal>
3.89372

> <r_i_glide_emodel>
-64.5593

> <r_glide_XP_HBond>
-1.33

> <i_i_glide_confnum>
1

> <i_i_glide_posenum>
2

> <r_i_glide_eff_state_penalty>
1.6838

> <i_glide_XP_PoseRank>
1

$$$$
BACE_124.smi:1
                    3D
 Structure written by MMmdl.
 92 95  0  0  1  0            999 V2000
   25.8419   50.6753   -5.7831 C   0  0  0  0  0  0
   24.4656   50.5497   -6.1021 O   0  0  0  0  0  0
   24.1242   49.2376   -6.5238 C   0  0  0  0  0  0
   22.6348   49.0990   -6.7695 C   0  0  0  0  0  0
   21.9367   50.1085   -7.4668 C   0  0  0  0  0  0
   20.5437   50.0211   -7.6611 C   0  0  0  0  0  0
   19.8581   48.8879   -7.1701 C   0  0  0  0  0  0
   20.5566   47.8349   -6.5437 C   0  0  0  0  0  0
   21.9455   47.9513   -6.3287 C   0  0  0  0  0  0
   19.8001   46.6218   -6.1126 C   0  0  0  0  0  0
   18.6682   46.7323   -5.6401 O   0  0  0  0  0  0
   20.3919   45.4441   -6.3732 N   0  0  0  0  0  0
   19.7468   44.1328   -6.2429 C   0  0  1  0  0  0
   19.2168   43.6214   -7.6112 C   0  0  0  0  0  0
   18.2549   44.5490   -8.3337 C   0  0  0  0  0  0
   18.7040   45.3881   -9.3764 C   0  0  0  0  0  0
   17.8069   46.2292  -10.0684 C   0  0  0  0  0  0
   16.4403   46.2193   -9.6982 C   0  0  0  0  0  0
   15.9864   45.3759   -8.6667 C   0  0  0  0  0  0
   16.8899   44.5439   -7.9868 C   0  0  0  0  0  0
   18.3308   47.0036  -11.0827 O   0  0  0  0  0  0
   17.5558   48.0653  -11.6392 C   0  0  0  0  0  0
   17.4039   49.2437  -10.6587 C   0  0  0  0  0  0
   18.7551   49.7853  -10.1761 C   0  0  0  0  0  0
   18.6180   50.7847   -9.0142 C   0  0  0  0  0  0
   19.8949   51.0537   -8.3649 N   0  0  0  0  0  0
   20.5796   43.1043   -5.4035 C   0  0  2  0  0  0
   21.5387   43.7499   -4.5852 O   0  0  0  0  0  0
   21.3205   42.0083   -6.2086 C   0  0  0  0  0  0
   20.3598   40.9769   -6.6700 N   0  3  0  0  0  0
   20.7824   39.9249   -7.6298 C   0  0  0  0  0  0
   21.6429   40.5226   -8.7698 C   0  0  0  0  0  0
   21.5840   38.8716   -6.8517 C   0  0  0  0  0  0
   19.5119   39.2971   -8.2377 C   0  0  0  0  0  0
   18.2041   39.7666   -7.9447 C   0  0  0  0  0  0
   17.0838   39.1921   -8.5859 C   0  0  0  0  0  0
   17.3350   38.1612   -9.5154 C   0  0  0  0  0  0
   18.6595   37.7479   -9.7353 C   0  0  0  0  0  0
   19.7233   38.2945   -9.1196 N   0  0  0  0  0  0
   15.6518   39.7063   -8.3440 C   0  0  0  0  0  0
   15.4992   40.4445   -6.9976 C   0  0  0  0  0  0
   15.2790   40.6813   -9.4774 C   0  0  0  0  0  0
   14.6322   38.5488   -8.3264 C   0  0  0  0  0  0
   18.8607   44.2994   -5.6397 H   0  0  0  0  0  0
   19.9011   42.6022   -4.7071 H   0  0  0  0  0  0
   26.0550   51.6985   -5.4719 H   0  0  0  0  0  0
   26.4670   50.4479   -6.6465 H   0  0  0  0  0  0
   26.1234   50.0105   -4.9660 H   0  0  0  0  0  0
   24.4327   48.5142   -5.7668 H   0  0  0  0  0  0
   24.6540   48.9897   -7.4448 H   0  0  0  0  0  0
   22.4821   50.9502   -7.8588 H   0  0  0  0  0  0
   18.7921   48.7840   -7.3107 H   0  0  0  0  0  0
   22.4861   47.1629   -5.8228 H   0  0  0  0  0  0
   21.3271   45.4593   -6.7547 H   0  0  0  0  0  0
   20.0436   43.3966   -8.2854 H   0  0  0  0  0  0
   18.6685   42.6950   -7.4619 H   0  0  0  0  0  0
   19.7458   45.3856   -9.6570 H   0  0  0  0  0  0
   15.7137   46.8433  -10.1977 H   0  0  0  0  0  0
   14.9424   45.3620   -8.3935 H   0  0  0  0  0  0
   16.5291   43.8897   -7.2064 H   0  0  0  0  0  0
   18.0805   48.4119  -12.5298 H   0  0  0  0  0  0
   16.5902   47.7092  -11.9941 H   0  0  0  0  0  0
   16.8382   50.0449  -11.1354 H   0  0  0  0  0  0
   16.8131   48.9321   -9.7970 H   0  0  0  0  0  0
   19.3663   48.9405   -9.8593 H   0  0  0  0  0  0
   19.2942   50.2470  -11.0042 H   0  0  0  0  0  0
   18.2178   51.7265   -9.3949 H   0  0  0  0  0  0
   17.8939   50.4343   -8.2789 H   0  0  0  0  0  0
   20.4815   51.7211   -8.8399 H   0  0  0  0  0  0
   21.0971   44.2937   -3.9430 H   0  0  0  0  0  0
   21.8609   42.4767   -7.0307 H   0  0  0  0  0  0
   22.0662   41.5195   -5.5799 H   0  0  0  0  0  0
   19.9493   40.5239   -5.8621 H   0  0  0  0  0  0
   22.5934   40.9217   -8.4133 H   0  0  0  0  0  0
   21.1144   41.3167   -9.2990 H   0  0  0  0  0  0
   21.9015   39.7614   -9.5089 H   0  0  0  0  0  0
   22.4927   39.2866   -6.4180 H   0  0  0  0  0  0
   21.8830   38.0433   -7.4928 H   0  0  0  0  0  0
   20.9824   38.4683   -6.0399 H   0  0  0  0  0  0
   18.0303   40.5576   -7.2399 H   0  0  0  0  0  0
   16.5368   37.6839  -10.0606 H   0  0  0  0  0  0
   18.8614   36.9522  -10.4372 H   0  0  0  0  0  0
   15.7905   39.8151   -6.1541 H   0  0  0  0  0  0
   14.4599   40.7236   -6.8403 H   0  0  0  0  0  0
   16.0705   41.3719   -6.9504 H   0  0  0  0  0  0
   15.3318   40.1980  -10.4530 H   0  0  0  0  0  0
   15.9524   41.5406   -9.4949 H   0  0  0  0  0  0
   14.2641   41.0610   -9.3526 H   0  0  0  0  0  0
   14.5401   38.0485   -9.2891 H   0  0  0  0  0  0
   13.6404   38.9199   -8.0742 H   0  0  0  0  0  0
   14.8973   37.7993   -7.5789 H   0  0  0  0  0  0
   19.6065   41.4634   -7.1349 H   0  0  0  0  0  0
  1  2  1  0  0  0
  1 46  1  0  0  0
  1 47  1  0  0  0
  1 48  1  0  0  0
  2  3  1  0  0  0
  3  4  1  0  0  0
  3 49  1  0  0  0
  3 50  1  0  0  0
  4  9  1  0  0  0
  4  5  2  0  0  0
  5  6  1  0  0  0
  5 51  1  0  0  0
  6 26  1  0  0  0
  6  7  2  0  0  0
  7  8  1  0  0  0
  7 52  1  0  0  0
  8  9  2  0  0  0
  8 10  1  0  0  0
  9 53  1  0  0  0
 10 11  2  0  0  0
 10 12  1  0  0  0
 12 13  1  0  0  0
 12 54  1  0  0  0
 13 44  1  0  0  0
 13 14  1  0  0  0
 13 27  1  0  0  0
 14 15  1  0  0  0
 14 55  1  0  0  0
 14 56  1  0  0  0
 15 20  1  0  0  0
 15 16  2  0  0  0
 16 17  1  0  0  0
 16 57  1  0  0  0
 17 18  2  0  0  0
 17 21  1  0  0  0
 18 19  1  0  0  0
 18 58  1  0  0  0
 19 20  2  0  0  0
 19 59  1  0  0  0
 20 60  1  0  0  0
 21 22  1  0  0  0
 22 23  1  0  0  0
 22 61  1  0  0  0
 22 62  1  0  0  0
 23 24  1  0  0  0
 23 63  1  0  0  0
 23 64  1  0  0  0
 24 25  1  0  0  0
 24 65  1  0  0  0
 24 66  1  0  0  0
 25 26  1  0  0  0
 25 67  1  0  0  0
 25 68  1  0  0  0
 26 69  1  0  0  0
 27 45  1  0  0  0
 27 28  1  0  0  0
 27 29  1  0  0  0
 28 70  1  0  0  0
 29 30  1  0  0  0
 29 71  1  0  0  0
 29 72  1  0  0  0
 30 31  1  0  0  0
 30 73  1  0  0  0
 30 92  1  0  0  0
 31 32  1  0  0  0
 31 33  1  0  0  0
 31 34  1  0  0  0
 32 74  1  0  0  0
 32 75  1  0  0  0
 32 76  1  0  0  0
 33 77  1  0  0  0
 33 78  1  0  0  0
 33 79  1  0  0  0
 34 39  1  0  0  0
 34 35  2  0  0  0
 35 36  1  0  0  0
 35 80  1  0  0  0
 36 37  2  0  0  0
 36 40  1  0  0  0
 37 38  1  0  0  0
 37 81  1  0  0  0
 38 39  2  0  0  0
 38 82  1  0  0  0
 40 41  1  0  0  0
 40 42  1  0  0  0
 40 43  1  0  0  0
 41 83  1  0  0  0
 41 84  1  0  0  0
 41 85  1  0  0  0
 42 86  1  0  0  0
 42 87  1  0  0  0
 42 88  1  0  0  0
 43 89  1  0  0  0
 43 90  1  0  0  0
 43 91  1  0  0  0
M  CHG  1  30   1
M  END
> <s_m_source_file>
BACE_124.smi

> <i_m_source_file_index>
1

> <i_lp_mmshare_version>
42013

> <i_f3d_flags>
0

> <s_epik_input>
bjFbY0hdW2NIXWMoQyhbQ0gzXSkoW0NIM10pW0NIM10pW2NIXWMxQyhbQ0gzXSkoW0NIM10pW05IXVtDSDJdW0NAQEhdKFtPSF0pW0NAQEhdKFtOSF1DKD1PKWMoW2NIXTIpW2NIXWMoW2NIXWMyMylbQ0gyXU9bQ0gzXSlbQ0gyXWM0W2NIXWMoW2NIXVtjSF1bY0hdNClPW0NIMl1bQ0gyXVtDSDJdW0NIMl1bTkhdMw==

> <s_epik_cmdline>
J2VwaWtfcHl0aG9uJywgJy1waCcsICc3LjAnLCAnLXRuJywgJzgnLCAnLW1hJywgJzIwMCcsICctaW1hZScsICc8aW5maWxlLm1hZT4nLCAnLW9tYWUnLCAnPG91dGZpbGUubWFlPic=

> <r_lp_tautomer_probability>
1

> <r_epik_Ionization_Penalty>
  0.0394

> <r_epik_Ionization_Penalty_Charging>
  0.0379

> <r_epik_Ionization_Penalty_Neutral>
  0.0015

> <r_epik_State_Penalty>
  0.0317

> <r_epik_Charging_Adjusted_Penalty>
0.0696342

> <i_epik_Tot_Q>
1

> <i_epik_Tot_abs_Q>
1

> <s_lp_Force_Field>
OPLS_2005

> <r_lp_Energy>
32.4916

> <b_lp_Chiralities_Consistent>
1

> <s_lp_Variant>
BACE_124.smi:1-1

> <chiral flag>
1

> <version>
0

> <s_i_glide_gridfile>
second_dock_grid_2

> <i_i_glide_lignum>
254

> <i_i_glide_rotatable_bonds>
9

> <r_i_docking_score>
-4.82601

> <r_i_glide_ligand_efficiency>
-0.112233

> <r_i_glide_ligand_efficiency_sa>
-0.393196

> <r_i_glide_ligand_efficiency_ln>
-1.01361

> <r_glide_XP_GScore>
-4.85771

> <r_i_glide_gscore>
-4.85771

> <r_i_glide_evdw>
-40.7048

> <r_i_glide_ecoul>
-14.6768

> <r_i_glide_energy>
-55.3817

> <r_i_glide_einternal>
3.26762

> <r_i_glide_emodel>
-76.367

> <r_glide_XP_HBond>
-1.31269

> <i_i_glide_confnum>
1

> <i_i_glide_posenum>
1

> <r_i_glide_eff_state_penalty>
0.0317

> <i_glide_XP_PoseRank>
1

$$$$
BACE_124.smi:1
                    3D
 Structure written by MMmdl.
 91 94  0  0  1  0            999 V2000
   21.0923   41.8195   -4.0195 C   0  0  0  0  0  0
   20.4599   42.9514   -4.5912 O   0  0  0  0  0  0
   20.1924   42.7856   -5.9748 C   0  0  0  0  0  0
   19.3955   43.9496   -6.5281 C   0  0  0  0  0  0
   19.8630   45.2649   -6.3417 C   0  0  0  0  0  0
   19.1433   46.3588   -6.8692 C   0  0  0  0  0  0
   17.9399   46.1268   -7.5607 C   0  0  0  0  0  0
   17.4693   44.8130   -7.7638 C   0  0  0  0  0  0
   18.1999   43.7232   -7.2412 C   0  0  0  0  0  0
   16.2090   44.6038   -8.5458 C   0  0  0  0  0  0
   15.2633   45.3857   -8.4378 O   0  0  0  0  0  0
   16.2480   43.6002   -9.4345 N   0  0  0  0  0  0
   15.2836   43.3521  -10.5066 C   0  0  1  0  0  0
   15.8679   43.8223  -11.8608 C   0  0  0  0  0  0
   16.5927   45.1616  -11.8280 C   0  0  0  0  0  0
   17.9855   45.2173  -11.6006 C   0  0  0  0  0  0
   18.6657   46.4504  -11.5220 C   0  0  0  0  0  0
   17.9228   47.6439  -11.7010 C   0  0  0  0  0  0
   16.5383   47.5941  -11.9472 C   0  0  0  0  0  0
   15.8716   46.3574  -12.0077 C   0  0  0  0  0  0
   20.0223   46.4012  -11.2706 O   0  0  0  0  0  0
   20.7556   47.6149  -11.1132 C   0  0  0  0  0  0
   20.5734   48.2130   -9.7052 C   0  0  0  0  0  0
   21.3111   47.4101   -8.6188 C   0  0  0  0  0  0
   21.0116   47.8805   -7.1786 C   0  0  0  0  0  0
   19.6229   47.6711   -6.7778 N   0  0  0  0  0  0
   14.8364   41.8610  -10.5352 C   0  0  2  0  0  0
   13.6635   41.7542  -11.3348 O   0  0  0  0  0  0
   14.4576   41.3081   -9.1441 C   0  0  0  0  0  0
   15.5740   40.9820   -8.2399 N   0  0  0  0  0  0
   16.4041   39.7741   -8.4438 C   0  0  0  0  0  0
   16.4490   39.1072   -7.0551 C   0  0  0  0  0  0
   15.7732   38.7430   -9.4105 C   0  0  0  0  0  0
   17.8175   40.1481   -8.9478 C   0  0  0  0  0  0
   18.9924   39.5873   -8.3912 C   0  0  0  0  0  0
   20.2622   39.9331   -8.9111 C   0  0  0  0  0  0
   20.2879   40.8168  -10.0136 C   0  0  0  0  0  0
   19.0773   41.3301  -10.5047 C   0  0  0  0  0  0
   17.8760   41.0184   -9.9842 N   0  0  0  0  0  0
   21.5625   39.3305   -8.3478 C   0  0  0  0  0  0
   21.9512   38.1237   -9.2175 C   0  0  0  0  0  0
   22.7222   40.3527   -8.3736 C   0  0  0  0  0  0
   21.4040   38.8644   -6.8825 C   0  0  0  0  0  0
   14.3968   43.9551  -10.3026 H   0  0  0  0  0  0
   15.5900   41.2360  -11.0063 H   0  0  0  0  0  0
   21.2954   42.0081   -2.9661 H   0  0  0  0  0  0
   22.0407   41.6034   -4.5136 H   0  0  0  0  0  0
   20.4551   40.9365   -4.0850 H   0  0  0  0  0  0
   19.6606   41.8511   -6.1588 H   0  0  0  0  0  0
   21.1338   42.7239   -6.5212 H   0  0  0  0  0  0
   20.7846   45.4228   -5.8011 H   0  0  0  0  0  0
   17.3907   46.9581   -7.9781 H   0  0  0  0  0  0
   17.8431   42.7106   -7.3761 H   0  0  0  0  0  0
   17.0292   42.9564   -9.3916 H   0  0  0  0  0  0
   16.5713   43.0761  -12.2311 H   0  0  0  0  0  0
   15.0566   43.8924  -12.5840 H   0  0  0  0  0  0
   18.5419   44.3041  -11.4557 H   0  0  0  0  0  0
   18.3884   48.6151  -11.6509 H   0  0  0  0  0  0
   15.9897   48.5131  -12.0827 H   0  0  0  0  0  0
   14.8068   46.3285  -12.1817 H   0  0  0  0  0  0
   21.8099   47.3878  -11.2717 H   0  0  0  0  0  0
   20.5067   48.3347  -11.8926 H   0  0  0  0  0  0
   20.9501   49.2364   -9.6993 H   0  0  0  0  0  0
   19.5118   48.2807   -9.4697 H   0  0  0  0  0  0
   21.0808   46.3498   -8.7249 H   0  0  0  0  0  0
   22.3845   47.4910   -8.7937 H   0  0  0  0  0  0
   21.6714   47.3725   -6.4746 H   0  0  0  0  0  0
   21.2374   48.9435   -7.0862 H   0  0  0  0  0  0
   18.9947   48.3689   -7.1458 H   0  0  0  0  0  0
   13.1472   41.0254  -11.0072 H   0  0  0  0  0  0
   13.8526   42.0781   -8.6669 H   0  0  0  0  0  0
   13.7947   40.4467   -9.2387 H   0  0  0  0  0  0
   15.2340   40.9779   -7.2801 H   0  0  0  0  0  0
   15.4458   38.9021   -6.6765 H   0  0  0  0  0  0
   16.9438   39.7438   -6.3253 H   0  0  0  0  0  0
   16.9675   38.1500   -7.0728 H   0  0  0  0  0  0
   14.7818   38.4309   -9.0792 H   0  0  0  0  0  0
   16.3860   37.8411   -9.4580 H   0  0  0  0  0  0
   15.6902   39.1119  -10.4309 H   0  0  0  0  0  0
   18.9212   38.8875   -7.5763 H   0  0  0  0  0  0
   21.2108   41.1015  -10.4948 H   0  0  0  0  0  0
   19.0734   42.0053  -11.3468 H   0  0  0  0  0  0
   21.1718   37.3582   -9.2370 H   0  0  0  0  0  0
   22.8599   37.6564   -8.8423 H   0  0  0  0  0  0
   22.1379   38.4239  -10.2484 H   0  0  0  0  0  0
   22.4626   41.2631   -7.8333 H   0  0  0  0  0  0
   23.0103   40.6331   -9.3862 H   0  0  0  0  0  0
   23.6206   39.9428   -7.9097 H   0  0  0  0  0  0
   21.0224   39.6669   -6.2498 H   0  0  0  0  0  0
   22.3577   38.5488   -6.4600 H   0  0  0  0  0  0
   20.7288   38.0138   -6.7921 H   0  0  0  0  0  0
  1  2  1  0  0  0
  1 46  1  0  0  0
  1 47  1  0  0  0
  1 48  1  0  0  0
  2  3  1  0  0  0
  3  4  1  0  0  0
  3 49  1  0  0  0
  3 50  1  0  0  0
  4  9  1  0  0  0
  4  5  2  0  0  0
  5  6  1  0  0  0
  5 51  1  0  0  0
  6 26  1  0  0  0
  6  7  2  0  0  0
  7  8  1  0  0  0
  7 52  1  0  0  0
  8  9  2  0  0  0
  8 10  1  0  0  0
  9 53  1  0  0  0
 10 11  2  0  0  0
 10 12  1  0  0  0
 12 13  1  0  0  0
 12 54  1  0  0  0
 13 44  1  0  0  0
 13 14  1  0  0  0
 13 27  1  0  0  0
 14 15  1  0  0  0
 14 55  1  0  0  0
 14 56  1  0  0  0
 15 20  1  0  0  0
 15 16  2  0  0  0
 16 17  1  0  0  0
 16 57  1  0  0  0
 17 18  2  0  0  0
 17 21  1  0  0  0
 18 19  1  0  0  0
 18 58  1  0  0  0
 19 20  2  0  0  0
 19 59  1  0  0  0
 20 60  1  0  0  0
 21 22  1  0  0  0
 22 23  1  0  0  0
 22 61  1  0  0  0
 22 62  1  0  0  0
 23 24  1  0  0  0
 23 63  1  0  0  0
 23 64  1  0  0  0
 24 25  1  0  0  0
 24 65  1  0  0  0
 24 66  1  0  0  0
 25 26  1  0  0  0
 25 67  1  0  0  0
 25 68  1  0  0  0
 26 69  1  0  0  0
 27 45  1  0  0  0
 27 28  1  0  0  0
 27 29  1  0  0  0
 28 70  1  0  0  0
 29 30  1  0  0  0
 29 71  1  0  0  0
 29 72  1  0  0  0
 30 31  1  0  0  0
 30 73  1  0  0  0
 31 32  1  0  0  0
 31 33  1  0  0  0
 31 34  1  0  0  0
 32 74  1  0  0  0
 32 75  1  0  0  0
 32 76  1  0  0  0
 33 77  1  0  0  0
 33 78  1  0  0  0
 33 79  1  0  0  0
 34 39  1  0  0  0
 34 35  2  0  0  0
 35 36  1  0  0  0
 35 80  1  0  0  0
 36 37  2  0  0  0
 36 40  1  0  0  0
 37 38  1  0  0  0
 37 81  1  0  0  0
 38 39  2  0  0  0
 38 82  1  0  0  0
 40 41  1  0  0  0
 40 42  1  0  0  0
 40 43  1  0  0  0
 41 83  1  0  0  0
 41 84  1  0  0  0
 41 85  1  0  0  0
 42 86  1  0  0  0
 42 87  1  0  0  0
 42 88  1  0  0  0
 43 89  1  0  0  0
 43 90  1  0  0  0
 43 91  1  0  0  0
M  END
> <s_m_source_file>
BACE_124.smi

> <i_m_source_file_index>
1

> <i_lp_mmshare_version>
42013

> <i_f3d_flags>
0

> <s_epik_input>
bjFbY0hdW2NIXWMoQyhbQ0gzXSkoW0NIM10pW0NIM10pW2NIXWMxQyhbQ0gzXSkoW0NIM10pW05IXVtDSDJdW0NAQEhdKFtPSF0pW0NAQEhdKFtOSF1DKD1PKWMoW2NIXTIpW2NIXWMoW2NIXWMyMylbQ0gyXU9bQ0gzXSlbQ0gyXWM0W2NIXWMoW2NIXVtjSF1bY0hdNClPW0NIMl1bQ0gyXVtDSDJdW0NIMl1bTkhdMw==

> <s_epik_cmdline>
J2VwaWtfcHl0aG9uJywgJy1waCcsICc3LjAnLCAnLXRuJywgJzgnLCAnLW1hJywgJzIwMCcsICctaW1hZScsICc8aW5maWxlLm1hZT4nLCAnLW9tYWUnLCAnPG91dGZpbGUubWFlPic=

> <r_lp_tautomer_probability>
1

> <r_epik_Ionization_Penalty>
  1.6575

> <r_epik_Ionization_Penalty_Charging>
  0.0000

> <r_epik_Ionization_Penalty_Neutral>
  1.6575

> <r_epik_State_Penalty>
  1.7498

> <r_epik_Charging_Adjusted_Penalty>
1.7498

> <i_epik_Tot_Q>
0

> <i_epik_Tot_abs_Q>
0

> <s_lp_Force_Field>
OPLS_2005

> <r_lp_Energy>
41.0353

> <b_lp_Chiralities_Consistent>
1

> <s_lp_Variant>
BACE_124.smi:1-2

> <chiral flag>
1

> <version>
0

> <s_i_glide_gridfile>
second_dock_grid_2

> <i_i_glide_lignum>
255

> <i_i_glide_rotatable_bonds>
9

> <r_i_docking_score>
-1.84995

> <r_i_glide_ligand_efficiency>
-0.0430221

> <r_i_glide_ligand_efficiency_sa>
-0.150724

> <r_i_glide_ligand_efficiency_ln>
-0.388547

> <r_glide_XP_GScore>
-3.59975

> <r_i_glide_gscore>
-3.59975

> <r_i_glide_evdw>
-41.6464

> <r_i_glide_ecoul>
-8.7607

> <r_i_glide_energy>
-50.4071

> <r_i_glide_einternal>
7.33824

> <r_i_glide_emodel>
-69.2053

> <r_glide_XP_HBond>
-0.668074

> <i_i_glide_confnum>
1

> <i_i_glide_posenum>
21

> <r_i_glide_eff_state_penalty>
1.7498

> <i_glide_XP_PoseRank>
1

$$$$
BACE_125.smi:1
                    3D
 Structure written by MMmdl.
 79 82  0  0  1  0            999 V2000
   22.6744   47.5841   -7.5165 C   0  0  0  0  0  0
   21.8232   46.4197   -8.0398 C   0  0  2  0  0  0
   20.7497   46.9360   -8.9061 N   0  0  0  0  0  0
   20.1192   45.9738   -9.8229 C   0  0  0  0  0  0
   19.0105   45.1074   -9.1707 C   0  0  1  0  0  0
   17.7647   45.7622   -9.3246 O   0  0  0  0  0  0
   18.8776   43.6754   -9.7427 C   0  0  2  0  0  0
   20.0022   42.7383   -9.2602 C   0  0  0  0  0  0
   19.7705   41.2940   -9.6650 C   0  0  0  0  0  0
   18.9497   40.4825   -8.8581 C   0  0  0  0  0  0
   18.6975   39.1334   -9.2067 C   0  0  0  0  0  0
   19.2667   38.6267  -10.3918 C   0  0  0  0  0  0
   20.0897   39.4325  -11.2023 C   0  0  0  0  0  0
   20.3499   40.7653  -10.8363 C   0  0  0  0  0  0
   17.9106   38.2705   -8.4691 O   0  0  0  0  0  0
   17.5059   38.6363   -7.1521 C   0  0  0  0  0  0
   16.0178   39.0284   -7.0680 C   0  0  0  0  0  0
   15.5338   40.1738   -7.9742 C   0  0  0  0  0  0
   15.1868   39.7283   -9.4067 C   0  0  0  0  0  0
   14.3046   40.6629  -10.0170 O   0  0  0  0  0  0
   14.7924   41.8672  -10.4672 C   0  0  0  0  0  0
   16.1184   42.0873  -10.9073 C   0  0  0  0  0  0
   16.4522   43.3510  -11.4426 C   0  0  0  0  0  0
   15.4605   44.3514  -11.4802 C   0  0  0  0  0  0
   14.2015   44.1636  -11.0357 N   0  0  0  0  0  0
   13.8843   42.9441  -10.5516 C   0  0  0  0  0  0
   17.8049   43.6127  -12.0267 C   0  0  0  0  0  0
   17.9237   43.7483  -13.2402 O   0  0  0  0  0  0
   18.8630   43.6883  -11.2066 N   0  0  0  0  0  0
   21.3152   45.5918   -6.8864 C   0  0  0  0  0  0
   21.6436   44.2432   -6.5763 C   0  0  0  0  0  0
   20.7923   43.9257   -5.5554 C   0  0  0  0  0  0
   20.4826   42.6583   -4.8195 C   0  0  0  0  0  0
   21.6069   42.0437   -3.9480 C   0  0  0  0  0  0
   21.0761   40.7258   -3.3525 C   0  0  0  0  0  0
   21.9943   43.0043   -2.8064 C   0  0  0  0  0  0
   22.8601   41.7166   -4.7801 C   0  0  0  0  0  0
   20.0327   45.0061   -5.2401 O   0  0  0  0  0  0
   20.3899   46.0744   -6.0653 N   0  0  0  0  0  0
   22.4880   45.7994   -8.6429 H   0  0  0  0  0  0
   19.1493   45.0115   -8.0989 H   0  0  0  0  0  0
   17.9561   43.2555   -9.3425 H   0  0  0  0  0  0
   23.5070   47.2171   -6.9150 H   0  0  0  0  0  0
   22.0866   48.2560   -6.8901 H   0  0  0  0  0  0
   23.0944   48.1677   -8.3354 H   0  0  0  0  0  0
   21.0892   47.7419   -9.4186 H   0  0  0  0  0  0
   19.6940   46.5045  -10.6747 H   0  0  0  0  0  0
   20.8931   45.3339  -10.2469 H   0  0  0  0  0  0
   17.1251   45.3073   -8.7968 H   0  0  0  0  0  0
   20.9759   43.0682   -9.6222 H   0  0  0  0  0  0
   20.0560   42.7674   -8.1734 H   0  0  0  0  0  0
   18.5151   40.9328   -7.9792 H   0  0  0  0  0  0
   19.0731   37.6042  -10.6793 H   0  0  0  0  0  0
   20.5238   39.0262  -12.1054 H   0  0  0  0  0  0
   20.9828   41.3800  -11.4609 H   0  0  0  0  0  0
   17.6601   37.7500   -6.5374 H   0  0  0  0  0  0
   18.1406   39.3800   -6.6731 H   0  0  0  0  0  0
   15.3956   38.1501   -7.2387 H   0  0  0  0  0  0
   15.8172   39.3196   -6.0373 H   0  0  0  0  0  0
   14.6203   40.5671   -7.5251 H   0  0  0  0  0  0
   16.2379   41.0046   -7.9717 H   0  0  0  0  0  0
   16.0672   39.5167  -10.0094 H   0  0  0  0  0  0
   14.6336   38.7887   -9.3622 H   0  0  0  0  0  0
   16.8584   41.3016  -10.8962 H   0  0  0  0  0  0
   15.6768   45.3274  -11.8880 H   0  0  0  0  0  0
   12.8615   42.8138  -10.2308 H   0  0  0  0  0  0
   19.7535   43.8398  -11.6534 H   0  0  0  0  0  0
   22.3410   43.5880   -7.0762 H   0  0  0  0  0  0
   19.6217   42.8420   -4.1776 H   0  0  0  0  0  0
   20.1459   41.9200   -5.5502 H   0  0  0  0  0  0
   21.8686   40.1795   -2.8400 H   0  0  0  0  0  0
   20.6907   40.0674   -4.1333 H   0  0  0  0  0  0
   20.2669   40.8980   -2.6397 H   0  0  0  0  0  0
   21.1223   43.3297   -2.2390 H   0  0  0  0  0  0
   22.4757   43.8999   -3.1958 H   0  0  0  0  0  0
   22.6905   42.5495   -2.1016 H   0  0  0  0  0  0
   23.6007   41.1817   -4.1812 H   0  0  0  0  0  0
   23.3496   42.6165   -5.1510 H   0  0  0  0  0  0
   22.6149   41.0873   -5.6375 H   0  0  0  0  0  0
  1  2  1  0  0  0
  1 43  1  0  0  0
  1 44  1  0  0  0
  1 45  1  0  0  0
  2 40  1  0  0  0
  2  3  1  0  0  0
  2 30  1  0  0  0
  3  4  1  0  0  0
  3 46  1  0  0  0
  4  5  1  0  0  0
  4 47  1  0  0  0
  4 48  1  0  0  0
  5 41  1  0  0  0
  5  6  1  0  0  0
  5  7  1  0  0  0
  6 49  1  0  0  0
  7 42  1  0  0  0
  7 29  1  0  0  0
  7  8  1  0  0  0
  8  9  1  0  0  0
  8 50  1  0  0  0
  8 51  1  0  0  0
  9 14  1  0  0  0
  9 10  2  0  0  0
 10 11  1  0  0  0
 10 52  1  0  0  0
 11 12  2  0  0  0
 11 15  1  0  0  0
 12 13  1  0  0  0
 12 53  1  0  0  0
 13 14  2  0  0  0
 13 54  1  0  0  0
 14 55  1  0  0  0
 15 16  1  0  0  0
 16 17  1  0  0  0
 16 56  1  0  0  0
 16 57  1  0  0  0
 17 18  1  0  0  0
 17 58  1  0  0  0
 17 59  1  0  0  0
 18 19  1  0  0  0
 18 60  1  0  0  0
 18 61  1  0  0  0
 19 20  1  0  0  0
 19 62  1  0  0  0
 19 63  1  0  0  0
 20 21  1  0  0  0
 21 26  1  0  0  0
 21 22  2  0  0  0
 22 23  1  0  0  0
 22 64  1  0  0  0
 23 24  2  0  0  0
 23 27  1  0  0  0
 24 25  1  0  0  0
 24 65  1  0  0  0
 25 26  2  0  0  0
 26 66  1  0  0  0
 27 28  2  0  0  0
 27 29  1  0  0  0
 29 67  1  0  0  0
 30 39  2  0  0  0
 30 31  1  0  0  0
 31 32  2  0  0  0
 31 68  1  0  0  0
 32 33  1  0  0  0
 32 38  1  0  0  0
 33 34  1  0  0  0
 33 69  1  0  0  0
 33 70  1  0  0  0
 34 35  1  0  0  0
 34 36  1  0  0  0
 34 37  1  0  0  0
 35 71  1  0  0  0
 35 72  1  0  0  0
 35 73  1  0  0  0
 36 74  1  0  0  0
 36 75  1  0  0  0
 36 76  1  0  0  0
 37 77  1  0  0  0
 37 78  1  0  0  0
 37 79  1  0  0  0
 38 39  1  0  0  0
M  END
> <s_m_source_file>
BACE_125.smi

> <i_m_source_file_index>
1

> <i_lp_mmshare_version>
42013

> <i_f3d_flags>
0

> <s_epik_input>
W0NIM11DKFtDSDNdKShbQ0gzXSlbQ0gyXWMob24xKVtjSF1jMVtDQEhdKFtDSDNdKVtOSF1bQ0gyXVtDQEBIXShbT0hdKVtDQEhdKFtDSDJdMilbTkhdQyg9TyljKFtjSF1uW2NIXTMpW2NIXWMzT1tDSDJdW0NIMl1bQ0gyXVtDSDJdT2MoW2NIXWMyNClbY0hdW2NIXVtjSF00

> <s_epik_cmdline>
J2VwaWtfcHl0aG9uJywgJy1waCcsICc3LjAnLCAnLXRuJywgJzgnLCAnLW1hJywgJzIwMCcsICctaW1hZScsICc8aW5maWxlLm1hZT4nLCAnLW9tYWUnLCAnPG91dGZpbGUubWFlPic=

> <r_lp_tautomer_probability>
1

> <r_epik_Ionization_Penalty>
  0.3908

> <r_epik_Ionization_Penalty_Charging>
  0.0000

> <r_epik_Ionization_Penalty_Neutral>
  0.3908

> <r_epik_State_Penalty>
  0.3892

> <r_epik_Charging_Adjusted_Penalty>
0.38918

> <i_epik_Tot_Q>
0

> <i_epik_Tot_abs_Q>
0

> <s_lp_Force_Field>
OPLS_2005

> <r_lp_Energy>
46.3233

> <b_lp_Chiralities_Consistent>
1

> <s_lp_Variant>
BACE_125.smi:1-1

> <chiral flag>
1

> <version>
0

> <s_i_glide_gridfile>
second_dock_grid_2

> <i_i_glide_lignum>
256

> <i_i_glide_rotatable_bonds>
8

> <r_i_docking_score>
-3.85052

> <r_i_glide_ligand_efficiency>
-0.0987314

> <r_i_glide_ligand_efficiency_sa>
-0.334819

> <r_i_glide_ligand_efficiency_ln>
-0.825662

> <r_glide_XP_GScore>
-4.23972

> <r_i_glide_gscore>
-4.23972

> <r_i_glide_evdw>
-42.9103

> <r_i_glide_ecoul>
-7.90804

> <r_i_glide_energy>
-50.8184

> <r_i_glide_einternal>
8.50483

> <r_i_glide_emodel>
-64.009

> <r_glide_XP_HBond>
-0.7

> <i_i_glide_confnum>
1

> <i_i_glide_posenum>
1

> <r_i_glide_eff_state_penalty>
0.3892

> <i_glide_XP_PoseRank>
1

$$$$
BACE_125.smi:1
                    3D
 Structure written by MMmdl.
 80 83  0  0  1  0            999 V2000
   22.6659   40.1798   -6.7720 C   0  0  0  0  0  0
   22.2595   40.5503   -8.2030 C   0  0  2  0  0  0
   22.3647   39.4054   -9.1338 N   0  3  0  0  0  0
   21.5967   38.1781   -8.8215 C   0  0  0  0  0  0
   20.0544   38.3372   -8.8106 C   0  0  1  0  0  0
   19.6855   38.8711   -7.5550 O   0  0  0  0  0  0
   19.4187   39.1791   -9.9520 C   0  0  2  0  0  0
   17.9310   38.8379  -10.1814 C   0  0  0  0  0  0
   17.0361   39.4820   -9.1493 C   0  0  0  0  0  0
   16.9760   40.8872   -9.0746 C   0  0  0  0  0  0
   16.1754   41.5181   -8.1164 C   0  0  0  0  0  0
   15.4353   40.7315   -7.2153 C   0  0  0  0  0  0
   15.4791   39.3263   -7.2821 C   0  0  0  0  0  0
   16.2834   38.6968   -8.2506 C   0  0  0  0  0  0
   16.1671   42.8863   -8.0477 O   0  0  0  0  0  0
   14.9642   43.4972   -8.4956 C   0  0  0  0  0  0
   15.0164   43.6773  -10.0232 C   0  0  0  0  0  0
   16.1143   44.6677  -10.4619 C   0  0  0  0  0  0
   16.4114   44.6002  -11.9707 C   0  0  0  0  0  0
   16.9614   43.3330  -12.3248 O   0  0  0  0  0  0
   18.2718   43.0432  -11.9852 C   0  0  0  0  0  0
   18.7058   41.7098  -12.1248 C   0  0  0  0  0  0
   20.0463   41.3681  -11.8571 C   0  0  0  0  0  0
   20.9157   42.3872  -11.4294 C   0  0  0  0  0  0
   20.5115   43.6621  -11.2398 N   0  0  0  0  0  0
   19.2276   43.9784  -11.5187 C   0  0  0  0  0  0
   20.5350   39.9710  -12.0710 C   0  0  0  0  0  0
   21.2596   39.7106  -13.0242 O   0  0  0  0  0  0
   20.1449   39.0157  -11.2099 N   0  0  0  0  0  0
   23.1478   41.6467   -8.7162 C   0  0  0  0  0  0
   24.4648   41.5249   -9.2285 C   0  0  0  0  0  0
   24.8612   42.8145   -9.4426 C   0  0  0  0  0  0
   26.1631   43.4629   -9.8117 C   0  0  0  0  0  0
   26.8992   42.9701  -11.0943 C   0  0  0  0  0  0
   28.3569   43.4645  -11.0361 C   0  0  0  0  0  0
   26.2201   43.5651  -12.3435 C   0  0  0  0  0  0
   26.9279   41.4377  -11.2264 C   0  0  0  0  0  0
   23.8425   43.6580   -9.1333 O   0  0  0  0  0  0
   22.7600   42.9066   -8.6606 N   0  0  0  0  0  0
   21.2294   40.9060   -8.1929 H   0  0  0  0  0  0
   19.6381   37.3311   -8.8459 H   0  0  0  0  0  0
   19.5016   40.2280   -9.6666 H   0  0  0  0  0  0
   22.6913   41.0584   -6.1275 H   0  0  0  0  0  0
   23.6597   39.7485   -6.7720 H   0  0  0  0  0  0
   21.9904   39.4605   -6.3123 H   0  0  0  0  0  0
   22.0736   39.7350  -10.0417 H   0  0  0  0  0  0
   21.8743   37.4542   -9.5848 H   0  0  0  0  0  0
   21.9456   37.7514   -7.8813 H   0  0  0  0  0  0
   18.7397   38.8668   -7.4758 H   0  0  0  0  0  0
   17.6034   39.1966  -11.1559 H   0  0  0  0  0  0
   17.7689   37.7611  -10.2003 H   0  0  0  0  0  0
   17.5512   41.5021   -9.7466 H   0  0  0  0  0  0
   14.8599   41.2076   -6.4405 H   0  0  0  0  0  0
   14.9124   38.7384   -6.5710 H   0  0  0  0  0  0
   16.3275   37.6176   -8.2802 H   0  0  0  0  0  0
   14.0823   42.9258   -8.1975 H   0  0  0  0  0  0
   14.8736   44.4729   -8.0165 H   0  0  0  0  0  0
   15.1666   42.7077  -10.4932 H   0  0  0  0  0  0
   14.0462   44.0261  -10.3804 H   0  0  0  0  0  0
   15.8159   45.6825  -10.1936 H   0  0  0  0  0  0
   17.0317   44.4770   -9.9069 H   0  0  0  0  0  0
   15.4766   44.7220  -12.5198 H   0  0  0  0  0  0
   17.0527   45.4188  -12.2996 H   0  0  0  0  0  0
   18.0045   40.9541  -12.4403 H   0  0  0  0  0  0
   21.9575   42.1765  -11.2329 H   0  0  0  0  0  0
   18.9866   45.0201  -11.3828 H   0  0  0  0  0  0
   20.4001   38.0706  -11.4507 H   0  0  0  0  0  0
   25.0584   40.6324   -9.3518 H   0  0  0  0  0  0
   26.0148   44.5389   -9.8715 H   0  0  0  0  0  0
   26.8304   43.3289   -8.9626 H   0  0  0  0  0  0
   28.9086   43.1910  -11.9372 H   0  0  0  0  0  0
   28.8837   43.0306  -10.1847 H   0  0  0  0  0  0
   28.3996   44.5500  -10.9368 H   0  0  0  0  0  0
   26.2381   44.6571  -12.3281 H   0  0  0  0  0  0
   25.1730   43.2598  -12.4242 H   0  0  0  0  0  0
   26.7252   43.2363  -13.2539 H   0  0  0  0  0  0
   27.5870   41.1167  -12.0322 H   0  0  0  0  0  0
   25.9377   41.0401  -11.4536 H   0  0  0  0  0  0
   27.2818   40.9617  -10.3089 H   0  0  0  0  0  0
   23.3427   39.1418   -9.2092 H   0  0  0  0  0  0
  1  2  1  0  0  0
  1 43  1  0  0  0
  1 44  1  0  0  0
  1 45  1  0  0  0
  2 40  1  0  0  0
  2  3  1  0  0  0
  2 30  1  0  0  0
  3  4  1  0  0  0
  3 46  1  0  0  0
  3 80  1  0  0  0
  4  5  1  0  0  0
  4 47  1  0  0  0
  4 48  1  0  0  0
  5 41  1  0  0  0
  5  6  1  0  0  0
  5  7  1  0  0  0
  6 49  1  0  0  0
  7 42  1  0  0  0
  7 29  1  0  0  0
  7  8  1  0  0  0
  8  9  1  0  0  0
  8 50  1  0  0  0
  8 51  1  0  0  0
  9 14  1  0  0  0
  9 10  2  0  0  0
 10 11  1  0  0  0
 10 52  1  0  0  0
 11 12  2  0  0  0
 11 15  1  0  0  0
 12 13  1  0  0  0
 12 53  1  0  0  0
 13 14  2  0  0  0
 13 54  1  0  0  0
 14 55  1  0  0  0
 15 16  1  0  0  0
 16 17  1  0  0  0
 16 56  1  0  0  0
 16 57  1  0  0  0
 17 18  1  0  0  0
 17 58  1  0  0  0
 17 59  1  0  0  0
 18 19  1  0  0  0
 18 60  1  0  0  0
 18 61  1  0  0  0
 19 20  1  0  0  0
 19 62  1  0  0  0
 19 63  1  0  0  0
 20 21  1  0  0  0
 21 26  1  0  0  0
 21 22  2  0  0  0
 22 23  1  0  0  0
 22 64  1  0  0  0
 23 24  2  0  0  0
 23 27  1  0  0  0
 24 25  1  0  0  0
 24 65  1  0  0  0
 25 26  2  0  0  0
 26 66  1  0  0  0
 27 28  2  0  0  0
 27 29  1  0  0  0
 29 67  1  0  0  0
 30 39  2  0  0  0
 30 31  1  0  0  0
 31 32  2  0  0  0
 31 68  1  0  0  0
 32 33  1  0  0  0
 32 38  1  0  0  0
 33 34  1  0  0  0
 33 69  1  0  0  0
 33 70  1  0  0  0
 34 35  1  0  0  0
 34 36  1  0  0  0
 34 37  1  0  0  0
 35 71  1  0  0  0
 35 72  1  0  0  0
 35 73  1  0  0  0
 36 74  1  0  0  0
 36 75  1  0  0  0
 36 76  1  0  0  0
 37 77  1  0  0  0
 37 78  1  0  0  0
 37 79  1  0  0  0
 38 39  1  0  0  0
M  CHG  1   3   1
M  END
> <s_m_source_file>
BACE_125.smi

> <i_m_source_file_index>
1

> <i_lp_mmshare_version>
42013

> <i_f3d_flags>
0

> <s_epik_input>
W0NIM11DKFtDSDNdKShbQ0gzXSlbQ0gyXWMob24xKVtjSF1jMVtDQEhdKFtDSDNdKVtOSF1bQ0gyXVtDQEBIXShbT0hdKVtDQEhdKFtDSDJdMilbTkhdQyg9TyljKFtjSF1uW2NIXTMpW2NIXWMzT1tDSDJdW0NIMl1bQ0gyXVtDSDJdT2MoW2NIXWMyNClbY0hdW2NIXVtjSF00

> <s_epik_cmdline>
J2VwaWtfcHl0aG9uJywgJy1waCcsICc3LjAnLCAnLXRuJywgJzgnLCAnLW1hJywgJzIwMCcsICctaW1hZScsICc8aW5maWxlLm1hZT4nLCAnLW9tYWUnLCAnPG91dGZpbGUubWFlPic=

> <r_lp_tautomer_probability>
1

> <r_epik_Ionization_Penalty>
  0.4318

> <r_epik_Ionization_Penalty_Charging>
  0.4316

> <r_epik_Ionization_Penalty_Neutral>
  0.0002

> <r_epik_State_Penalty>
  0.4330

> <r_epik_Charging_Adjusted_Penalty>
0.864553

> <i_epik_Tot_Q>
1

> <i_epik_Tot_abs_Q>
1

> <s_lp_Force_Field>
OPLS_2005

> <r_lp_Energy>
34.9112

> <b_lp_Chiralities_Consistent>
1

> <s_lp_Variant>
BACE_125.smi:1-2

> <chiral flag>
1

> <version>
0

> <s_i_glide_gridfile>
second_dock_grid_2

> <i_i_glide_lignum>
257

> <i_i_glide_rotatable_bonds>
8

> <r_i_docking_score>
-5.61676

> <r_i_glide_ligand_efficiency>
-0.14402

> <r_i_glide_ligand_efficiency_sa>
-0.488401

> <r_i_glide_ligand_efficiency_ln>
-1.20439

> <r_glide_XP_GScore>
-6.04976

> <r_i_glide_gscore>
-6.04976

> <r_i_glide_evdw>
-45.2518

> <r_i_glide_ecoul>
-8.27728

> <r_i_glide_energy>
-53.5291

> <r_i_glide_einternal>
7.4375

> <r_i_glide_emodel>
-68.9633

> <r_glide_XP_HBond>
-0.539656

> <i_i_glide_confnum>
1

> <i_i_glide_posenum>
9

> <r_i_glide_eff_state_penalty>
0.433

> <i_glide_XP_PoseRank>
1

$$$$
BACE_126.smi:1
                    3D
 Structure written by MMmdl.
 62 64  0  0  1  0            999 V2000
   17.6406   48.5296   -6.9458 C   0  0  0  0  0  0
   17.2606   47.9126   -8.1670 O   0  0  0  0  0  0
   18.2961   47.1778   -8.8111 C   0  0  0  0  0  0
   18.6055   45.8360   -8.1642 C   0  0  0  0  0  0
   19.4104   45.7791   -7.0098 C   0  0  0  0  0  0
   19.7218   44.5446   -6.4129 C   0  0  0  0  0  0
   19.2600   43.3500   -7.0119 C   0  0  0  0  0  0
   18.4648   43.3824   -8.1809 C   0  0  0  0  0  0
   18.1327   44.6377   -8.7419 C   0  0  0  0  0  0
   18.0299   42.1110   -8.8650 C   0  0  0  0  0  0
   17.6746   42.1268  -10.0441 O   0  0  0  0  0  0
   18.0243   40.9980   -8.1102 N   0  0  0  0  0  0
   17.6563   39.6500   -8.5709 C   0  0  1  0  0  0
   18.6061   38.5912   -7.9578 C   0  0  0  0  0  0
   20.0728   38.9788   -8.0228 C   0  0  0  0  0  0
   20.7225   39.0634   -9.2705 C   0  0  0  0  0  0
   22.0598   39.4912   -9.3354 C   0  0  0  0  0  0
   22.7427   39.8421   -8.1564 C   0  0  0  0  0  0
   22.1121   39.7512   -6.8997 C   0  0  0  0  0  0
   20.7751   39.2922   -6.8401 C   0  0  0  0  0  0
   22.8599   40.1500   -5.8133 O   0  0  0  0  0  0
   22.3771   39.9880   -4.4827 C   0  0  0  0  0  0
   21.3072   41.0239   -4.0878 C   0  0  0  0  0  0
   21.5901   42.4223   -4.6510 C   0  0  0  0  0  0
   20.4630   43.4115   -4.3381 C   0  0  0  0  0  0
   20.4895   44.5533   -5.2400 N   0  0  0  0  0  0
   16.1798   39.3127   -8.2378 C   0  0  2  0  0  0
   15.3690   39.6688   -9.3449 O   0  0  0  0  0  0
   15.6644   39.9956   -6.9576 C   0  0  0  0  0  0
   14.4600   39.3500   -6.4400 N   0  3  0  0  0  0
   17.8035   39.5931   -9.6519 H   0  0  0  0  0  0
   16.0913   38.2295   -8.1296 H   0  0  0  0  0  0
   16.8596   49.2203   -6.6311 H   0  0  0  0  0  0
   18.5627   49.1024   -7.0503 H   0  0  0  0  0  0
   17.7649   47.7971   -6.1491 H   0  0  0  0  0  0
   19.2068   47.7753   -8.8773 H   0  0  0  0  0  0
   17.9805   47.0030   -9.8401 H   0  0  0  0  0  0
   19.7900   46.6927   -6.5772 H   0  0  0  0  0  0
   19.5315   42.3991   -6.5797 H   0  0  0  0  0  0
   17.5332   44.6825   -9.6400 H   0  0  0  0  0  0
   18.2965   41.0900   -7.1401 H   0  0  0  0  0  0
   18.3358   38.4117   -6.9158 H   0  0  0  0  0  0
   18.4762   37.6349   -8.4665 H   0  0  0  0  0  0
   20.1938   38.8176  -10.1801 H   0  0  0  0  0  0
   22.5624   39.5620  -10.2891 H   0  0  0  0  0  0
   23.7664   40.1816   -8.2188 H   0  0  0  0  0  0
   20.2605   39.1945   -5.8998 H   0  0  0  0  0  0
   22.0445   38.9654   -4.3091 H   0  0  0  0  0  0
   23.2412   40.1245   -3.8318 H   0  0  0  0  0  0
   20.3241   40.7054   -4.4284 H   0  0  0  0  0  0
   21.2335   41.0674   -3.0007 H   0  0  0  0  0  0
   22.5390   42.8029   -4.2709 H   0  0  0  0  0  0
   21.7072   42.3508   -5.7323 H   0  0  0  0  0  0
   19.4841   42.9409   -4.3947 H   0  0  0  0  0  0
   20.5555   43.7500   -3.3072 H   0  0  0  0  0  0
   20.8573   45.4212   -4.8783 H   0  0  0  0  0  0
   14.4937   39.3309   -9.2297 H   0  0  0  0  0  0
   16.4090   39.9215   -6.1664 H   0  0  0  0  0  0
   15.4667   41.0566   -7.1207 H   0  0  0  0  0  0
   14.0602   39.9690   -5.7348 H   0  0  0  0  0  0
   13.7754   39.1783   -7.1602 H   0  0  0  0  0  0
   14.7115   38.4892   -5.9452 H   0  0  0  0  0  0
  1  2  1  0  0  0
  1 33  1  0  0  0
  1 34  1  0  0  0
  1 35  1  0  0  0
  2  3  1  0  0  0
  3  4  1  0  0  0
  3 36  1  0  0  0
  3 37  1  0  0  0
  4  9  1  0  0  0
  4  5  2  0  0  0
  5  6  1  0  0  0
  5 38  1  0  0  0
  6 26  1  0  0  0
  6  7  2  0  0  0
  7  8  1  0  0  0
  7 39  1  0  0  0
  8  9  2  0  0  0
  8 10  1  0  0  0
  9 40  1  0  0  0
 10 11  2  0  0  0
 10 12  1  0  0  0
 12 13  1  0  0  0
 12 41  1  0  0  0
 13 31  1  0  0  0
 13 14  1  0  0  0
 13 27  1  0  0  0
 14 15  1  0  0  0
 14 42  1  0  0  0
 14 43  1  0  0  0
 15 20  1  0  0  0
 15 16  2  0  0  0
 16 17  1  0  0  0
 16 44  1  0  0  0
 17 18  2  0  0  0
 17 45  1  0  0  0
 18 19  1  0  0  0
 18 46  1  0  0  0
 19 20  2  0  0  0
 19 21  1  0  0  0
 20 47  1  0  0  0
 21 22  1  0  0  0
 22 23  1  0  0  0
 22 48  1  0  0  0
 22 49  1  0  0  0
 23 24  1  0  0  0
 23 50  1  0  0  0
 23 51  1  0  0  0
 24 25  1  0  0  0
 24 52  1  0  0  0
 24 53  1  0  0  0
 25 26  1  0  0  0
 25 54  1  0  0  0
 25 55  1  0  0  0
 26 56  1  0  0  0
 27 32  1  0  0  0
 27 28  1  0  0  0
 27 29  1  0  0  0
 28 57  1  0  0  0
 29 30  1  0  0  0
 29 58  1  0  0  0
 29 59  1  0  0  0
 30 60  1  0  0  0
 30 61  1  0  0  0
 30 62  1  0  0  0
M  CHG  1  30   1
M  END
> <s_m_source_file>
BACE_126.smi

> <i_m_source_file_index>
1

> <i_lp_mmshare_version>
42013

> <i_f3d_flags>
0

> <s_epik_input>
W0NIM11PW0NIMl1jKFtjSF1jMTIpW2NIXWMoW2NIXTEpQyg9TylbTkhdW0NASF0oW0NASF0oW09IXSlbQ0gyXVtOSDJdKVtDSDJdYzNbY0hdW2NIXVtjSF1jKFtjSF0zKU9bQ0gyXVtDSDJdW0NIMl1bQ0gyXVtOSF0y

> <s_epik_cmdline>
J2VwaWtfcHl0aG9uJywgJy1waCcsICc3LjAnLCAnLXRuJywgJzgnLCAnLW1hJywgJzIwMCcsICctaW1hZScsICc8aW5maWxlLm1hZT4nLCAnLW9tYWUnLCAnPG91dGZpbGUubWFlPic=

> <r_lp_tautomer_probability>
1

> <r_epik_Ionization_Penalty>
  0.0125

> <r_epik_Ionization_Penalty_Charging>
  0.0122

> <r_epik_Ionization_Penalty_Neutral>
  0.0003

> <r_epik_State_Penalty>
  0.0094

> <r_epik_Charging_Adjusted_Penalty>
0.0215847

> <i_epik_Tot_Q>
1

> <i_epik_Tot_abs_Q>
1

> <s_lp_Force_Field>
OPLS_2005

> <r_lp_Energy>
30.3209

> <b_lp_Chiralities_Consistent>
1

> <s_lp_Variant>
BACE_126.smi:1-1

> <chiral flag>
1

> <version>
0

> <s_i_glide_gridfile>
second_dock_grid_2

> <i_i_glide_lignum>
258

> <i_i_glide_rotatable_bonds>
5

> <r_i_docking_score>
-8.35114

> <r_i_glide_ligand_efficiency>
-0.278371

> <r_i_glide_ligand_efficiency_sa>
-0.864965

> <r_i_glide_ligand_efficiency_ln>
-1.89747

> <r_glide_XP_GScore>
-8.36054

> <r_i_glide_gscore>
-8.36054

> <r_i_glide_evdw>
-34.4934

> <r_i_glide_ecoul>
-18.2384

> <r_i_glide_energy>
-52.7318

> <r_i_glide_einternal>
2.22552

> <r_i_glide_emodel>
-75.8801

> <r_glide_XP_HBond>
-2.87345

> <i_i_glide_confnum>
1

> <i_i_glide_posenum>
48

> <r_i_glide_eff_state_penalty>
0.0094

> <i_glide_XP_PoseRank>
1

$$$$
BACE_126.smi:1
                    3D
 Structure written by MMmdl.
 61 63  0  0  1  0            999 V2000
   17.6127   48.1266   -6.0843 C   0  0  0  0  0  0
   18.4598   47.3504   -5.2568 O   0  0  0  0  0  0
   19.6559   46.9406   -5.9051 C   0  0  0  0  0  0
   19.6355   45.4600   -6.2265 C   0  0  0  0  0  0
   20.6945   44.6305   -5.8055 C   0  0  0  0  0  0
   20.7006   43.2564   -6.1130 C   0  0  0  0  0  0
   19.6139   42.7124   -6.8404 C   0  0  0  0  0  0
   18.5328   43.5300   -7.2519 C   0  0  0  0  0  0
   18.5649   44.9068   -6.9561 C   0  0  0  0  0  0
   17.3817   42.9677   -8.0393 C   0  0  0  0  0  0
   16.8408   43.6290   -8.9267 O   0  0  0  0  0  0
   16.9743   41.7418   -7.6854 N   0  0  0  0  0  0
   15.9169   40.9439   -8.3121 C   0  0  1  0  0  0
   16.3402   40.4478   -9.7271 C   0  0  0  0  0  0
   17.6242   39.6448   -9.7756 C   0  0  0  0  0  0
   17.5808   38.2477   -9.6396 C   0  0  0  0  0  0
   18.7691   37.5058   -9.6176 C   0  0  0  0  0  0
   20.0093   38.1510   -9.7702 C   0  0  0  0  0  0
   20.0641   39.5510   -9.9831 C   0  0  0  0  0  0
   18.8629   40.2865   -9.9809 C   0  0  0  0  0  0
   21.2240   40.2621  -10.2016 O   0  0  0  0  0  0
   22.4618   39.7065   -9.7702 C   0  0  0  0  0  0
   22.5684   39.7178   -8.2340 C   0  0  0  0  0  0
   22.4621   41.1356   -7.6546 C   0  0  0  0  0  0
   22.0427   41.1455   -6.1773 C   0  0  0  0  0  0
   21.8005   42.4942   -5.6825 N   0  0  0  0  0  0
   15.4380   39.8730   -7.2788 C   0  0  2  0  0  0
   16.5194   39.3392   -6.5501 O   0  0  0  0  0  0
   14.6093   38.6616   -7.7614 C   0  0  0  0  0  0
   13.6600   38.9531   -8.8400 N   0  0  0  0  0  0
   15.0589   41.6016   -8.4730 H   0  0  0  0  0  0
   14.8394   40.4043   -6.5381 H   0  0  0  0  0  0
   16.6195   48.1502   -5.6398 H   0  0  0  0  0  0
   17.5083   47.7101   -7.0848 H   0  0  0  0  0  0
   17.9857   49.1451   -6.1719 H   0  0  0  0  0  0
   20.4937   47.1518   -5.2409 H   0  0  0  0  0  0
   19.8520   47.5080   -6.8181 H   0  0  0  0  0  0
   21.5161   45.0549   -5.2479 H   0  0  0  0  0  0
   19.5936   41.6598   -7.0840 H   0  0  0  0  0  0
   17.7507   45.5328   -7.2790 H   0  0  0  0  0  0
   17.4119   41.3076   -6.8809 H   0  0  0  0  0  0
   15.5528   39.8669  -10.2018 H   0  0  0  0  0  0
   16.4687   41.3113  -10.3815 H   0  0  0  0  0  0
   16.6383   37.7375   -9.5464 H   0  0  0  0  0  0
   18.7173   36.4377   -9.4828 H   0  0  0  0  0  0
   20.8998   37.5450   -9.7388 H   0  0  0  0  0  0
   18.9010   41.3563  -10.1200 H   0  0  0  0  0  0
   22.5937   38.7074  -10.1759 H   0  0  0  0  0  0
   23.2650   40.3083  -10.1931 H   0  0  0  0  0  0
   21.7855   39.0859   -7.8134 H   0  0  0  0  0  0
   23.5133   39.2692   -7.9257 H   0  0  0  0  0  0
   23.4099   41.6610   -7.7862 H   0  0  0  0  0  0
   21.7313   41.7000   -8.2330 H   0  0  0  0  0  0
   21.1518   40.5343   -6.0202 H   0  0  0  0  0  0
   22.8320   40.6944   -5.5730 H   0  0  0  0  0  0
   22.5388   42.9482   -5.1642 H   0  0  0  0  0  0
   16.1625   38.6993   -5.9392 H   0  0  0  0  0  0
   15.2609   37.8443   -8.0559 H   0  0  0  0  0  0
   14.0601   38.2740   -6.9018 H   0  0  0  0  0  0
   12.9769   38.1973   -8.9251 H   0  0  0  0  0  0
   13.0974   39.7750   -8.5872 H   0  0  0  0  0  0
  1  2  1  0  0  0
  1 33  1  0  0  0
  1 34  1  0  0  0
  1 35  1  0  0  0
  2  3  1  0  0  0
  3  4  1  0  0  0
  3 36  1  0  0  0
  3 37  1  0  0  0
  4  9  1  0  0  0
  4  5  2  0  0  0
  5  6  1  0  0  0
  5 38  1  0  0  0
  6 26  1  0  0  0
  6  7  2  0  0  0
  7  8  1  0  0  0
  7 39  1  0  0  0
  8  9  2  0  0  0
  8 10  1  0  0  0
  9 40  1  0  0  0
 10 11  2  0  0  0
 10 12  1  0  0  0
 12 13  1  0  0  0
 12 41  1  0  0  0
 13 31  1  0  0  0
 13 14  1  0  0  0
 13 27  1  0  0  0
 14 15  1  0  0  0
 14 42  1  0  0  0
 14 43  1  0  0  0
 15 20  1  0  0  0
 15 16  2  0  0  0
 16 17  1  0  0  0
 16 44  1  0  0  0
 17 18  2  0  0  0
 17 45  1  0  0  0
 18 19  1  0  0  0
 18 46  1  0  0  0
 19 20  2  0  0  0
 19 21  1  0  0  0
 20 47  1  0  0  0
 21 22  1  0  0  0
 22 23  1  0  0  0
 22 48  1  0  0  0
 22 49  1  0  0  0
 23 24  1  0  0  0
 23 50  1  0  0  0
 23 51  1  0  0  0
 24 25  1  0  0  0
 24 52  1  0  0  0
 24 53  1  0  0  0
 25 26  1  0  0  0
 25 54  1  0  0  0
 25 55  1  0  0  0
 26 56  1  0  0  0
 27 32  1  0  0  0
 27 28  1  0  0  0
 27 29  1  0  0  0
 28 57  1  0  0  0
 29 30  1  0  0  0
 29 58  1  0  0  0
 29 59  1  0  0  0
 30 60  1  0  0  0
 30 61  1  0  0  0
M  END
> <s_m_source_file>
BACE_126.smi

> <i_m_source_file_index>
1

> <i_lp_mmshare_version>
42013

> <i_f3d_flags>
0

> <s_epik_input>
W0NIM11PW0NIMl1jKFtjSF1jMTIpW2NIXWMoW2NIXTEpQyg9TylbTkhdW0NASF0oW0NASF0oW09IXSlbQ0gyXVtOSDJdKVtDSDJdYzNbY0hdW2NIXVtjSF1jKFtjSF0zKU9bQ0gyXVtDSDJdW0NIMl1bQ0gyXVtOSF0y

> <s_epik_cmdline>
J2VwaWtfcHl0aG9uJywgJy1waCcsICc3LjAnLCAnLXRuJywgJzgnLCAnLW1hJywgJzIwMCcsICctaW1hZScsICc8aW5maWxlLm1hZT4nLCAnLW9tYWUnLCAnPG91dGZpbGUubWFlPic=

> <r_lp_tautomer_probability>
1

> <r_epik_Ionization_Penalty>
  2.3082

> <r_epik_Ionization_Penalty_Charging>
  0.0000

> <r_epik_Ionization_Penalty_Neutral>
  2.3082

> <r_epik_State_Penalty>
  2.4591

> <r_epik_Charging_Adjusted_Penalty>
2.4591

> <i_epik_Tot_Q>
0

> <i_epik_Tot_abs_Q>
0

> <s_lp_Force_Field>
OPLS_2005

> <r_lp_Energy>
36.4283

> <b_lp_Chiralities_Consistent>
1

> <s_lp_Variant>
BACE_126.smi:1-2

> <chiral flag>
1

> <version>
0

> <s_i_glide_gridfile>
second_dock_grid_2

> <i_i_glide_lignum>
259

> <i_i_glide_rotatable_bonds>
5

> <r_i_docking_score>
-3.95037

> <r_i_glide_ligand_efficiency>
-0.131679

> <r_i_glide_ligand_efficiency_sa>
-0.409157

> <r_i_glide_ligand_efficiency_ln>
-0.897566

> <r_glide_XP_GScore>
-6.40947

> <r_i_glide_gscore>
-6.40947

> <r_i_glide_evdw>
-32.6998

> <r_i_glide_ecoul>
-14.1422

> <r_i_glide_energy>
-46.842

> <r_i_glide_einternal>
11.2841

> <r_i_glide_emodel>
-59.6507

> <r_glide_XP_HBond>
-0.986993

> <i_i_glide_confnum>
1

> <i_i_glide_posenum>
3

> <r_i_glide_eff_state_penalty>
2.4591

> <i_glide_XP_PoseRank>
1

$$$$
BACE_127.smi:1
                    3D
 Structure written by MMmdl.
 84 87  0  0  1  0            999 V2000
   20.0553   43.3339   -1.2876 C   0  0  0  0  0  0
   21.3367   42.7489   -1.4545 O   0  0  0  0  0  0
   21.3633   41.7269   -2.4409 C   0  0  0  0  0  0
   21.5128   42.2516   -3.8478 C   0  0  0  0  0  0
   22.4606   43.2502   -4.1334 C   0  0  0  0  0  0
   22.6306   43.7198   -5.4493 C   0  0  0  0  0  0
   21.8009   43.2056   -6.4779 C   0  0  0  0  0  0
   20.8808   42.1687   -6.2060 C   0  0  0  0  0  0
   20.7626   41.6837   -4.8893 C   0  0  0  0  0  0
   20.0297   41.5958   -7.3012 C   0  0  0  0  0  0
   19.5312   42.3179   -8.1662 O   0  0  0  0  0  0
   19.9160   40.2591   -7.2794 N   0  0  0  0  0  0
   19.2432   39.4176   -8.2750 C   0  0  1  0  0  0
   20.3050   38.8077   -9.2287 C   0  0  0  0  0  0
   21.1432   39.8779   -9.9085 C   0  0  0  0  0  0
   22.4591   40.1445   -9.4708 C   0  0  0  0  0  0
   23.2095   41.2058  -10.0154 C   0  0  0  0  0  0
   22.6179   42.0040  -11.0240 C   0  0  0  0  0  0
   21.3159   41.7251  -11.4841 C   0  0  0  0  0  0
   20.5807   40.6649  -10.9326 C   0  0  0  0  0  0
   24.4832   41.3788   -9.5180 O   0  0  0  0  0  0
   25.2617   42.5036   -9.9190 C   0  0  0  0  0  0
   24.7960   43.8022   -9.2302 C   0  0  0  0  0  0
   24.7949   43.7110   -7.6945 C   0  0  0  0  0  0
   24.1025   44.9233   -7.0385 C   0  0  0  0  0  0
   23.6501   44.6560   -5.6751 N   0  0  0  0  0  0
   18.3695   38.3694   -7.5388 C   0  0  2  0  0  0
   17.8880   37.3668   -8.4224 O   0  0  0  0  0  0
   17.1961   39.0296   -6.7691 C   0  0  0  0  0  0
   15.8698   38.5771   -7.2400 N   0  3  0  0  0  0
   14.8382   39.6237   -7.3526 C   0  0  0  0  0  0
   15.1412   40.5095   -8.5341 C   0  0  0  0  0  0
   14.8285   40.2778   -9.9046 C   0  0  0  0  0  0
   15.2792   41.2310  -10.7060 N   0  0  0  0  0  0
   15.8649   42.1177   -9.8702 N   0  0  0  0  0  0
   16.4903   43.3147  -10.4025 C   0  0  0  0  0  0
   15.5532   44.5431  -10.4042 C   0  0  0  0  0  0
   16.2977   45.7887  -10.9043 C   0  0  0  0  0  0
   14.2631   44.3201  -11.2160 C   0  0  0  0  0  0
   15.7833   41.7145   -8.5543 C   0  0  0  0  0  0
   18.5767   40.0328   -8.8825 H   0  0  0  0  0  0
   19.0022   37.8482   -6.8188 H   0  0  0  0  0  0
   20.1108   44.1362   -0.5539 H   0  0  0  0  0  0
   19.3335   42.6015   -0.9264 H   0  0  0  0  0  0
   19.6772   43.7512   -2.2205 H   0  0  0  0  0  0
   20.5010   41.0629   -2.3452 H   0  0  0  0  0  0
   22.2476   41.1131   -2.2942 H   0  0  0  0  0  0
   23.0717   43.6399   -3.3321 H   0  0  0  0  0  0
   21.8923   43.5531   -7.4940 H   0  0  0  0  0  0
   20.0601   40.8972   -4.6601 H   0  0  0  0  0  0
   20.3967   39.7787   -6.5345 H   0  0  0  0  0  0
   20.9595   38.1299   -8.6790 H   0  0  0  0  0  0
   19.8259   38.2099  -10.0060 H   0  0  0  0  0  0
   22.9004   39.5417   -8.6922 H   0  0  0  0  0  0
   23.1529   42.8193  -11.4869 H   0  0  0  0  0  0
   20.8792   42.3288  -12.2603 H   0  0  0  0  0  0
   19.5717   40.4755  -11.2700 H   0  0  0  0  0  0
   26.2954   42.2994   -9.6398 H   0  0  0  0  0  0
   25.2776   42.6068  -11.0055 H   0  0  0  0  0  0
   25.4317   44.6286   -9.5446 H   0  0  0  0  0  0
   23.7916   44.0519   -9.5730 H   0  0  0  0  0  0
   24.2908   42.7887   -7.4118 H   0  0  0  0  0  0
   25.8127   43.6134   -7.3156 H   0  0  0  0  0  0
   24.7935   45.7674   -7.0194 H   0  0  0  0  0  0
   23.2511   45.2541   -7.6343 H   0  0  0  0  0  0
   24.3192   44.8056   -4.9310 H   0  0  0  0  0  0
   17.5864   36.6374   -7.8944 H   0  0  0  0  0  0
   17.2780   38.7963   -5.7101 H   0  0  0  0  0  0
   17.2635   40.1172   -6.8394 H   0  0  0  0  0  0
   16.0108   38.1407   -8.1404 H   0  0  0  0  0  0
   13.8702   39.1335   -7.4716 H   0  0  0  0  0  0
   14.7862   40.1834   -6.4163 H   0  0  0  0  0  0
   14.3047   39.4381  -10.3388 H   0  0  0  0  0  0
   17.3761   43.5222   -9.7980 H   0  0  0  0  0  0
   16.8523   43.1035  -11.4088 H   0  0  0  0  0  0
   15.2608   44.7350   -9.3714 H   0  0  0  0  0  0
   17.1922   45.9771  -10.3079 H   0  0  0  0  0  0
   15.6680   46.6787  -10.8406 H   0  0  0  0  0  0
   16.6104   45.6740  -11.9424 H   0  0  0  0  0  0
   13.6551   43.5211  -10.7923 H   0  0  0  0  0  0
   14.4855   44.0565  -12.2502 H   0  0  0  0  0  0
   13.6445   45.2171  -11.2325 H   0  0  0  0  0  0
   16.2032   42.3026   -7.7501 H   0  0  0  0  0  0
   15.5798   37.8514   -6.5814 H   0  0  0  0  0  0
  1  2  1  0  0  0
  1 43  1  0  0  0
  1 44  1  0  0  0
  1 45  1  0  0  0
  2  3  1  0  0  0
  3  4  1  0  0  0
  3 46  1  0  0  0
  3 47  1  0  0  0
  4  9  1  0  0  0
  4  5  2  0  0  0
  5  6  1  0  0  0
  5 48  1  0  0  0
  6 26  1  0  0  0
  6  7  2  0  0  0
  7  8  1  0  0  0
  7 49  1  0  0  0
  8  9  2  0  0  0
  8 10  1  0  0  0
  9 50  1  0  0  0
 10 11  2  0  0  0
 10 12  1  0  0  0
 12 13  1  0  0  0
 12 51  1  0  0  0
 13 41  1  0  0  0
 13 14  1  0  0  0
 13 27  1  0  0  0
 14 15  1  0  0  0
 14 52  1  0  0  0
 14 53  1  0  0  0
 15 20  1  0  0  0
 15 16  2  0  0  0
 16 17  1  0  0  0
 16 54  1  0  0  0
 17 18  2  0  0  0
 17 21  1  0  0  0
 18 19  1  0  0  0
 18 55  1  0  0  0
 19 20  2  0  0  0
 19 56  1  0  0  0
 20 57  1  0  0  0
 21 22  1  0  0  0
 22 23  1  0  0  0
 22 58  1  0  0  0
 22 59  1  0  0  0
 23 24  1  0  0  0
 23 60  1  0  0  0
 23 61  1  0  0  0
 24 25  1  0  0  0
 24 62  1  0  0  0
 24 63  1  0  0  0
 25 26  1  0  0  0
 25 64  1  0  0  0
 25 65  1  0  0  0
 26 66  1  0  0  0
 27 42  1  0  0  0
 27 28  1  0  0  0
 27 29  1  0  0  0
 28 67  1  0  0  0
 29 30  1  0  0  0
 29 68  1  0  0  0
 29 69  1  0  0  0
 30 31  1  0  0  0
 30 70  1  0  0  0
 30 84  1  0  0  0
 31 32  1  0  0  0
 31 71  1  0  0  0
 31 72  1  0  0  0
 32 40  2  0  0  0
 32 33  1  0  0  0
 33 34  2  0  0  0
 33 73  1  0  0  0
 34 35  1  0  0  0
 35 36  1  0  0  0
 35 40  1  0  0  0
 36 37  1  0  0  0
 36 74  1  0  0  0
 36 75  1  0  0  0
 37 38  1  0  0  0
 37 39  1  0  0  0
 37 76  1  0  0  0
 38 77  1  0  0  0
 38 78  1  0  0  0
 38 79  1  0  0  0
 39 80  1  0  0  0
 39 81  1  0  0  0
 39 82  1  0  0  0
 40 83  1  0  0  0
M  CHG  1  30   1
M  END
> <s_m_source_file>
BACE_127.smi

> <i_m_source_file_index>
1

> <i_lp_mmshare_version>
42013

> <i_f3d_flags>
0

> <s_epik_input>
W05IXTFbQ0gyXVtDSDJdW0NIMl1bQ0gyXU9jKFtjSF1bY0hdW2NIXTIpW2NIXWMyW0NIMl1bQ0BIXShbTkhdQyg9TyljKFtjSF0zKVtjSF1jKFtjSF1jMTMpW0NIMl1PW0NIM10pW0NASF0oW09IXSlbQ0gyXVtOSF1bQ0gyXWM0W2NIXW5uKFtjSF00KVtDSDJdW0NIXShbQ0gzXSlbQ0gzXQ==

> <s_epik_cmdline>
J2VwaWtfcHl0aG9uJywgJy1waCcsICc3LjAnLCAnLXRuJywgJzgnLCAnLW1hJywgJzIwMCcsICctaW1hZScsICc8aW5maWxlLm1hZT4nLCAnLW9tYWUnLCAnPG91dGZpbGUubWFlPic=

> <r_lp_tautomer_probability>
1

> <r_epik_Ionization_Penalty>
  0.0640

> <r_epik_Ionization_Penalty_Charging>
  0.0637

> <r_epik_Ionization_Penalty_Neutral>
  0.0003

> <r_epik_State_Penalty>
  0.0554

> <r_epik_Charging_Adjusted_Penalty>
0.11906

> <i_epik_Tot_Q>
1

> <i_epik_Tot_abs_Q>
1

> <s_lp_Force_Field>
OPLS_2005

> <r_lp_Energy>
30.7781

> <b_lp_Chiralities_Consistent>
1

> <s_lp_Variant>
BACE_127.smi:1-1

> <chiral flag>
1

> <version>
0

> <s_i_glide_gridfile>
second_dock_grid_2

> <i_i_glide_lignum>
260

> <i_i_glide_rotatable_bonds>
10

> <r_i_docking_score>
-6.76246

> <r_i_glide_ligand_efficiency>
-0.169062

> <r_i_glide_ligand_efficiency_sa>
-0.578182

> <r_i_glide_ligand_efficiency_ln>
-1.44223

> <r_glide_XP_GScore>
-6.81786

> <r_i_glide_gscore>
-6.81786

> <r_i_glide_evdw>
-44.184

> <r_i_glide_ecoul>
-15.9526

> <r_i_glide_energy>
-60.1366

> <r_i_glide_einternal>
4.316

> <r_i_glide_emodel>
-85.5655

> <r_glide_XP_HBond>
-1.39453

> <i_i_glide_confnum>
1

> <i_i_glide_posenum>
30

> <r_i_glide_eff_state_penalty>
0.0554

> <i_glide_XP_PoseRank>
1

$$$$
