BACE_87.smi:1
                    3D
 Structure written by MMmdl.
 80 83  0  0  1  0            999 V2000
   19.6214   43.6610   -9.2368 C   0  0  0  0  0  0
   18.8407   43.7432   -7.9070 C   0  0  1  0  0  0
   19.7274   43.9805   -6.6663 C   0  0  0  0  0  0
   19.4871   44.8824   -5.8604 O   0  0  0  0  0  0
   20.7596   43.1339   -6.5005 N   0  0  0  0  0  0
   21.5551   42.9826   -5.2763 C   0  0  1  0  0  0
   22.0542   41.5231   -5.0691 C   0  0  0  0  0  0
   21.6501   40.5247   -6.1463 C   0  0  0  0  0  0
   20.3695   39.9377   -6.1156 C   0  0  0  0  0  0
   19.9516   39.0671   -7.1397 C   0  0  0  0  0  0
   18.5214   38.5666   -7.1417 C   0  0  0  0  0  0
   17.6063   39.6055   -7.8019 C   0  0  0  0  0  0
   16.1175   39.3924   -7.5099 C   0  0  0  0  0  0
   15.2059   40.4051   -8.2284 C   0  0  0  0  0  0
   15.4332   41.8801   -7.8225 C   0  0  0  0  0  0
   16.1792   42.7200   -8.8791 C   0  0  0  0  0  0
   16.4126   44.1800   -8.4361 C   0  0  0  0  0  0
   15.4417   44.9459   -8.4720 O   0  0  0  0  0  0
   17.6490   44.6144   -8.0663 N   0  0  0  0  0  0
   17.8474   46.0649   -7.9010 C   0  0  0  0  0  0
   20.8407   38.7355   -8.1828 C   0  0  0  0  0  0
   22.1347   39.2913   -8.2049 C   0  0  0  0  0  0
   22.5309   40.1971   -7.2004 C   0  0  0  0  0  0
   22.7031   44.0226   -5.1432 C   0  0  2  0  0  0
   22.1798   45.3369   -5.2068 O   0  0  0  0  0  0
   23.8574   43.9664   -6.1605 C   0  0  0  0  0  0
   24.9318   44.8396   -5.6394 N   0  3  0  0  0  0
   26.2004   44.9365   -6.3834 C   0  0  0  0  0  0
   27.3146   45.3610   -5.4313 C   0  0  0  0  0  0
   27.1956   46.4920   -4.5937 C   0  0  0  0  0  0
   28.2244   46.7793   -3.6729 C   0  0  0  0  0  0
   29.3482   45.9270   -3.6471 C   0  0  0  0  0  0
   29.4871   44.8573   -4.4583 N   0  0  0  0  0  0
   28.4949   44.6013   -5.3326 C   0  0  0  0  0  0
   28.1247   47.9329   -2.7242 C   0  0  0  0  0  0
   27.8875   49.3389   -3.2180 C   0  0  0  0  0  0
   29.2242   48.9608   -2.6339 C   0  0  0  0  0  0
   18.4778   42.7431   -7.6868 H   0  0  0  0  0  0
   20.8656   43.1671   -4.4454 H   0  0  0  0  0  0
   23.1161   43.9059   -4.1368 H   0  0  0  0  0  0
   18.9707   43.3793  -10.0625 H   0  0  0  0  0  0
   20.4269   42.9257   -9.2025 H   0  0  0  0  0  0
   20.0713   44.6204   -9.4883 H   0  0  0  0  0  0
   20.8650   42.3990   -7.1878 H   0  0  0  0  0  0
   23.1410   41.4941   -4.9536 H   0  0  0  0  0  0
   21.6719   41.1513   -4.1154 H   0  0  0  0  0  0
   19.6672   40.1864   -5.3314 H   0  0  0  0  0  0
   18.4476   37.6036   -7.6517 H   0  0  0  0  0  0
   18.2106   38.3969   -6.1093 H   0  0  0  0  0  0
   17.8771   40.5882   -7.4241 H   0  0  0  0  0  0
   17.7878   39.6262   -8.8760 H   0  0  0  0  0  0
   15.8335   38.3804   -7.8019 H   0  0  0  0  0  0
   15.9507   39.4445   -6.4316 H   0  0  0  0  0  0
   15.2907   40.2881   -9.3107 H   0  0  0  0  0  0
   14.1753   40.1329   -7.9911 H   0  0  0  0  0  0
   14.4588   42.3395   -7.6465 H   0  0  0  0  0  0
   15.9588   41.9197   -6.8657 H   0  0  0  0  0  0
   17.0918   42.2191   -9.1929 H   0  0  0  0  0  0
   15.5663   42.7559   -9.7814 H   0  0  0  0  0  0
   17.2957   46.6464   -8.6431 H   0  0  0  0  0  0
   18.8971   46.3420   -8.0265 H   0  0  0  0  0  0
   17.5269   46.3851   -6.9084 H   0  0  0  0  0  0
   20.5235   38.0727   -8.9756 H   0  0  0  0  0  0
   22.8183   39.0380   -9.0022 H   0  0  0  0  0  0
   23.5113   40.6392   -7.2540 H   0  0  0  0  0  0
   21.3264   45.2859   -5.6281 H   0  0  0  0  0  0
   23.5230   44.3342   -7.1288 H   0  0  0  0  0  0
   24.2274   42.9531   -6.3055 H   0  0  0  0  0  0
   25.1537   44.5214   -4.6985 H   0  0  0  0  0  0
   26.1112   45.6466   -7.2064 H   0  0  0  0  0  0
   26.4425   43.9573   -6.8068 H   0  0  0  0  0  0
   26.3108   47.1122   -4.6274 H   0  0  0  0  0  0
   30.1571   46.1033   -2.9531 H   0  0  0  0  0  0
   28.6447   43.7625   -5.9877 H   0  0  0  0  0  0
   27.6545   47.6342   -1.7924 H   0  0  0  0  0  0
   27.2630   50.0010   -2.6212 H   0  0  0  0  0  0
   27.8469   49.5047   -4.2932 H   0  0  0  0  0  0
   30.0629   48.8832   -3.3263 H   0  0  0  0  0  0
   29.4687   49.3552   -1.6498 H   0  0  0  0  0  0
   24.5324   45.7654   -5.5403 H   0  0  0  0  0  0
  1  2  1  0  0  0
  1 41  1  0  0  0
  1 42  1  0  0  0
  1 43  1  0  0  0
  2 38  1  0  0  0
  2 19  1  0  0  0
  2  3  1  0  0  0
  3  4  2  0  0  0
  3  5  1  0  0  0
  5  6  1  0  0  0
  5 44  1  0  0  0
  6 39  1  0  0  0
  6  7  1  0  0  0
  6 24  1  0  0  0
  7  8  1  0  0  0
  7 45  1  0  0  0
  7 46  1  0  0  0
  8 23  1  0  0  0
  8  9  2  0  0  0
  9 10  1  0  0  0
  9 47  1  0  0  0
 10 11  1  0  0  0
 10 21  2  0  0  0
 11 12  1  0  0  0
 11 48  1  0  0  0
 11 49  1  0  0  0
 12 13  1  0  0  0
 12 50  1  0  0  0
 12 51  1  0  0  0
 13 14  1  0  0  0
 13 52  1  0  0  0
 13 53  1  0  0  0
 14 15  1  0  0  0
 14 54  1  0  0  0
 14 55  1  0  0  0
 15 16  1  0  0  0
 15 56  1  0  0  0
 15 57  1  0  0  0
 16 17  1  0  0  0
 16 58  1  0  0  0
 16 59  1  0  0  0
 17 18  2  0  0  0
 17 19  1  0  0  0
 19 20  1  0  0  0
 20 60  1  0  0  0
 20 61  1  0  0  0
 20 62  1  0  0  0
 21 22  1  0  0  0
 21 63  1  0  0  0
 22 23  2  0  0  0
 22 64  1  0  0  0
 23 65  1  0  0  0
 24 40  1  0  0  0
 24 25  1  0  0  0
 24 26  1  0  0  0
 25 66  1  0  0  0
 26 27  1  0  0  0
 26 67  1  0  0  0
 26 68  1  0  0  0
 27 28  1  0  0  0
 27 69  1  0  0  0
 27 80  1  0  0  0
 28 29  1  0  0  0
 28 70  1  0  0  0
 28 71  1  0  0  0
 29 34  1  0  0  0
 29 30  2  0  0  0
 30 31  1  0  0  0
 30 72  1  0  0  0
 31 32  2  0  0  0
 31 35  1  0  0  0
 32 33  1  0  0  0
 32 73  1  0  0  0
 33 34  2  0  0  0
 34 74  1  0  0  0
 35 37  1  0  0  0
 35 36  1  0  0  0
 35 75  1  0  0  0
 36 37  1  0  0  0
 36 76  1  0  0  0
 36 77  1  0  0  0
 37 78  1  0  0  0
 37 79  1  0  0  0
M  CHG  1  27   1
M  END
> <s_m_source_file>
BACE_87.smi

> <i_m_source_file_index>
1

> <i_lp_mmshare_version>
42013

> <i_f3d_flags>
0

> <s_epik_input>
W2NIXTFbY0hdW2NIXWMoW2NIXWMxMilbQ0gyXVtDSDJdW0NIMl1bQ0gyXVtDSDJdW0NIMl1DKD1PKU4oW0NIM10pW0NAQEhdKFtDSDNdKUMoPU8pW05IXVtDQEBIXShbQ0gyXTIpW0NASF0oW09IXSlbQ0gyXVtOSF1bQ0gyXWMzW2NIXWMoW2NIXW5bY0hdMylbQ0hdNFtDSDJdW0NIMl00

> <s_epik_cmdline>
J2VwaWtfcHl0aG9uJywgJy1waCcsICc3LjAnLCAnLXRuJywgJzgnLCAnLW1hJywgJzIwMCcsICctaW1hZScsICc8aW5maWxlLm1hZT4nLCAnLW9tYWUnLCAnPG91dGZpbGUubWFlPic=

> <r_epik_Ionization_Penalty>
  0.0520

> <r_epik_Ionization_Penalty_Charging>
  0.0463

> <r_epik_Ionization_Penalty_Neutral>
  0.0057

> <r_epik_State_Penalty>
  0.0403

> <r_epik_Charging_Adjusted_Penalty>
0.0866055

> <i_epik_Tot_Q>
1

> <i_epik_Tot_abs_Q>
1

> <s_lp_Force_Field>
OPLS_2005

> <r_lp_Energy>
33.6577

> <b_lp_Chiralities_Consistent>
1

> <s_lp_Variant>
BACE_87.smi:1-1

> <chiral flag>
1

> <version>
0

> <s_i_glide_gridfile>
second_dock_grid_2

> <i_i_glide_lignum>
176

> <i_i_glide_rotatable_bonds>
7

> <r_i_docking_score>
-2.51825

> <r_i_glide_ligand_efficiency>
-0.0680609

> <r_i_glide_ligand_efficiency_sa>
-0.226794

> <r_i_glide_ligand_efficiency_ln>
-0.54615

> <r_glide_XP_GScore>
-2.55855

> <r_i_glide_gscore>
-2.55855

> <r_i_glide_evdw>
-39.832

> <r_i_glide_ecoul>
-12.9562

> <r_i_glide_energy>
-52.7882

> <r_i_glide_einternal>
1.60947

> <r_i_glide_emodel>
-66.7198

> <r_glide_XP_HBond>
-1.43981

> <i_i_glide_confnum>
1

> <i_i_glide_posenum>
2

> <r_i_glide_eff_state_penalty>
0.0403

> <i_glide_XP_PoseRank>
1

$$$$
BACE_87.smi:1
                    3D
 Structure written by MMmdl.
 79 82  0  0  1  0            999 V2000
   23.0632   44.3310  -11.2236 C   0  0  0  0  0  0
   22.0219   43.9654  -10.1458 C   0  0  1  0  0  0
   22.0252   44.9282   -8.9373 C   0  0  0  0  0  0
   22.0288   46.1458   -9.1148 O   0  0  0  0  0  0
   22.0451   44.3796   -7.7125 N   0  0  0  0  0  0
   21.9474   45.1030   -6.4407 C   0  0  1  0  0  0
   20.8779   44.4067   -5.5687 C   0  0  0  0  0  0
   21.1814   42.9642   -5.2080 C   0  0  0  0  0  0
   20.8278   41.9272   -6.0921 C   0  0  0  0  0  0
   21.0743   40.5828   -5.7514 C   0  0  0  0  0  0
   20.6866   39.4804   -6.7152 C   0  0  0  0  0  0
   21.9146   38.8857   -7.4291 C   0  0  0  0  0  0
   21.6004   38.2484   -8.7944 C   0  0  0  0  0  0
   21.8027   39.1939   -9.9942 C   0  0  0  0  0  0
   20.8898   40.4298  -10.0096 C   0  0  0  0  0  0
   21.1407   41.3172  -11.2383 C   0  0  0  0  0  0
   20.2408   42.5613  -11.2412 C   0  0  0  0  0  0
   19.1118   42.4291  -11.7197 O   0  0  0  0  0  0
   20.6934   43.7596  -10.7772 N   0  0  0  0  0  0
   19.8334   44.9480  -10.9266 C   0  0  0  0  0  0
   21.6815   40.2733   -4.5163 C   0  0  0  0  0  0
   22.0270   41.3062   -3.6261 C   0  0  0  0  0  0
   21.7815   42.6496   -3.9695 C   0  0  0  0  0  0
   23.3506   45.2375   -5.7751 C   0  0  2  0  0  0
   23.2584   45.7511   -4.4522 O   0  0  0  0  0  0
   24.2709   46.1947   -6.5717 C   0  0  0  0  0  0
   25.5093   46.5115   -5.8633 N   0  0  0  0  0  0
   26.4443   45.3988   -5.7237 C   0  0  0  0  0  0
   27.6767   45.7296   -4.8997 C   0  0  0  0  0  0
   27.8376   46.9439   -4.1977 C   0  0  0  0  0  0
   29.0012   47.1517   -3.4359 C   0  0  0  0  0  0
   29.9646   46.1219   -3.4074 C   0  0  0  0  0  0
   29.8240   44.9525   -4.0703 N   0  0  0  0  0  0
   28.7137   44.7794   -4.8135 C   0  0  0  0  0  0
   29.2211   48.4309   -2.6870 C   0  0  0  0  0  0
   29.3128   48.4450   -1.1795 C   0  0  0  0  0  0
   28.1206   49.0645   -1.8624 C   0  0  0  0  0  0
   22.3563   43.0200   -9.7171 H   0  0  0  0  0  0
   21.5721   46.1111   -6.6246 H   0  0  0  0  0  0
   23.8085   44.2506   -5.7098 H   0  0  0  0  0  0
   23.1300   43.5661  -11.9973 H   0  0  0  0  0  0
   24.0574   44.4455  -10.7892 H   0  0  0  0  0  0
   22.8104   45.2716  -11.7172 H   0  0  0  0  0  0
   22.0620   43.3730   -7.6474 H   0  0  0  0  0  0
   20.7095   44.9719   -4.6557 H   0  0  0  0  0  0
   19.9199   44.4298   -6.0925 H   0  0  0  0  0  0
   20.3443   42.1597   -7.0299 H   0  0  0  0  0  0
   19.9677   39.8756   -7.4352 H   0  0  0  0  0  0
   20.1527   38.6937   -6.1805 H   0  0  0  0  0  0
   22.6813   39.6542   -7.5701 H   0  0  0  0  0  0
   22.3567   38.1513   -6.7603 H   0  0  0  0  0  0
   20.5903   37.8333   -8.8025 H   0  0  0  0  0  0
   22.2688   37.3998   -8.9389 H   0  0  0  0  0  0
   21.6353   38.6267  -10.9053 H   0  0  0  0  0  0
   22.8467   39.5121  -10.0259 H   0  0  0  0  0  0
   19.8441   40.1123   -9.9912 H   0  0  0  0  0  0
   21.0524   41.0232   -9.1093 H   0  0  0  0  0  0
   20.9141   40.7432  -12.1387 H   0  0  0  0  0  0
   22.1955   41.5694  -11.3290 H   0  0  0  0  0  0
   19.1344   44.8754  -11.7606 H   0  0  0  0  0  0
   20.4280   45.8390  -11.1205 H   0  0  0  0  0  0
   19.2570   45.1125  -10.0177 H   0  0  0  0  0  0
   21.8751   39.2471   -4.2440 H   0  0  0  0  0  0
   22.4687   41.0693   -2.6725 H   0  0  0  0  0  0
   22.0397   43.4362   -3.2770 H   0  0  0  0  0  0
   23.9728   45.3674   -3.9552 H   0  0  0  0  0  0
   23.7335   47.1248   -6.7553 H   0  0  0  0  0  0
   24.4958   45.7767   -7.5547 H   0  0  0  0  0  0
   25.2530   46.8337   -4.9364 H   0  0  0  0  0  0
   26.7674   45.0575   -6.7112 H   0  0  0  0  0  0
   25.9576   44.5512   -5.2402 H   0  0  0  0  0  0
   27.0823   47.7165   -4.2348 H   0  0  0  0  0  0
   30.8743   46.2395   -2.8406 H   0  0  0  0  0  0
   28.6286   43.8357   -5.3296 H   0  0  0  0  0  0
   29.8905   49.0915   -3.2339 H   0  0  0  0  0  0
   30.0362   49.1192   -0.7262 H   0  0  0  0  0  0
   29.1448   47.5090   -0.6511 H   0  0  0  0  0  0
   27.1726   48.5381   -1.7668 H   0  0  0  0  0  0
   28.0601   50.1471   -1.8445 H   0  0  0  0  0  0
  1  2  1  0  0  0
  1 41  1  0  0  0
  1 42  1  0  0  0
  1 43  1  0  0  0
  2 38  1  0  0  0
  2 19  1  0  0  0
  2  3  1  0  0  0
  3  4  2  0  0  0
  3  5  1  0  0  0
  5  6  1  0  0  0
  5 44  1  0  0  0
  6 39  1  0  0  0
  6  7  1  0  0  0
  6 24  1  0  0  0
  7  8  1  0  0  0
  7 45  1  0  0  0
  7 46  1  0  0  0
  8 23  1  0  0  0
  8  9  2  0  0  0
  9 10  1  0  0  0
  9 47  1  0  0  0
 10 11  1  0  0  0
 10 21  2  0  0  0
 11 12  1  0  0  0
 11 48  1  0  0  0
 11 49  1  0  0  0
 12 13  1  0  0  0
 12 50  1  0  0  0
 12 51  1  0  0  0
 13 14  1  0  0  0
 13 52  1  0  0  0
 13 53  1  0  0  0
 14 15  1  0  0  0
 14 54  1  0  0  0
 14 55  1  0  0  0
 15 16  1  0  0  0
 15 56  1  0  0  0
 15 57  1  0  0  0
 16 17  1  0  0  0
 16 58  1  0  0  0
 16 59  1  0  0  0
 17 18  2  0  0  0
 17 19  1  0  0  0
 19 20  1  0  0  0
 20 60  1  0  0  0
 20 61  1  0  0  0
 20 62  1  0  0  0
 21 22  1  0  0  0
 21 63  1  0  0  0
 22 23  2  0  0  0
 22 64  1  0  0  0
 23 65  1  0  0  0
 24 40  1  0  0  0
 24 25  1  0  0  0
 24 26  1  0  0  0
 25 66  1  0  0  0
 26 27  1  0  0  0
 26 67  1  0  0  0
 26 68  1  0  0  0
 27 28  1  0  0  0
 27 69  1  0  0  0
 28 29  1  0  0  0
 28 70  1  0  0  0
 28 71  1  0  0  0
 29 34  1  0  0  0
 29 30  2  0  0  0
 30 31  1  0  0  0
 30 72  1  0  0  0
 31 32  2  0  0  0
 31 35  1  0  0  0
 32 33  1  0  0  0
 32 73  1  0  0  0
 33 34  2  0  0  0
 34 74  1  0  0  0
 35 37  1  0  0  0
 35 36  1  0  0  0
 35 75  1  0  0  0
 36 37  1  0  0  0
 36 76  1  0  0  0
 36 77  1  0  0  0
 37 78  1  0  0  0
 37 79  1  0  0  0
M  END
> <s_m_source_file>
BACE_87.smi

> <i_m_source_file_index>
1

> <i_lp_mmshare_version>
42013

> <i_f3d_flags>
0

> <s_epik_input>
W2NIXTFbY0hdW2NIXWMoW2NIXWMxMilbQ0gyXVtDSDJdW0NIMl1bQ0gyXVtDSDJdW0NIMl1DKD1PKU4oW0NIM10pW0NAQEhdKFtDSDNdKUMoPU8pW05IXVtDQEBIXShbQ0gyXTIpW0NASF0oW09IXSlbQ0gyXVtOSF1bQ0gyXWMzW2NIXWMoW2NIXW5bY0hdMylbQ0hdNFtDSDJdW0NIMl00

> <s_epik_cmdline>
J2VwaWtfcHl0aG9uJywgJy1waCcsICc3LjAnLCAnLXRuJywgJzgnLCAnLW1hJywgJzIwMCcsICctaW1hZScsICc8aW5maWxlLm1hZT4nLCAnLW9tYWUnLCAnPG91dGZpbGUubWFlPic=

> <r_epik_Ionization_Penalty>
  1.5533

> <r_epik_Ionization_Penalty_Charging>
  0.0000

> <r_epik_Ionization_Penalty_Neutral>
  1.5533

> <r_epik_State_Penalty>
  1.6276

> <r_epik_Charging_Adjusted_Penalty>
1.62764

> <i_epik_Tot_Q>
0

> <i_epik_Tot_abs_Q>
0

> <s_lp_Force_Field>
OPLS_2005

> <r_lp_Energy>
40.8013

> <b_lp_Chiralities_Consistent>
1

> <s_lp_Variant>
BACE_87.smi:1-2

> <chiral flag>
1

> <version>
0

> <s_i_glide_gridfile>
second_dock_grid_2

> <i_i_glide_lignum>
177

> <i_i_glide_rotatable_bonds>
7

> <r_i_docking_score>
-2.90531

> <r_i_glide_ligand_efficiency>
-0.0785218

> <r_i_glide_ligand_efficiency_sa>
-0.261652

> <r_i_glide_ligand_efficiency_ln>
-0.630093

> <r_glide_XP_GScore>
-4.53291

> <r_i_glide_gscore>
-4.53291

> <r_i_glide_evdw>
-37.2053

> <r_i_glide_ecoul>
-9.56344

> <r_i_glide_energy>
-46.7687

> <r_i_glide_einternal>
8.89562

> <r_i_glide_emodel>
-60.7656

> <r_glide_XP_HBond>
-1.6196

> <i_i_glide_confnum>
1

> <i_i_glide_posenum>
1

> <r_i_glide_eff_state_penalty>
1.6276

> <i_glide_XP_PoseRank>
1

$$$$
BACE_88.smi:1
                    3D
 Structure written by MMmdl.
 80 83  0  0  1  0            999 V2000
   16.6564   39.2678   -9.4079 C   0  0  0  0  0  0
   17.7367   38.2177   -9.7123 C   0  0  0  0  0  0
   17.3335   36.8252   -9.2023 C   0  0  0  0  0  0
   19.0992   38.6375   -9.1750 C   0  0  0  0  0  0
   19.2559   39.0050   -7.8205 C   0  0  0  0  0  0
   20.5192   39.3873   -7.3237 C   0  0  0  0  0  0
   20.6746   39.7648   -5.8619 C   0  0  0  0  0  0
   20.7436   41.2294   -5.6768 N   0  3  0  0  0  0
   20.1242   42.0252   -6.7579 C   0  0  0  0  0  0
   19.7856   43.4472   -6.2770 C   0  0  1  0  0  0
   21.0000   44.1415   -6.0596 O   0  0  0  0  0  0
   18.9025   44.2245   -7.2857 C   0  0  2  0  0  0
   18.6899   43.5150   -8.6428 C   0  0  0  0  0  0
   17.7376   44.2615   -9.5632 C   0  0  0  0  0  0
   18.2315   45.0999  -10.5864 C   0  0  0  0  0  0
   17.3441   45.7806  -11.4490 C   0  0  0  0  0  0
   17.9057   46.6618  -12.5584 C   0  0  0  0  0  0
   17.9620   48.1385  -12.1871 C   0  0  0  0  0  0
   16.8562   48.9620  -12.4903 C   0  0  0  0  0  0
   16.8693   50.3282  -12.1605 C   0  0  0  0  0  0
   17.9955   50.8824  -11.5299 C   0  0  0  0  0  0
   19.1073   50.0725  -11.2349 C   0  0  0  0  0  0
   19.1072   48.6910  -11.5602 C   0  0  0  0  0  0
   20.1660   47.8424  -11.2926 O   0  0  0  0  0  0
   21.3692   48.3583  -10.7177 C   0  0  0  0  0  0
   21.2439   48.5302   -9.1971 C   0  0  0  0  0  0
   22.0951   49.1722   -8.5835 O   0  0  0  0  0  0
   20.1892   47.9491   -8.6057 N   0  0  0  0  0  0
   19.8657   47.9678   -7.1792 C   0  0  1  0  0  0
   19.0317   49.2151   -6.8385 C   0  0  0  0  0  0
   19.2546   46.6369   -6.7071 C   0  0  0  0  0  0
   18.6430   46.5799   -5.6404 O   0  0  0  0  0  0
   19.4275   45.5689   -7.5034 N   0  0  0  0  0  0
   15.9480   45.6126  -11.2797 C   0  0  0  0  0  0
   15.0550   46.2344  -12.1043 O   0  0  0  0  0  0
   15.4561   44.7859  -10.2509 C   0  0  0  0  0  0
   16.3467   44.1124   -9.3957 C   0  0  0  0  0  0
   21.6334   39.4067   -8.1882 C   0  0  0  0  0  0
   21.4838   39.0408   -9.5390 C   0  0  0  0  0  0
   20.2216   38.6571  -10.0309 C   0  0  0  0  0  0
   19.2602   43.3711   -5.3237 H   0  0  0  0  0  0
   17.9163   44.3395   -6.8314 H   0  0  0  0  0  0
   20.8022   48.0481   -6.6245 H   0  0  0  0  0  0
   16.9294   40.2406   -9.8177 H   0  0  0  0  0  0
   16.5009   39.3889   -8.3357 H   0  0  0  0  0  0
   15.7003   38.9831   -9.8482 H   0  0  0  0  0  0
   17.8165   38.1494  -10.7981 H   0  0  0  0  0  0
   18.0788   36.0775   -9.4752 H   0  0  0  0  0  0
   16.3818   36.5116   -9.6321 H   0  0  0  0  0  0
   17.2258   36.8085   -8.1177 H   0  0  0  0  0  0
   18.4043   38.9894   -7.1559 H   0  0  0  0  0  0
   19.8581   39.3505   -5.2685 H   0  0  0  0  0  0
   21.5954   39.3229   -5.4799 H   0  0  0  0  0  0
   20.2747   41.4613   -4.8129 H   0  0  0  0  0  0
   20.7860   42.0655   -7.6234 H   0  0  0  0  0  0
   19.2146   41.5138   -7.0752 H   0  0  0  0  0  0
   21.5155   43.6624   -5.4284 H   0  0  0  0  0  0
   19.6422   43.3839   -9.1583 H   0  0  0  0  0  0
   18.2908   42.5125   -8.4874 H   0  0  0  0  0  0
   19.2981   45.2180  -10.7132 H   0  0  0  0  0  0
   18.9004   46.3107  -12.8352 H   0  0  0  0  0  0
   17.3024   46.5390  -13.4586 H   0  0  0  0  0  0
   15.9879   48.5478  -12.9802 H   0  0  0  0  0  0
   16.0162   50.9491  -12.3915 H   0  0  0  0  0  0
   18.0088   51.9315  -11.2734 H   0  0  0  0  0  0
   19.9485   50.5408  -10.7485 H   0  0  0  0  0  0
   22.1588   47.6297  -10.9024 H   0  0  0  0  0  0
   21.6955   49.2809  -11.1991 H   0  0  0  0  0  0
   19.5405   47.4575   -9.2037 H   0  0  0  0  0  0
   18.8214   49.2771   -5.7703 H   0  0  0  0  0  0
   18.0777   49.2084   -7.3669 H   0  0  0  0  0  0
   19.5584   50.1284   -7.1174 H   0  0  0  0  0  0
   19.9563   45.7092   -8.3523 H   0  0  0  0  0  0
   15.4666   46.8110  -12.7299 H   0  0  0  0  0  0
   14.3912   44.6604  -10.1186 H   0  0  0  0  0  0
   15.9583   43.4769   -8.6132 H   0  0  0  0  0  0
   22.6064   39.6964   -7.8183 H   0  0  0  0  0  0
   22.3384   39.0534  -10.1994 H   0  0  0  0  0  0
   20.1207   38.3779  -11.0697 H   0  0  0  0  0  0
   21.7142   41.4976   -5.5960 H   0  0  0  0  0  0
  1  2  1  0  0  0
  1 44  1  0  0  0
  1 45  1  0  0  0
  1 46  1  0  0  0
  2  3  1  0  0  0
  2  4  1  0  0  0
  2 47  1  0  0  0
  3 48  1  0  0  0
  3 49  1  0  0  0
  3 50  1  0  0  0
  4 40  1  0  0  0
  4  5  2  0  0  0
  5  6  1  0  0  0
  5 51  1  0  0  0
  6  7  1  0  0  0
  6 38  2  0  0  0
  7  8  1  0  0  0
  7 52  1  0  0  0
  7 53  1  0  0  0
  8  9  1  0  0  0
  8 54  1  0  0  0
  8 80  1  0  0  0
  9 10  1  0  0  0
  9 55  1  0  0  0
  9 56  1  0  0  0
 10 41  1  0  0  0
 10 11  1  0  0  0
 10 12  1  0  0  0
 11 57  1  0  0  0
 12 42  1  0  0  0
 12 33  1  0  0  0
 12 13  1  0  0  0
 13 14  1  0  0  0
 13 58  1  0  0  0
 13 59  1  0  0  0
 14 37  1  0  0  0
 14 15  2  0  0  0
 15 16  1  0  0  0
 15 60  1  0  0  0
 16 17  1  0  0  0
 16 34  2  0  0  0
 17 18  1  0  0  0
 17 61  1  0  0  0
 17 62  1  0  0  0
 18 23  2  0  0  0
 18 19  1  0  0  0
 19 20  2  0  0  0
 19 63  1  0  0  0
 20 21  1  0  0  0
 20 64  1  0  0  0
 21 22  2  0  0  0
 21 65  1  0  0  0
 22 23  1  0  0  0
 22 66  1  0  0  0
 23 24  1  0  0  0
 24 25  1  0  0  0
 25 26  1  0  0  0
 25 67  1  0  0  0
 25 68  1  0  0  0
 26 27  2  0  0  0
 26 28  1  0  0  0
 28 29  1  0  0  0
 28 69  1  0  0  0
 29 43  1  0  0  0
 29 30  1  0  0  0
 29 31  1  0  0  0
 30 70  1  0  0  0
 30 71  1  0  0  0
 30 72  1  0  0  0
 31 32  2  0  0  0
 31 33  1  0  0  0
 33 73  1  0  0  0
 34 35  1  0  0  0
 34 36  1  0  0  0
 35 74  1  0  0  0
 36 37  2  0  0  0
 36 75  1  0  0  0
 37 76  1  0  0  0
 38 39  1  0  0  0
 38 77  1  0  0  0
 39 40  2  0  0  0
 39 78  1  0  0  0
 40 79  1  0  0  0
M  CHG  1   8   1
M  END
> <s_m_source_file>
BACE_88.smi

> <i_m_source_file_index>
1

> <i_lp_mmshare_version>
42013

> <i_f3d_flags>
0

> <s_epik_input>
W0NIM11bQ0hdKFtDSDNdKWMxW2NIXWMoW2NIXVtjSF1bY0hdMSlbQ0gyXVtOSF1bQ0gyXVtDQEBIXShbT0hdKVtDQEhdKFtDSDJdMilbTkhdQyg9TylbQ0BIXShbQ0gzXSlbTkhdQyg9TylbQ0gyXU9jKFtjSF1bY0hdW2NIXVtjSF0zKWMzW0NIMl1jKFtjSF1jMjQpYyhbT0hdKVtjSF1bY0hdNA==

> <s_epik_cmdline>
J2VwaWtfcHl0aG9uJywgJy1waCcsICc3LjAnLCAnLXRuJywgJzgnLCAnLW1hJywgJzIwMCcsICctaW1hZScsICc8aW5maWxlLm1hZT4nLCAnLW9tYWUnLCAnPG91dGZpbGUubWFlPic=

> <r_lp_tautomer_probability>
1

> <r_epik_Ionization_Penalty>
  0.0215

> <r_epik_Ionization_Penalty_Charging>
  0.0213

> <r_epik_Ionization_Penalty_Neutral>
  0.0002

> <r_epik_State_Penalty>
  0.0171

> <r_epik_Charging_Adjusted_Penalty>
0.0383577

> <i_epik_Tot_Q>
1

> <i_epik_Tot_abs_Q>
1

> <s_lp_Force_Field>
OPLS_2005

> <r_lp_Energy>
25.7468

> <b_lp_Chiralities_Consistent>
1

> <s_lp_Variant>
BACE_88.smi:1-1

> <chiral flag>
1

> <version>
0

> <s_i_glide_gridfile>
second_dock_grid_2

> <i_i_glide_lignum>
178

> <i_i_glide_rotatable_bonds>
8

> <r_i_docking_score>
-5.25592

> <r_i_glide_ligand_efficiency>
-0.131398

> <r_i_glide_ligand_efficiency_sa>
-0.449375

> <r_i_glide_ligand_efficiency_ln>
-1.12093

> <r_glide_XP_GScore>
-5.27302

> <r_i_glide_gscore>
-5.27302

> <r_i_glide_evdw>
-35.2605

> <r_i_glide_ecoul>
-9.99828

> <r_i_glide_energy>
-45.2588

> <r_i_glide_einternal>
2.41505

> <r_i_glide_emodel>
-63.0225

> <r_glide_XP_HBond>
-1.11608

> <i_i_glide_confnum>
1

> <i_i_glide_posenum>
12

> <r_i_glide_eff_state_penalty>
0.0171

> <i_glide_XP_PoseRank>
1

$$$$
BACE_88.smi:1
                    3D
 Structure written by MMmdl.
 79 82  0  0  1  0            999 V2000
   20.3260   40.0504   -5.9484 C   0  0  0  0  0  0
   20.4992   38.9293   -6.9860 C   0  0  0  0  0  0
   21.7090   39.2269   -7.8931 C   0  0  0  0  0  0
   19.2186   38.5631   -7.7506 C   0  0  0  0  0  0
   17.9217   38.9463   -7.3154 C   0  0  0  0  0  0
   16.7688   38.5197   -8.0240 C   0  0  0  0  0  0
   15.3786   38.9948   -7.6191 C   0  0  0  0  0  0
   14.5618   39.3576   -8.7747 N   0  0  0  0  0  0
   14.8148   40.6786   -9.3445 C   0  0  0  0  0  0
   15.2241   40.5586  -10.8290 C   0  0  1  0  0  0
   14.1260   40.9485  -11.6337 O   0  0  0  0  0  0
   16.5355   41.2996  -11.2296 C   0  0  2  0  0  0
   17.7551   40.4661  -10.7928 C   0  0  0  0  0  0
   19.1379   41.0694  -10.9726 C   0  0  0  0  0  0
   19.7354   41.8137   -9.9316 C   0  0  0  0  0  0
   21.0854   42.2178  -10.0187 C   0  0  0  0  0  0
   21.7321   42.9130   -8.8294 C   0  0  0  0  0  0
   21.6882   44.4297   -8.9154 C   0  0  0  0  0  0
   22.6950   45.1009   -9.6433 C   0  0  0  0  0  0
   22.6984   46.5042   -9.7306 C   0  0  0  0  0  0
   21.6938   47.2441   -9.0862 C   0  0  0  0  0  0
   20.6828   46.5804   -8.3654 C   0  0  0  0  0  0
   20.6637   45.1646   -8.2743 C   0  0  0  0  0  0
   19.6844   44.4502   -7.6055 O   0  0  0  0  0  0
   18.5389   45.1189   -7.0737 C   0  0  0  0  0  0
   17.5817   45.5597   -8.1873 C   0  0  0  0  0  0
   16.8572   46.5368   -8.0253 O   0  0  0  0  0  0
   17.6092   44.8373   -9.3154 N   0  0  0  0  0  0
   16.8312   45.0882  -10.5227 C   0  0  1  0  0  0
   17.5482   46.1312  -11.3936 C   0  0  0  0  0  0
   16.4815   43.7910  -11.2723 C   0  0  0  0  0  0
   16.1031   43.8489  -12.4393 O   0  0  0  0  0  0
   16.6274   42.6273  -10.6250 N   0  0  0  0  0  0
   21.8437   41.8672  -11.1595 C   0  0  0  0  0  0
   23.1779   42.1499  -11.2393 O   0  0  0  0  0  0
   21.2365   41.1585  -12.2126 C   0  0  0  0  0  0
   19.8901   40.7641  -12.1229 C   0  0  0  0  0  0
   16.9139   37.6566   -9.1318 C   0  0  0  0  0  0
   18.1890   37.2921   -9.5774 C   0  0  0  0  0  0
   19.3279   37.7513   -8.9005 C   0  0  0  0  0  0
   15.3722   39.5084  -11.0742 H   0  0  0  0  0  0
   16.5910   41.3711  -12.3153 H   0  0  0  0  0  0
   15.8746   45.5163  -10.2249 H   0  0  0  0  0  0
   19.6387   39.7497   -5.1563 H   0  0  0  0  0  0
   19.9475   40.9668   -6.4038 H   0  0  0  0  0  0
   21.2717   40.2962   -5.4632 H   0  0  0  0  0  0
   20.7535   38.0233   -6.4408 H   0  0  0  0  0  0
   22.0437   38.3529   -8.4489 H   0  0  0  0  0  0
   22.5710   39.5556   -7.3121 H   0  0  0  0  0  0
   21.4766   40.0051   -8.6130 H   0  0  0  0  0  0
   17.7904   39.5697   -6.4424 H   0  0  0  0  0  0
   14.8892   38.1792   -7.0966 H   0  0  0  0  0  0
   15.4368   39.8187   -6.9096 H   0  0  0  0  0  0
   13.5608   39.1612   -8.6406 H   0  0  0  0  0  0
   13.9397   41.3186   -9.2324 H   0  0  0  0  0  0
   15.6083   41.1709   -8.7774 H   0  0  0  0  0  0
   13.3480   40.5600  -11.2391 H   0  0  0  0  0  0
   17.6564   40.2617   -9.7312 H   0  0  0  0  0  0
   17.7355   39.4985  -11.2927 H   0  0  0  0  0  0
   19.1813   42.0102   -9.0247 H   0  0  0  0  0  0
   21.2570   42.5667   -7.9127 H   0  0  0  0  0  0
   22.7710   42.5929   -8.7391 H   0  0  0  0  0  0
   23.4736   44.5427  -10.1385 H   0  0  0  0  0  0
   23.4737   47.0087  -10.2887 H   0  0  0  0  0  0
   21.6854   48.3205   -9.1489 H   0  0  0  0  0  0
   19.9291   47.1940   -7.8972 H   0  0  0  0  0  0
   18.0051   44.4036   -6.4500 H   0  0  0  0  0  0
   18.8101   45.9526   -6.4269 H   0  0  0  0  0  0
   18.2889   44.0894   -9.3532 H   0  0  0  0  0  0
   16.9641   46.3725  -12.2724 H   0  0  0  0  0  0
   18.5108   45.7559  -11.7292 H   0  0  0  0  0  0
   17.7222   47.0645  -10.8546 H   0  0  0  0  0  0
   16.8870   42.6624   -9.6502 H   0  0  0  0  0  0
   23.6167   41.6482  -11.9224 H   0  0  0  0  0  0
   21.8145   40.8718  -13.0788 H   0  0  0  0  0  0
   19.4544   40.1730  -12.9165 H   0  0  0  0  0  0
   16.0467   37.2970   -9.6701 H   0  0  0  0  0  0
   18.3037   36.6560  -10.4374 H   0  0  0  0  0  0
   20.2914   37.4318   -9.2622 H   0  0  0  0  0  0
  1  2  1  0  0  0
  1 44  1  0  0  0
  1 45  1  0  0  0
  1 46  1  0  0  0
  2  3  1  0  0  0
  2  4  1  0  0  0
  2 47  1  0  0  0
  3 48  1  0  0  0
  3 49  1  0  0  0
  3 50  1  0  0  0
  4 40  1  0  0  0
  4  5  2  0  0  0
  5  6  1  0  0  0
  5 51  1  0  0  0
  6  7  1  0  0  0
  6 38  2  0  0  0
  7  8  1  0  0  0
  7 52  1  0  0  0
  7 53  1  0  0  0
  8  9  1  0  0  0
  8 54  1  0  0  0
  9 10  1  0  0  0
  9 55  1  0  0  0
  9 56  1  0  0  0
 10 41  1  0  0  0
 10 11  1  0  0  0
 10 12  1  0  0  0
 11 57  1  0  0  0
 12 42  1  0  0  0
 12 33  1  0  0  0
 12 13  1  0  0  0
 13 14  1  0  0  0
 13 58  1  0  0  0
 13 59  1  0  0  0
 14 37  1  0  0  0
 14 15  2  0  0  0
 15 16  1  0  0  0
 15 60  1  0  0  0
 16 17  1  0  0  0
 16 34  2  0  0  0
 17 18  1  0  0  0
 17 61  1  0  0  0
 17 62  1  0  0  0
 18 23  2  0  0  0
 18 19  1  0  0  0
 19 20  2  0  0  0
 19 63  1  0  0  0
 20 21  1  0  0  0
 20 64  1  0  0  0
 21 22  2  0  0  0
 21 65  1  0  0  0
 22 23  1  0  0  0
 22 66  1  0  0  0
 23 24  1  0  0  0
 24 25  1  0  0  0
 25 26  1  0  0  0
 25 67  1  0  0  0
 25 68  1  0  0  0
 26 27  2  0  0  0
 26 28  1  0  0  0
 28 29  1  0  0  0
 28 69  1  0  0  0
 29 43  1  0  0  0
 29 30  1  0  0  0
 29 31  1  0  0  0
 30 70  1  0  0  0
 30 71  1  0  0  0
 30 72  1  0  0  0
 31 32  2  0  0  0
 31 33  1  0  0  0
 33 73  1  0  0  0
 34 35  1  0  0  0
 34 36  1  0  0  0
 35 74  1  0  0  0
 36 37  2  0  0  0
 36 75  1  0  0  0
 37 76  1  0  0  0
 38 39  1  0  0  0
 38 77  1  0  0  0
 39 40  2  0  0  0
 39 78  1  0  0  0
 40 79  1  0  0  0
M  END
> <s_m_source_file>
BACE_88.smi

> <i_m_source_file_index>
1

> <i_lp_mmshare_version>
42013

> <i_f3d_flags>
0

> <s_epik_input>
W0NIM11bQ0hdKFtDSDNdKWMxW2NIXWMoW2NIXVtjSF1bY0hdMSlbQ0gyXVtOSF1bQ0gyXVtDQEBIXShbT0hdKVtDQEhdKFtDSDJdMilbTkhdQyg9TylbQ0BIXShbQ0gzXSlbTkhdQyg9TylbQ0gyXU9jKFtjSF1bY0hdW2NIXVtjSF0zKWMzW0NIMl1jKFtjSF1jMjQpYyhbT0hdKVtjSF1bY0hdNA==

> <s_epik_cmdline>
J2VwaWtfcHl0aG9uJywgJy1waCcsICc3LjAnLCAnLXRuJywgJzgnLCAnLW1hJywgJzIwMCcsICctaW1hZScsICc8aW5maWxlLm1hZT4nLCAnLW9tYWUnLCAnPG91dGZpbGUubWFlPic=

> <r_lp_tautomer_probability>
1

> <r_epik_Ionization_Penalty>
  1.9821

> <r_epik_Ionization_Penalty_Charging>
  0.0000

> <r_epik_Ionization_Penalty_Neutral>
  1.9821

> <r_epik_State_Penalty>
  2.1093

> <r_epik_Charging_Adjusted_Penalty>
2.1093

> <i_epik_Tot_Q>
0

> <i_epik_Tot_abs_Q>
0

> <s_lp_Force_Field>
OPLS_2005

> <r_lp_Energy>
31.8003

> <b_lp_Chiralities_Consistent>
1

> <s_lp_Variant>
BACE_88.smi:1-2

> <chiral flag>
1

> <version>
0

> <s_i_glide_gridfile>
second_dock_grid_2

> <i_i_glide_lignum>
179

> <i_i_glide_rotatable_bonds>
8

> <r_i_docking_score>
-3.9126

> <r_i_glide_ligand_efficiency>
-0.0978151

> <r_i_glide_ligand_efficiency_sa>
-0.334523

> <r_i_glide_ligand_efficiency_ln>
-0.834443

> <r_glide_XP_GScore>
-6.0219

> <r_i_glide_gscore>
-6.0219

> <r_i_glide_evdw>
-35.6079

> <r_i_glide_ecoul>
-24.823

> <r_i_glide_energy>
-60.4309

> <r_i_glide_einternal>
7.3975

> <r_i_glide_emodel>
-70.7532

> <r_glide_XP_HBond>
-1.64902

> <i_i_glide_confnum>
1

> <i_i_glide_posenum>
42

> <r_i_glide_eff_state_penalty>
2.1093

> <i_glide_XP_PoseRank>
1

$$$$
BACE_89.smi:1
                    3D
 Structure written by MMmdl.
 80 83  0  0  1  0            999 V2000
   15.5165   45.4883   -8.1906 C   0  0  0  0  0  0
   16.3977   44.2387   -8.1090 C   0  0  0  0  0  0
   17.7725   44.5071   -8.7198 C   0  0  0  0  0  0
   15.7253   43.0078   -8.7047 C   0  0  0  0  0  0
   15.4562   41.8919   -7.8843 C   0  0  0  0  0  0
   14.8600   40.7275   -8.4041 C   0  0  0  0  0  0
   14.5910   39.5220   -7.4978 C   0  0  0  0  0  0
   15.8098   38.9706   -6.8590 N   0  3  0  0  0  0
   17.0606   39.2105   -7.6200 C   0  0  0  0  0  0
   18.1354   38.1591   -7.3925 C   0  0  1  0  0  0
   17.6782   36.9785   -8.0400 O   0  0  0  0  0  0
   19.5484   38.6289   -7.8778 C   0  0  2  0  0  0
   20.2991   39.4032   -6.7602 C   0  0  0  0  0  0
   21.4323   40.2990   -7.2503 C   0  0  0  0  0  0
   21.3563   41.7002   -7.0856 C   0  0  0  0  0  0
   22.3883   42.5401   -7.5518 C   0  0  0  0  0  0
   23.5189   41.9562   -8.1723 C   0  0  0  0  0  0
   23.5928   40.5667   -8.3533 C   0  0  0  0  0  0
   22.5551   39.7356   -7.8910 C   0  0  0  0  0  0
   22.2296   43.8987   -7.3791 O   0  0  0  0  0  0
   23.1122   44.7589   -8.0904 C   0  0  0  0  0  0
   22.5145   46.1665   -8.1678 C   0  0  0  0  0  0
   21.1091   46.2232   -8.7931 C   0  0  0  0  0  0
   20.9733   45.5375  -10.1647 C   0  0  0  0  0  0
   20.6619   44.1593   -9.9939 O   0  0  0  0  0  0
   20.6162   43.4345  -11.2155 C   0  0  1  0  0  0
   21.9666   42.7755  -11.5352 C   0  0  0  0  0  0
   21.6609   41.2978  -11.8198 C   0  0  0  0  0  0
   20.2874   41.0992  -11.3941 N   0  0  0  0  0  0
   19.6359   39.8054  -11.5847 C   0  0  0  0  0  0
   19.4484   38.9357  -10.3351 C   0  0  0  0  0  0
   19.2600   37.7412  -10.4978 O   0  0  0  0  0  0
   19.5252   39.4529   -9.1024 N   0  0  0  0  0  0
   19.6721   42.2448  -11.0878 C   0  0  0  0  0  0
   18.4807   42.3539  -10.7999 O   0  0  0  0  0  0
   14.5157   40.6836   -9.7717 C   0  0  0  0  0  0
   14.7703   41.7956  -10.5985 C   0  0  0  0  0  0
   15.3745   42.9536  -10.0689 C   0  0  0  0  0  0
   18.2041   37.9233   -6.3291 H   0  0  0  0  0  0
   20.1608   37.7498   -8.0865 H   0  0  0  0  0  0
   20.2599   44.0537  -12.0398 H   0  0  0  0  0  0
   14.5898   45.3536   -7.6318 H   0  0  0  0  0  0
   15.2625   45.7359   -9.2203 H   0  0  0  0  0  0
   16.0570   46.3385   -7.7686 H   0  0  0  0  0  0
   16.5790   44.0413   -7.0523 H   0  0  0  0  0  0
   18.4424   43.6650   -8.5475 H   0  0  0  0  0  0
   18.2235   45.3876   -8.2636 H   0  0  0  0  0  0
   17.7123   44.6867   -9.7924 H   0  0  0  0  0  0
   15.7217   41.9211   -6.8393 H   0  0  0  0  0  0
   13.8753   39.7691   -6.7150 H   0  0  0  0  0  0
   14.1317   38.7270   -8.0890 H   0  0  0  0  0  0
   15.8917   39.4059   -5.9479 H   0  0  0  0  0  0
   16.8650   39.2395   -8.6921 H   0  0  0  0  0  0
   17.4461   40.1887   -7.3328 H   0  0  0  0  0  0
   17.0665   36.5503   -7.4402 H   0  0  0  0  0  0
   19.5968   40.0241   -6.2033 H   0  0  0  0  0  0
   20.7053   38.6944   -6.0406 H   0  0  0  0  0  0
   20.4951   42.1435   -6.6088 H   0  0  0  0  0  0
   24.3465   42.5506   -8.5292 H   0  0  0  0  0  0
   24.4614   40.1491   -8.8399 H   0  0  0  0  0  0
   22.6186   38.6664   -8.0401 H   0  0  0  0  0  0
   24.0770   44.7885   -7.5833 H   0  0  0  0  0  0
   23.2884   44.4091   -9.1074 H   0  0  0  0  0  0
   22.4734   46.5936   -7.1658 H   0  0  0  0  0  0
   23.1888   46.8022   -8.7406 H   0  0  0  0  0  0
   20.3911   45.7926   -8.0961 H   0  0  0  0  0  0
   20.8315   47.2721   -8.8951 H   0  0  0  0  0  0
   20.1549   46.0013  -10.7162 H   0  0  0  0  0  0
   21.8798   45.6736  -10.7580 H   0  0  0  0  0  0
   22.4648   43.2508  -12.3804 H   0  0  0  0  0  0
   22.6414   42.8489  -10.6832 H   0  0  0  0  0  0
   21.7354   41.0834  -12.8891 H   0  0  0  0  0  0
   22.3430   40.6316  -11.2866 H   0  0  0  0  0  0
   18.6559   39.9549  -12.0396 H   0  0  0  0  0  0
   20.2132   39.2289  -12.3093 H   0  0  0  0  0  0
   19.7058   40.4427   -9.0032 H   0  0  0  0  0  0
   14.0449   39.8039  -10.1862 H   0  0  0  0  0  0
   14.5008   41.7603  -11.6396 H   0  0  0  0  0  0
   15.5788   43.7944  -10.7147 H   0  0  0  0  0  0
   15.6651   37.9770   -6.6811 H   0  0  0  0  0  0
  1  2  1  0  0  0
  1 42  1  0  0  0
  1 43  1  0  0  0
  1 44  1  0  0  0
  2  3  1  0  0  0
  2  4  1  0  0  0
  2 45  1  0  0  0
  3 46  1  0  0  0
  3 47  1  0  0  0
  3 48  1  0  0  0
  4 38  1  0  0  0
  4  5  2  0  0  0
  5  6  1  0  0  0
  5 49  1  0  0  0
  6  7  1  0  0  0
  6 36  2  0  0  0
  7  8  1  0  0  0
  7 50  1  0  0  0
  7 51  1  0  0  0
  8  9  1  0  0  0
  8 52  1  0  0  0
  8 80  1  0  0  0
  9 10  1  0  0  0
  9 53  1  0  0  0
  9 54  1  0  0  0
 10 39  1  0  0  0
 10 11  1  0  0  0
 10 12  1  0  0  0
 11 55  1  0  0  0
 12 40  1  0  0  0
 12 33  1  0  0  0
 12 13  1  0  0  0
 13 14  1  0  0  0
 13 56  1  0  0  0
 13 57  1  0  0  0
 14 19  1  0  0  0
 14 15  2  0  0  0
 15 16  1  0  0  0
 15 58  1  0  0  0
 16 17  2  0  0  0
 16 20  1  0  0  0
 17 18  1  0  0  0
 17 59  1  0  0  0
 18 19  2  0  0  0
 18 60  1  0  0  0
 19 61  1  0  0  0
 20 21  1  0  0  0
 21 22  1  0  0  0
 21 62  1  0  0  0
 21 63  1  0  0  0
 22 23  1  0  0  0
 22 64  1  0  0  0
 22 65  1  0  0  0
 23 24  1  0  0  0
 23 66  1  0  0  0
 23 67  1  0  0  0
 24 25  1  0  0  0
 24 68  1  0  0  0
 24 69  1  0  0  0
 25 26  1  0  0  0
 26 41  1  0  0  0
 26 34  1  0  0  0
 26 27  1  0  0  0
 27 28  1  0  0  0
 27 70  1  0  0  0
 27 71  1  0  0  0
 28 29  1  0  0  0
 28 72  1  0  0  0
 28 73  1  0  0  0
 29 30  1  0  0  0
 29 34  1  0  0  0
 30 31  1  0  0  0
 30 74  1  0  0  0
 30 75  1  0  0  0
 31 32  2  0  0  0
 31 33  1  0  0  0
 33 76  1  0  0  0
 34 35  2  0  0  0
 36 37  1  0  0  0
 36 77  1  0  0  0
 37 38  2  0  0  0
 37 78  1  0  0  0
 38 79  1  0  0  0
M  CHG  1   8   1
M  END
> <s_m_source_file>
BACE_89.smi

> <i_m_source_file_index>
1

> <i_lp_mmshare_version>
42013

> <i_f3d_flags>
0

> <s_epik_input>
W0NIM11bQ0hdKFtDSDNdKWMxW2NIXWMoW2NIXVtjSF1bY0hdMSlbQ0gyXVtOSF1bQ0gyXVtDQEBIXShbT0hdKVtDQEhdKFtDSDJdMilbTkhdQyg9TylbQ0gyXU4oQzM9TylbQ0gyXVtDSDJdW0NAQEhdM09bQ0gyXVtDSDJdW0NIMl1bQ0gyXU9jKFtjSF1jMjQpW2NIXVtjSF1bY0hdNA==

> <s_epik_cmdline>
J2VwaWtfcHl0aG9uJywgJy1waCcsICc3LjAnLCAnLXRuJywgJzgnLCAnLW1hJywgJzIwMCcsICctaW1hZScsICc8aW5maWxlLm1hZT4nLCAnLW9tYWUnLCAnPG91dGZpbGUubWFlPic=

> <r_lp_tautomer_probability>
1

> <r_epik_Ionization_Penalty>
  0.0210

> <r_epik_Ionization_Penalty_Charging>
  0.0210

> <r_epik_Ionization_Penalty_Neutral>
  0.0000

> <r_epik_State_Penalty>
  0.0169

> <r_epik_Charging_Adjusted_Penalty>
0.0378979

> <i_epik_Tot_Q>
1

> <i_epik_Tot_abs_Q>
1

> <s_lp_Force_Field>
OPLS_2005

> <r_lp_Energy>
33.6927

> <b_lp_Chiralities_Consistent>
1

> <s_lp_Variant>
BACE_89.smi:1-1

> <chiral flag>
1

> <version>
0

> <s_i_glide_gridfile>
second_dock_grid_2

> <i_i_glide_lignum>
180

> <i_i_glide_rotatable_bonds>
7

> <r_i_docking_score>
-6.12737

> <r_i_glide_ligand_efficiency>
-0.161247

> <r_i_glide_ligand_efficiency_sa>
-0.542107

> <r_i_glide_ligand_efficiency_ln>
-1.32124

> <r_glide_XP_GScore>
-6.14427

> <r_i_glide_gscore>
-6.14427

> <r_i_glide_evdw>
-36.35

> <r_i_glide_ecoul>
-15.8929

> <r_i_glide_energy>
-52.2429

> <r_i_glide_einternal>
4.81879

> <r_i_glide_emodel>
-74.3464

> <r_glide_XP_HBond>
-2.06312

> <i_i_glide_confnum>
1

> <i_i_glide_posenum>
12

> <r_i_glide_eff_state_penalty>
0.0169

> <i_glide_XP_PoseRank>
1

$$$$
BACE_89.smi:1
                    3D
 Structure written by MMmdl.
 79 82  0  0  1  0            999 V2000
   30.3597   46.3529  -13.3255 C   0  0  0  0  0  0
   29.4917   45.4246  -14.1891 C   0  0  0  0  0  0
   28.2751   46.1636  -14.7686 C   0  0  0  0  0  0
   29.0746   44.1739  -13.4265 C   0  0  0  0  0  0
   28.1040   44.2471  -12.4034 C   0  0  0  0  0  0
   27.7010   43.0846  -11.7118 C   0  0  0  0  0  0
   26.6440   43.1587  -10.6224 C   0  0  0  0  0  0
   25.4186   42.4286  -10.9425 N   0  0  0  0  0  0
   24.7165   41.8995   -9.7747 C   0  0  0  0  0  0
   23.4497   41.1225  -10.1922 C   0  0  1  0  0  0
   22.8431   40.6369   -9.0103 O   0  0  0  0  0  0
   22.3963   41.9824  -10.9460 C   0  0  2  0  0  0
   22.2779   43.4519  -10.4601 C   0  0  0  0  0  0
   22.3883   43.6659   -8.9539 C   0  0  0  0  0  0
   21.5399   42.9810   -8.0553 C   0  0  0  0  0  0
   21.7071   43.1133   -6.6625 C   0  0  0  0  0  0
   22.6809   44.0115   -6.1663 C   0  0  0  0  0  0
   23.5031   44.7273   -7.0558 C   0  0  0  0  0  0
   23.3662   44.5460   -8.4443 C   0  0  0  0  0  0
   20.9048   42.3512   -5.8456 O   0  0  0  0  0  0
   21.5004   41.8241   -4.6623 C   0  0  0  0  0  0
   21.1962   40.3217   -4.5772 C   0  0  0  0  0  0
   21.7978   39.5153   -5.7481 C   0  0  0  0  0  0
   20.7365   38.8490   -6.6322 C   0  0  0  0  0  0
   19.8867   39.8527   -7.1694 O   0  0  0  0  0  0
   18.7802   39.3616   -7.9157 C   0  0  1  0  0  0
   17.7382   40.4801   -8.0329 C   0  0  0  0  0  0
   17.9148   41.0736   -9.4357 C   0  0  0  0  0  0
   18.7076   40.0932  -10.1587 N   0  0  0  0  0  0
   18.9790   40.2647  -11.5883 C   0  0  0  0  0  0
   20.3230   40.9401  -11.9071 C   0  0  0  0  0  0
   20.6602   41.0708  -13.0830 O   0  0  0  0  0  0
   21.0785   41.3545  -10.8746 N   0  0  0  0  0  0
   19.1962   39.1313   -9.3645 C   0  0  0  0  0  0
   19.9073   38.1927   -9.7218 O   0  0  0  0  0  0
   28.2887   41.8442  -12.0338 C   0  0  0  0  0  0
   29.2628   41.7657  -13.0470 C   0  0  0  0  0  0
   29.6525   42.9258  -13.7431 C   0  0  0  0  0  0
   23.7543   40.2758  -10.8068 H   0  0  0  0  0  0
   22.6926   42.0202  -11.9958 H   0  0  0  0  0  0
   18.3443   38.4679   -7.4663 H   0  0  0  0  0  0
   31.2461   45.8326  -12.9615 H   0  0  0  0  0  0
   29.8124   46.7257  -12.4591 H   0  0  0  0  0  0
   30.6979   47.2167  -13.8985 H   0  0  0  0  0  0
   30.1048   45.1075  -15.0338 H   0  0  0  0  0  0
   27.6949   45.5096  -15.4202 H   0  0  0  0  0  0
   28.5861   47.0252  -15.3598 H   0  0  0  0  0  0
   27.6110   46.5252  -13.9832 H   0  0  0  0  0  0
   27.6571   45.1984  -12.1543 H   0  0  0  0  0  0
   27.0571   42.8022   -9.6777 H   0  0  0  0  0  0
   26.4060   44.2119  -10.4719 H   0  0  0  0  0  0
   25.6254   41.6772  -11.5926 H   0  0  0  0  0  0
   25.3717   41.2679   -9.1734 H   0  0  0  0  0  0
   24.4456   42.7425   -9.1405 H   0  0  0  0  0  0
   23.2017   39.7839   -8.8185 H   0  0  0  0  0  0
   23.0702   44.0282  -10.9395 H   0  0  0  0  0  0
   21.3465   43.8982  -10.8117 H   0  0  0  0  0  0
   20.7851   42.3044   -8.4262 H   0  0  0  0  0  0
   22.8072   44.1581   -5.1038 H   0  0  0  0  0  0
   24.2498   45.4065   -6.6717 H   0  0  0  0  0  0
   24.0197   45.0840   -9.1156 H   0  0  0  0  0  0
   22.5832   41.9497   -4.6266 H   0  0  0  0  0  0
   21.0879   42.3446   -3.7977 H   0  0  0  0  0  0
   21.6003   39.9385   -3.6398 H   0  0  0  0  0  0
   20.1179   40.1695   -4.5157 H   0  0  0  0  0  0
   22.4362   40.1489   -6.3655 H   0  0  0  0  0  0
   22.4534   38.7411   -5.3483 H   0  0  0  0  0  0
   21.2229   38.2880   -7.4303 H   0  0  0  0  0  0
   20.1560   38.1398   -6.0400 H   0  0  0  0  0  0
   16.7375   40.0572   -7.9361 H   0  0  0  0  0  0
   17.8469   41.2368   -7.2547 H   0  0  0  0  0  0
   16.9555   41.2529   -9.9222 H   0  0  0  0  0  0
   18.4599   42.0176   -9.3937 H   0  0  0  0  0  0
   18.9490   39.2927  -12.0829 H   0  0  0  0  0  0
   18.1819   40.8590  -12.0364 H   0  0  0  0  0  0
   20.7128   41.2006   -9.9461 H   0  0  0  0  0  0
   27.9916   40.9486  -11.5080 H   0  0  0  0  0  0
   29.7094   40.8136  -13.2929 H   0  0  0  0  0  0
   30.3970   42.8507  -14.5219 H   0  0  0  0  0  0
  1  2  1  0  0  0
  1 42  1  0  0  0
  1 43  1  0  0  0
  1 44  1  0  0  0
  2  3  1  0  0  0
  2  4  1  0  0  0
  2 45  1  0  0  0
  3 46  1  0  0  0
  3 47  1  0  0  0
  3 48  1  0  0  0
  4 38  1  0  0  0
  4  5  2  0  0  0
  5  6  1  0  0  0
  5 49  1  0  0  0
  6  7  1  0  0  0
  6 36  2  0  0  0
  7  8  1  0  0  0
  7 50  1  0  0  0
  7 51  1  0  0  0
  8  9  1  0  0  0
  8 52  1  0  0  0
  9 10  1  0  0  0
  9 53  1  0  0  0
  9 54  1  0  0  0
 10 39  1  0  0  0
 10 11  1  0  0  0
 10 12  1  0  0  0
 11 55  1  0  0  0
 12 40  1  0  0  0
 12 33  1  0  0  0
 12 13  1  0  0  0
 13 14  1  0  0  0
 13 56  1  0  0  0
 13 57  1  0  0  0
 14 19  1  0  0  0
 14 15  2  0  0  0
 15 16  1  0  0  0
 15 58  1  0  0  0
 16 17  2  0  0  0
 16 20  1  0  0  0
 17 18  1  0  0  0
 17 59  1  0  0  0
 18 19  2  0  0  0
 18 60  1  0  0  0
 19 61  1  0  0  0
 20 21  1  0  0  0
 21 22  1  0  0  0
 21 62  1  0  0  0
 21 63  1  0  0  0
 22 23  1  0  0  0
 22 64  1  0  0  0
 22 65  1  0  0  0
 23 24  1  0  0  0
 23 66  1  0  0  0
 23 67  1  0  0  0
 24 25  1  0  0  0
 24 68  1  0  0  0
 24 69  1  0  0  0
 25 26  1  0  0  0
 26 41  1  0  0  0
 26 34  1  0  0  0
 26 27  1  0  0  0
 27 28  1  0  0  0
 27 70  1  0  0  0
 27 71  1  0  0  0
 28 29  1  0  0  0
 28 72  1  0  0  0
 28 73  1  0  0  0
 29 30  1  0  0  0
 29 34  1  0  0  0
 30 31  1  0  0  0
 30 74  1  0  0  0
 30 75  1  0  0  0
 31 32  2  0  0  0
 31 33  1  0  0  0
 33 76  1  0  0  0
 34 35  2  0  0  0
 36 37  1  0  0  0
 36 77  1  0  0  0
 37 38  2  0  0  0
 37 78  1  0  0  0
 38 79  1  0  0  0
M  END
> <s_m_source_file>
BACE_89.smi

> <i_m_source_file_index>
1

> <i_lp_mmshare_version>
42013

> <i_f3d_flags>
0

> <s_epik_input>
W0NIM11bQ0hdKFtDSDNdKWMxW2NIXWMoW2NIXVtjSF1bY0hdMSlbQ0gyXVtOSF1bQ0gyXVtDQEBIXShbT0hdKVtDQEhdKFtDSDJdMilbTkhdQyg9TylbQ0gyXU4oQzM9TylbQ0gyXVtDSDJdW0NAQEhdM09bQ0gyXVtDSDJdW0NIMl1bQ0gyXU9jKFtjSF1jMjQpW2NIXVtjSF1bY0hdNA==

> <s_epik_cmdline>
J2VwaWtfcHl0aG9uJywgJy1waCcsICc3LjAnLCAnLXRuJywgJzgnLCAnLW1hJywgJzIwMCcsICctaW1hZScsICc8aW5maWxlLm1hZT4nLCAnLW9tYWUnLCAnPG91dGZpbGUubWFlPic=

> <r_lp_tautomer_probability>
1

> <r_epik_Ionization_Penalty>
  1.9888

> <r_epik_Ionization_Penalty_Charging>
  0.0000

> <r_epik_Ionization_Penalty_Neutral>
  1.9888

> <r_epik_State_Penalty>
  2.1166

> <r_epik_Charging_Adjusted_Penalty>
2.11661

> <i_epik_Tot_Q>
0

> <i_epik_Tot_abs_Q>
0

> <s_lp_Force_Field>
OPLS_2005

> <r_lp_Energy>
42.9969

> <b_lp_Chiralities_Consistent>
1

> <s_lp_Variant>
BACE_89.smi:1-2

> <chiral flag>
1

> <version>
0

> <s_i_glide_gridfile>
second_dock_grid_2

> <i_i_glide_lignum>
181

> <i_i_glide_rotatable_bonds>
7

> <r_i_docking_score>
-1.44274

> <r_i_glide_ligand_efficiency>
-0.0379668

> <r_i_glide_ligand_efficiency_sa>
-0.127643

> <r_i_glide_ligand_efficiency_ln>
-0.311097

> <r_glide_XP_GScore>
-3.55934

> <r_i_glide_gscore>
-3.55934

> <r_i_glide_evdw>
-37.8584

> <r_i_glide_ecoul>
-5.77978

> <r_i_glide_energy>
-43.6382

> <r_i_glide_einternal>
10.1485

> <r_i_glide_emodel>
-54.7475

> <r_glide_XP_HBond>
-0.706368

> <i_i_glide_confnum>
1

> <i_i_glide_posenum>
2

> <r_i_glide_eff_state_penalty>
2.1166

> <i_glide_XP_PoseRank>
1

$$$$
BACE_90.smi:1
                    3D
 Structure written by MMmdl.
 75 78  0  0  1  0            999 V2000
   15.6729   42.5029   -8.0921 C   0  0  0  0  0  0
   15.7214   42.3852   -9.6332 C   0  0  1  0  0  0
   16.0726   40.9960  -10.1972 C   0  0  0  0  0  0
   15.5394   40.5705  -11.2254 O   0  0  0  0  0  0
   17.0665   40.3460   -9.5727 N   0  0  0  0  0  0
   17.5625   39.0208   -9.9266 C   0  0  1  0  0  0
   18.5903   39.0196  -11.0960 C   0  0  0  0  0  0
   19.6879   40.0749  -11.1123 C   0  0  0  0  0  0
   21.0359   39.6727  -11.0573 C   0  0  0  0  0  0
   22.0586   40.6265  -11.2115 C   0  0  0  0  0  0
   21.7393   41.9854  -11.3907 C   0  0  0  0  0  0
   20.3966   42.4104  -11.4338 C   0  0  0  0  0  0
   19.3763   41.4369  -11.3229 C   0  0  0  0  0  0
   20.1678   43.7546  -11.6382 O   0  0  0  0  0  0
   18.8957   44.2960  -11.3072 C   0  0  0  0  0  0
   18.8544   45.7436  -11.8167 C   0  0  0  0  0  0
   17.6559   46.5777  -11.3262 C   0  0  0  0  0  0
   16.2720   45.9507  -11.5906 C   0  0  0  0  0  0
   15.6593   45.3318  -10.3214 C   0  0  0  0  0  0
   14.5103   44.3563  -10.6367 C   0  0  0  0  0  0
   13.5334   44.8247  -11.2295 O   0  0  0  0  0  0
   14.5510   43.0552  -10.2471 N   0  0  0  0  0  0
   13.3147   42.2657  -10.3732 C   0  0  0  0  0  0
   17.9684   38.2247   -8.6561 C   0  0  2  0  0  0
   17.0147   38.4226   -7.6299 O   0  0  0  0  0  0
   19.3822   38.4417   -8.0773 C   0  0  0  0  0  0
   19.6325   39.7897   -7.5677 N   0  0  0  0  0  0
   20.9378   40.0049   -6.9075 C   0  0  0  0  0  0
   22.2151   39.8839   -7.7134 C   0  0  0  0  0  0
   21.8938   38.8491   -6.6796 C   0  0  0  0  0  0
   20.8312   41.0550   -5.8446 C   0  0  0  0  0  0
   20.9197   40.7090   -4.4771 C   0  0  0  0  0  0
   20.7676   41.6743   -3.4691 C   0  0  0  0  0  0
   20.4990   43.0046   -3.8276 C   0  0  0  0  0  0
   20.4217   43.3757   -5.1828 C   0  0  0  0  0  0
   20.0577   45.1842   -5.6441 Br  0  0  0  0  0  0
   20.5896   42.4028   -6.1896 C   0  0  0  0  0  0
   16.6202   42.9070   -9.9444 H   0  0  0  0  0  0
   16.7002   38.4649  -10.3048 H   0  0  0  0  0  0
   17.9119   37.1681   -8.9183 H   0  0  0  0  0  0
   14.8051   41.9903   -7.6823 H   0  0  0  0  0  0
   15.6145   43.5441   -7.7791 H   0  0  0  0  0  0
   16.5524   42.0797   -7.6097 H   0  0  0  0  0  0
   17.4506   40.7408   -8.7261 H   0  0  0  0  0  0
   19.0231   38.0254  -11.2143 H   0  0  0  0  0  0
   18.0595   39.2119  -12.0270 H   0  0  0  0  0  0
   21.2895   38.6277  -10.9155 H   0  0  0  0  0  0
   23.0942   40.3146  -11.1734 H   0  0  0  0  0  0
   22.5366   42.7050  -11.4929 H   0  0  0  0  0  0
   18.3423   41.7115  -11.4402 H   0  0  0  0  0  0
   18.0828   43.7463  -11.7794 H   0  0  0  0  0  0
   18.7586   44.2610  -10.2256 H   0  0  0  0  0  0
   18.8706   45.7357  -12.9071 H   0  0  0  0  0  0
   19.7691   46.2519  -11.5053 H   0  0  0  0  0  0
   17.6976   47.5451  -11.8314 H   0  0  0  0  0  0
   17.7698   46.8009  -10.2629 H   0  0  0  0  0  0
   16.3367   45.2241  -12.4010 H   0  0  0  0  0  0
   15.5933   46.7275  -11.9506 H   0  0  0  0  0  0
   16.4369   44.9038   -9.7007 H   0  0  0  0  0  0
   15.2617   46.1387   -9.7039 H   0  0  0  0  0  0
   12.4551   42.8023   -9.9676 H   0  0  0  0  0  0
   13.3637   41.3269   -9.8216 H   0  0  0  0  0  0
   13.1127   42.0350  -11.4184 H   0  0  0  0  0  0
   16.8495   37.6139   -7.1500 H   0  0  0  0  0  0
   20.1323   38.1722   -8.8234 H   0  0  0  0  0  0
   19.4888   37.7452   -7.2493 H   0  0  0  0  0  0
   18.8802   40.0666   -6.9399 H   0  0  0  0  0  0
   22.1931   39.5112   -8.7277 H   0  0  0  0  0  0
   23.0371   40.5576   -7.4879 H   0  0  0  0  0  0
   22.4529   38.8667   -5.7565 H   0  0  0  0  0  0
   21.6789   37.8592   -7.0653 H   0  0  0  0  0  0
   21.0980   39.6907   -4.1853 H   0  0  0  0  0  0
   20.8269   41.3923   -2.4265 H   0  0  0  0  0  0
   20.3504   43.7497   -3.0611 H   0  0  0  0  0  0
   20.5150   42.6809   -7.2291 H   0  0  0  0  0  0
  1  2  1  0  0  0
  1 41  1  0  0  0
  1 42  1  0  0  0
  1 43  1  0  0  0
  2 38  1  0  0  0
  2 22  1  0  0  0
  2  3  1  0  0  0
  3  4  2  0  0  0
  3  5  1  0  0  0
  5  6  1  0  0  0
  5 44  1  0  0  0
  6 39  1  0  0  0
  6  7  1  0  0  0
  6 24  1  0  0  0
  7  8  1  0  0  0
  7 45  1  0  0  0
  7 46  1  0  0  0
  8 13  1  0  0  0
  8  9  2  0  0  0
  9 10  1  0  0  0
  9 47  1  0  0  0
 10 11  2  0  0  0
 10 48  1  0  0  0
 11 12  1  0  0  0
 11 49  1  0  0  0
 12 13  2  0  0  0
 12 14  1  0  0  0
 13 50  1  0  0  0
 14 15  1  0  0  0
 15 16  1  0  0  0
 15 51  1  0  0  0
 15 52  1  0  0  0
 16 17  1  0  0  0
 16 53  1  0  0  0
 16 54  1  0  0  0
 17 18  1  0  0  0
 17 55  1  0  0  0
 17 56  1  0  0  0
 18 19  1  0  0  0
 18 57  1  0  0  0
 18 58  1  0  0  0
 19 20  1  0  0  0
 19 59  1  0  0  0
 19 60  1  0  0  0
 20 21  2  0  0  0
 20 22  1  0  0  0
 22 23  1  0  0  0
 23 61  1  0  0  0
 23 62  1  0  0  0
 23 63  1  0  0  0
 24 40  1  0  0  0
 24 25  1  0  0  0
 24 26  1  0  0  0
 25 64  1  0  0  0
 26 27  1  0  0  0
 26 65  1  0  0  0
 26 66  1  0  0  0
 27 28  1  0  0  0
 27 67  1  0  0  0
 28 30  1  0  0  0
 28 29  1  0  0  0
 28 31  1  0  0  0
 29 30  1  0  0  0
 29 68  1  0  0  0
 29 69  1  0  0  0
 30 70  1  0  0  0
 30 71  1  0  0  0
 31 37  1  0  0  0
 31 32  2  0  0  0
 32 33  1  0  0  0
 32 72  1  0  0  0
 33 34  2  0  0  0
 33 73  1  0  0  0
 34 35  1  0  0  0
 34 74  1  0  0  0
 35 36  1  0  0  0
 35 37  2  0  0  0
 37 75  1  0  0  0
M  END
> <s_m_source_file>
BACE_90.smi

> <i_m_source_file_index>
1

> <i_lp_mmshare_version>
42013

> <i_f3d_flags>
0

> <s_epik_input>
QnJjKFtjSF0xKVtjSF1bY0hdW2NIXWMxQzIoW0NIMl1bQ0gyXTIpW05IXVtDSDJdW0NAQEhdKFtPSF0pW0NASF0oW0NIMl0zKVtOSF1DKD1PKVtDQEhdKFtDSDNdKU4oW0NIM10pQyg9TylbQ0gyXVtDSDJdW0NIMl1bQ0gyXVtDSDJdT2MoW2NIXTQpW2NIXVtjSF1bY0hdYzM0

> <s_epik_cmdline>
J2VwaWtfcHl0aG9uJywgJy1waCcsICc3LjAnLCAnLXRuJywgJzgnLCAnLW1hJywgJzIwMCcsICctaW1hZScsICc8aW5maWxlLm1hZT4nLCAnLW9tYWUnLCAnPG91dGZpbGUubWFlPic=

> <r_lp_tautomer_probability>
1

> <r_epik_Ionization_Penalty>
  0.2530

> <r_epik_Ionization_Penalty_Charging>
  0.0000

> <r_epik_Ionization_Penalty_Neutral>
  0.2530

> <r_epik_State_Penalty>
  0.2444

> <r_epik_Charging_Adjusted_Penalty>
0.244368

> <i_epik_Tot_Q>
0

> <i_epik_Tot_abs_Q>
0

> <s_lp_Force_Field>
OPLS_2005

> <r_lp_Energy>
50.7786

> <b_lp_Chiralities_Consistent>
1

> <s_lp_Variant>
BACE_90.smi:1-1

> <chiral flag>
1

> <version>
0

> <s_i_glide_gridfile>
second_dock_grid_2

> <i_i_glide_lignum>
182

> <i_i_glide_rotatable_bonds>
6

> <r_i_docking_score>
-3.68314

> <r_i_glide_ligand_efficiency>
-0.0995444

> <r_i_glide_ligand_efficiency_sa>
-0.331704

> <r_i_glide_ligand_efficiency_ln>
-0.798787

> <r_glide_XP_GScore>
-3.92754

> <r_i_glide_gscore>
-3.92754

> <r_i_glide_evdw>
-39.0426

> <r_i_glide_ecoul>
-9.97394

> <r_i_glide_energy>
-49.0166

> <r_i_glide_einternal>
15.0398

> <r_i_glide_emodel>
-63.8454

> <r_glide_XP_HBond>
-0.24333

> <i_i_glide_confnum>
1

> <i_i_glide_posenum>
7

> <r_i_glide_eff_state_penalty>
0.2444

> <i_glide_XP_PoseRank>
2

$$$$
BACE_90.smi:1
                    3D
 Structure written by MMmdl.
 76 79  0  0  1  0            999 V2000
   21.0323   44.7165   -8.3391 C   0  0  0  0  0  0
   19.5509   44.9155   -8.7204 C   0  0  1  0  0  0
   18.5793   44.0453   -7.9057 C   0  0  0  0  0  0
   18.8634   43.7504   -6.7465 O   0  0  0  0  0  0
   17.4516   43.6336   -8.5130 N   0  0  0  0  0  0
   16.4690   42.7249   -7.9135 C   0  0  1  0  0  0
   15.0094   43.1823   -8.1467 C   0  0  0  0  0  0
   14.5404   43.3937   -9.5780 C   0  0  0  0  0  0
   13.7054   42.4397  -10.1920 C   0  0  0  0  0  0
   13.1196   42.7188  -11.4399 C   0  0  0  0  0  0
   13.3570   43.9546  -12.0695 C   0  0  0  0  0  0
   14.2104   44.9107  -11.4849 C   0  0  0  0  0  0
   14.8141   44.6101  -10.2374 C   0  0  0  0  0  0
   14.3251   46.1264  -12.1299 O   0  0  0  0  0  0
   15.5229   46.8839  -11.9795 C   0  0  0  0  0  0
   16.4959   46.5070  -13.1023 C   0  0  0  0  0  0
   17.9301   46.9769  -12.8268 C   0  0  0  0  0  0
   18.7205   45.9486  -12.0008 C   0  0  0  0  0  0
   19.8535   46.5688  -11.1641 C   0  0  0  0  0  0
   19.3237   47.1493   -9.8419 C   0  0  0  0  0  0
   18.9953   48.3364   -9.8342 O   0  0  0  0  0  0
   19.2178   46.3589   -8.7404 N   0  0  0  0  0  0
   18.7691   46.9659   -7.4753 C   0  0  0  0  0  0
   16.7943   41.2560   -8.2656 C   0  0  2  0  0  0
   16.6571   41.0808   -9.6628 O   0  0  0  0  0  0
   15.9170   40.2171   -7.5107 C   0  0  0  0  0  0
   16.6097   38.9415   -7.1777 N   0  3  0  0  0  0
   17.4386   38.2986   -8.2347 C   0  0  0  0  0  0
   16.9619   36.9104   -8.6258 C   0  0  0  0  0  0
   16.6923   38.0699   -9.5427 C   0  0  0  0  0  0
   18.9312   38.5859   -8.1483 C   0  0  0  0  0  0
   19.7768   38.3096   -9.2494 C   0  0  0  0  0  0
   21.1629   38.5575   -9.1892 C   0  0  0  0  0  0
   21.7261   39.0976   -8.0214 C   0  0  0  0  0  0
   20.9046   39.3858   -6.9160 C   0  0  0  0  0  0
   21.6610   40.1491   -5.3462 Br  0  0  0  0  0  0
   19.5218   39.1181   -6.9739 C   0  0  0  0  0  0
   19.4524   44.4997   -9.7212 H   0  0  0  0  0  0
   16.5977   42.7828   -6.8363 H   0  0  0  0  0  0
   17.8399   41.0982   -8.0083 H   0  0  0  0  0  0
   21.7028   45.2172   -9.0381 H   0  0  0  0  0  0
   21.3007   43.6611   -8.3307 H   0  0  0  0  0  0
   21.2411   45.1168   -7.3450 H   0  0  0  0  0  0
   17.3002   43.8895   -9.4765 H   0  0  0  0  0  0
   14.3226   42.5018   -7.6422 H   0  0  0  0  0  0
   14.8774   44.1436   -7.6459 H   0  0  0  0  0  0
   13.4625   41.5138   -9.6861 H   0  0  0  0  0  0
   12.4595   41.9984  -11.8960 H   0  0  0  0  0  0
   12.8771   44.1671  -13.0152 H   0  0  0  0  0  0
   15.4183   45.3320   -9.7123 H   0  0  0  0  0  0
   15.2734   47.9388  -12.0790 H   0  0  0  0  0  0
   15.9947   46.8015  -11.0034 H   0  0  0  0  0  0
   16.4921   45.4252  -13.2379 H   0  0  0  0  0  0
   16.1363   46.9469  -14.0356 H   0  0  0  0  0  0
   18.4513   47.1417  -13.7702 H   0  0  0  0  0  0
   17.9047   47.9496  -12.3325 H   0  0  0  0  0  0
   18.0413   45.4097  -11.3394 H   0  0  0  0  0  0
   19.1275   45.1903  -12.6668 H   0  0  0  0  0  0
   20.3411   47.3623  -11.7330 H   0  0  0  0  0  0
   20.6409   45.8386  -10.9833 H   0  0  0  0  0  0
   19.1066   47.9979   -7.3670 H   0  0  0  0  0  0
   19.1642   46.4336   -6.6095 H   0  0  0  0  0  0
   17.6807   46.9564   -7.4149 H   0  0  0  0  0  0
   15.7669   41.2940   -9.9107 H   0  0  0  0  0  0
   14.9993   40.0111   -8.0627 H   0  0  0  0  0  0
   15.5954   40.6337   -6.5551 H   0  0  0  0  0  0
   15.9298   38.2656   -6.8445 H   0  0  0  0  0  0
   17.7063   36.1871   -8.9527 H   0  0  0  0  0  0
   16.0781   36.4854   -8.1577 H   0  0  0  0  0  0
   15.6514   38.3704   -9.6255 H   0  0  0  0  0  0
   17.2539   38.1334  -10.4664 H   0  0  0  0  0  0
   19.3807   37.8927  -10.1620 H   0  0  0  0  0  0
   21.7937   38.3399  -10.0394 H   0  0  0  0  0  0
   22.7901   39.2969   -7.9763 H   0  0  0  0  0  0
   18.9372   39.3405   -6.0955 H   0  0  0  0  0  0
   17.2169   39.1309   -6.3957 H   0  0  0  0  0  0
  1  2  1  0  0  0
  1 41  1  0  0  0
  1 42  1  0  0  0
  1 43  1  0  0  0
  2 38  1  0  0  0
  2 22  1  0  0  0
  2  3  1  0  0  0
  3  4  2  0  0  0
  3  5  1  0  0  0
  5  6  1  0  0  0
  5 44  1  0  0  0
  6 39  1  0  0  0
  6  7  1  0  0  0
  6 24  1  0  0  0
  7  8  1  0  0  0
  7 45  1  0  0  0
  7 46  1  0  0  0
  8 13  1  0  0  0
  8  9  2  0  0  0
  9 10  1  0  0  0
  9 47  1  0  0  0
 10 11  2  0  0  0
 10 48  1  0  0  0
 11 12  1  0  0  0
 11 49  1  0  0  0
 12 13  2  0  0  0
 12 14  1  0  0  0
 13 50  1  0  0  0
 14 15  1  0  0  0
 15 16  1  0  0  0
 15 51  1  0  0  0
 15 52  1  0  0  0
 16 17  1  0  0  0
 16 53  1  0  0  0
 16 54  1  0  0  0
 17 18  1  0  0  0
 17 55  1  0  0  0
 17 56  1  0  0  0
 18 19  1  0  0  0
 18 57  1  0  0  0
 18 58  1  0  0  0
 19 20  1  0  0  0
 19 59  1  0  0  0
 19 60  1  0  0  0
 20 21  2  0  0  0
 20 22  1  0  0  0
 22 23  1  0  0  0
 23 61  1  0  0  0
 23 62  1  0  0  0
 23 63  1  0  0  0
 24 40  1  0  0  0
 24 25  1  0  0  0
 24 26  1  0  0  0
 25 64  1  0  0  0
 26 27  1  0  0  0
 26 65  1  0  0  0
 26 66  1  0  0  0
 27 28  1  0  0  0
 27 67  1  0  0  0
 27 76  1  0  0  0
 28 30  1  0  0  0
 28 29  1  0  0  0
 28 31  1  0  0  0
 29 30  1  0  0  0
 29 68  1  0  0  0
 29 69  1  0  0  0
 30 70  1  0  0  0
 30 71  1  0  0  0
 31 37  1  0  0  0
 31 32  2  0  0  0
 32 33  1  0  0  0
 32 72  1  0  0  0
 33 34  2  0  0  0
 33 73  1  0  0  0
 34 35  1  0  0  0
 34 74  1  0  0  0
 35 36  1  0  0  0
 35 37  2  0  0  0
 37 75  1  0  0  0
M  CHG  1  27   1
M  END
> <s_m_source_file>
BACE_90.smi

> <i_m_source_file_index>
1

> <i_lp_mmshare_version>
42013

> <i_f3d_flags>
0

> <s_epik_input>
QnJjKFtjSF0xKVtjSF1bY0hdW2NIXWMxQzIoW0NIMl1bQ0gyXTIpW05IXVtDSDJdW0NAQEhdKFtPSF0pW0NASF0oW0NIMl0zKVtOSF1DKD1PKVtDQEhdKFtDSDNdKU4oW0NIM10pQyg9TylbQ0gyXVtDSDJdW0NIMl1bQ0gyXVtDSDJdT2MoW2NIXTQpW2NIXVtjSF1bY0hdYzM0

> <s_epik_cmdline>
J2VwaWtfcHl0aG9uJywgJy1waCcsICc3LjAnLCAnLXRuJywgJzgnLCAnLW1hJywgJzIwMCcsICctaW1hZScsICc8aW5maWxlLm1hZT4nLCAnLW9tYWUnLCAnPG91dGZpbGUubWFlPic=

> <r_lp_tautomer_probability>
1

> <r_epik_Ionization_Penalty>
  0.6263

> <r_epik_Ionization_Penalty_Charging>
  0.6263

> <r_epik_Ionization_Penalty_Neutral>
  0.0000

> <r_epik_State_Penalty>
  0.6427

> <r_epik_Charging_Adjusted_Penalty>
1.26899

> <i_epik_Tot_Q>
1

> <i_epik_Tot_abs_Q>
1

> <s_lp_Force_Field>
OPLS_2005

> <r_lp_Energy>
44.9038

> <b_lp_Chiralities_Consistent>
1

> <s_lp_Variant>
BACE_90.smi:1-2

> <chiral flag>
1

> <version>
0

> <s_i_glide_gridfile>
second_dock_grid_2

> <i_i_glide_lignum>
183

> <i_i_glide_rotatable_bonds>
6

> <r_i_docking_score>
-4.72323

> <r_i_glide_ligand_efficiency>
-0.127655

> <r_i_glide_ligand_efficiency_sa>
-0.425374

> <r_i_glide_ligand_efficiency_ln>
-1.02436

> <r_glide_XP_GScore>
-5.36593

> <r_i_glide_gscore>
-5.36593

> <r_i_glide_evdw>
-37.3441

> <r_i_glide_ecoul>
-13.1096

> <r_i_glide_energy>
-50.4538

> <r_i_glide_einternal>
8.56575

> <r_i_glide_emodel>
-65.5616

> <r_glide_XP_HBond>
-0.683465

> <i_i_glide_confnum>
1

> <i_i_glide_posenum>
2

> <r_i_glide_eff_state_penalty>
0.6427

> <i_glide_XP_PoseRank>
1

$$$$
BACE_91.smi:1
                    3D
 Structure written by MMmdl.
 92 95  0  0  1  0            999 V2000
   25.4789   50.9566   -1.0437 C   0  0  0  0  0  0
   24.9009   49.5894   -1.4136 C   0  0  0  0  0  0
   24.3481   48.8871   -0.1705 C   0  0  0  0  0  0
   23.8725   49.7303   -2.5298 C   0  0  0  0  0  0
   23.9769   48.9144   -3.6813 C   0  0  0  0  0  0
   23.1168   49.1185   -4.7845 C   0  0  0  0  0  0
   22.1533   50.1563   -4.7472 C   0  0  0  0  0  0
   22.0238   50.9305   -3.5747 C   0  0  0  0  0  0
   22.8630   50.7125   -2.4677 C   0  0  0  0  0  0
   21.3685   50.5003   -5.8290 O   0  0  0  0  0  0
   21.2861   49.6045   -6.9414 C   0  0  0  0  0  0
   20.8596   50.4684   -8.1396 C   0  0  0  0  0  0
   20.1818   48.5677   -6.6564 C   0  0  0  0  0  0
   22.6609   48.9650   -7.2420 C   0  0  0  0  0  0
   23.2731   48.2546   -6.0241 C   0  0  2  0  0  0
   22.6449   46.9401   -5.7781 N   0  3  0  0  0  0
   23.0204   45.8417   -6.6931 C   0  0  0  0  0  0
   22.3483   44.5249   -6.2406 C   0  0  1  0  0  0
   22.4689   44.4568   -4.8356 O   0  0  0  0  0  0
   20.8721   44.3906   -6.7045 C   0  0  2  0  0  0
   20.0783   43.2729   -5.9695 C   0  0  0  0  0  0
   20.7278   41.8982   -6.0404 C   0  0  0  0  0  0
   20.6075   41.1158   -7.2077 C   0  0  0  0  0  0
   21.2524   39.8594   -7.3081 C   0  0  0  0  0  0
   21.9789   39.3866   -6.1993 C   0  0  0  0  0  0
   22.0610   40.1382   -5.0140 C   0  0  0  0  0  0
   21.4386   41.3956   -4.9339 C   0  0  0  0  0  0
   21.2312   39.0483   -8.4248 O   0  0  0  0  0  0
   20.4830   39.4443   -9.5714 C   0  0  0  0  0  0
   18.9909   39.1060   -9.3927 C   0  0  0  0  0  0
   18.1090   39.4392  -10.6114 C   0  0  0  0  0  0
   17.8016   40.9358  -10.7981 C   0  0  0  0  0  0
   18.6546   41.6176  -11.8877 C   0  0  0  0  0  0
   18.2748   43.0980  -12.0513 C   0  0  0  0  0  0
   17.3460   43.3529  -12.8259 O   0  0  0  0  0  0
   18.9471   44.0645  -11.3710 N   0  0  0  0  0  0
   18.6291   45.4662  -11.6723 C   0  0  0  0  0  0
   20.0511   43.8061  -10.4120 C   0  0  1  0  0  0
   21.4139   43.8959  -11.1293 C   0  0  0  0  0  0
   19.9906   44.5278   -9.0453 C   0  0  0  0  0  0
   19.1632   45.4020   -8.7945 O   0  0  0  0  0  0
   20.8692   44.0932   -8.1329 N   0  0  0  0  0  0
   24.3380   48.0955   -6.1978 H   0  0  0  0  0  0
   22.9249   43.6877   -6.6417 H   0  0  0  0  0  0
   20.3565   45.3354   -6.5215 H   0  0  0  0  0  0
   19.9656   42.7770  -10.0708 H   0  0  0  0  0  0
   25.6724   51.5347   -1.9466 H   0  0  0  0  0  0
   26.4012   50.8603   -0.4750 H   0  0  0  0  0  0
   24.7871   51.5482   -0.4430 H   0  0  0  0  0  0
   25.7232   48.9832   -1.8022 H   0  0  0  0  0  0
   23.8312   47.9625   -0.4246 H   0  0  0  0  0  0
   23.6560   49.5404    0.3569 H   0  0  0  0  0  0
   25.1552   48.6518    0.5268 H   0  0  0  0  0  0
   24.7488   48.1559   -3.7330 H   0  0  0  0  0  0
   21.2792   51.7154   -3.5285 H   0  0  0  0  0  0
   22.7582   51.3436   -1.5961 H   0  0  0  0  0  0
   20.7231   49.8596   -9.0332 H   0  0  0  0  0  0
   21.6046   51.2290   -8.3744 H   0  0  0  0  0  0
   19.9180   50.9860   -7.9449 H   0  0  0  0  0  0
   20.2105   47.7510   -7.3783 H   0  0  0  0  0  0
   19.2021   49.0233   -6.7287 H   0  0  0  0  0  0
   20.2513   48.1502   -5.6583 H   0  0  0  0  0  0
   23.3473   49.7631   -7.5323 H   0  0  0  0  0  0
   22.6046   48.3039   -8.1075 H   0  0  0  0  0  0
   22.8837   46.6258   -4.8461 H   0  0  0  0  0  0
   22.7125   46.0923   -7.7073 H   0  0  0  0  0  0
   24.1082   45.7203   -6.6977 H   0  0  0  0  0  0
   21.8840   43.7804   -4.5118 H   0  0  0  0  0  0
   19.9304   43.5481   -4.9257 H   0  0  0  0  0  0
   19.0726   43.2011   -6.3860 H   0  0  0  0  0  0
   20.0181   41.5031   -8.0226 H   0  0  0  0  0  0
   22.4597   38.4210   -6.2637 H   0  0  0  0  0  0
   22.5941   39.7452   -4.1638 H   0  0  0  0  0  0
   21.5079   41.9597   -4.0175 H   0  0  0  0  0  0
   20.8732   38.8775  -10.4181 H   0  0  0  0  0  0
   20.6469   40.4907   -9.8196 H   0  0  0  0  0  0
   18.5892   39.5968   -8.5069 H   0  0  0  0  0  0
   18.9087   38.0400   -9.1900 H   0  0  0  0  0  0
   18.5331   39.0060  -11.5194 H   0  0  0  0  0  0
   17.1591   38.9218  -10.4774 H   0  0  0  0  0  0
   16.7520   41.0341  -11.0799 H   0  0  0  0  0  0
   17.8966   41.4619   -9.8475 H   0  0  0  0  0  0
   19.7209   41.4777  -11.7252 H   0  0  0  0  0  0
   18.4622   41.1218  -12.8381 H   0  0  0  0  0  0
   18.5379   45.6357  -12.7474 H   0  0  0  0  0  0
   19.4058   46.1458  -11.3269 H   0  0  0  0  0  0
   17.6895   45.7538  -11.1972 H   0  0  0  0  0  0
   21.5872   44.8920  -11.5346 H   0  0  0  0  0  0
   21.4708   43.1911  -11.9614 H   0  0  0  0  0  0
   22.2435   43.6663  -10.4592 H   0  0  0  0  0  0
   21.5059   43.3670   -8.4267 H   0  0  0  0  0  0
   21.6442   47.0531   -5.8314 H   0  0  0  0  0  0
  1  2  1  0  0  0
  1 47  1  0  0  0
  1 48  1  0  0  0
  1 49  1  0  0  0
  2  3  1  0  0  0
  2  4  1  0  0  0
  2 50  1  0  0  0
  3 51  1  0  0  0
  3 52  1  0  0  0
  3 53  1  0  0  0
  4  9  1  0  0  0
  4  5  2  0  0  0
  5  6  1  0  0  0
  5 54  1  0  0  0
  6 15  1  0  0  0
  6  7  2  0  0  0
  7  8  1  0  0  0
  7 10  1  0  0  0
  8  9  2  0  0  0
  8 55  1  0  0  0
  9 56  1  0  0  0
 10 11  1  0  0  0
 11 12  1  0  0  0
 11 13  1  0  0  0
 11 14  1  0  0  0
 12 57  1  0  0  0
 12 58  1  0  0  0
 12 59  1  0  0  0
 13 60  1  0  0  0
 13 61  1  0  0  0
 13 62  1  0  0  0
 14 15  1  0  0  0
 14 63  1  0  0  0
 14 64  1  0  0  0
 15 43  1  0  0  0
 15 16  1  0  0  0
 16 17  1  0  0  0
 16 65  1  0  0  0
 16 92  1  0  0  0
 17 18  1  0  0  0
 17 66  1  0  0  0
 17 67  1  0  0  0
 18 44  1  0  0  0
 18 19  1  0  0  0
 18 20  1  0  0  0
 19 68  1  0  0  0
 20 45  1  0  0  0
 20 42  1  0  0  0
 20 21  1  0  0  0
 21 22  1  0  0  0
 21 69  1  0  0  0
 21 70  1  0  0  0
 22 27  1  0  0  0
 22 23  2  0  0  0
 23 24  1  0  0  0
 23 71  1  0  0  0
 24 25  2  0  0  0
 24 28  1  0  0  0
 25 26  1  0  0  0
 25 72  1  0  0  0
 26 27  2  0  0  0
 26 73  1  0  0  0
 27 74  1  0  0  0
 28 29  1  0  0  0
 29 30  1  0  0  0
 29 75  1  0  0  0
 29 76  1  0  0  0
 30 31  1  0  0  0
 30 77  1  0  0  0
 30 78  1  0  0  0
 31 32  1  0  0  0
 31 79  1  0  0  0
 31 80  1  0  0  0
 32 33  1  0  0  0
 32 81  1  0  0  0
 32 82  1  0  0  0
 33 34  1  0  0  0
 33 83  1  0  0  0
 33 84  1  0  0  0
 34 35  2  0  0  0
 34 36  1  0  0  0
 36 37  1  0  0  0
 36 38  1  0  0  0
 37 85  1  0  0  0
 37 86  1  0  0  0
 37 87  1  0  0  0
 38 46  1  0  0  0
 38 39  1  0  0  0
 38 40  1  0  0  0
 39 88  1  0  0  0
 39 89  1  0  0  0
 39 90  1  0  0  0
 40 41  2  0  0  0
 40 42  1  0  0  0
 42 91  1  0  0  0
M  CHG  1  16   1
M  END
> <s_m_source_file>
BACE_91.smi

> <i_m_source_file_index>
1

> <i_lp_mmshare_version>
42013

> <i_f3d_flags>
0

> <s_epik_input>
W0NIM11bQ0hdKFtDSDNdKWMoW2NIXTEpW2NIXVtjSF1jKGMxMilPQyhbQ0gzXSkoW0NIM10pW0NIMl1bQ0BASF0yW05IXVtDSDJdW0NAQEhdKFtPSF0pW0NASF0oW0NIMl0zKVtOSF1DKD1PKVtDQEhdKFtDSDNdKU4oW0NIM10pQyg9TylbQ0gyXVtDSDJdW0NIMl1bQ0gyXVtDSDJdT2MoW2NIXWMzNClbY0hdW2NIXVtjSF00

> <s_epik_cmdline>
J2VwaWtfcHl0aG9uJywgJy1waCcsICc3LjAnLCAnLXRuJywgJzgnLCAnLW1hJywgJzIwMCcsICctaW1hZScsICc8aW5maWxlLm1hZT4nLCAnLW9tYWUnLCAnPG91dGZpbGUubWFlPic=

> <r_lp_tautomer_probability>
1

> <r_epik_Ionization_Penalty>
  0.0217

> <r_epik_Ionization_Penalty_Charging>
  0.0217

> <r_epik_Ionization_Penalty_Neutral>
  0.0000

> <r_epik_State_Penalty>
  0.0174

> <r_epik_Charging_Adjusted_Penalty>
0.0391288

> <i_epik_Tot_Q>
1

> <i_epik_Tot_abs_Q>
1

> <s_lp_Force_Field>
OPLS_2005

> <r_lp_Energy>
41.6867

> <b_lp_Chiralities_Consistent>
1

> <s_lp_Variant>
BACE_91.smi:1-1

> <chiral flag>
1

> <version>
0

> <s_i_glide_gridfile>
second_dock_grid_2

> <i_i_glide_lignum>
184

> <i_i_glide_rotatable_bonds>
6

> <r_i_docking_score>
-4.56055

> <r_i_glide_ligand_efficiency>
-0.108584

> <r_i_glide_ligand_efficiency_sa>
-0.377443

> <r_i_glide_ligand_efficiency_ln>
-0.962614

> <r_glide_XP_GScore>
-4.57795

> <r_i_glide_gscore>
-4.57795

> <r_i_glide_evdw>
-41.3207

> <r_i_glide_ecoul>
-6.00349

> <r_i_glide_energy>
-47.3242

> <r_i_glide_einternal>
2.81112

> <r_i_glide_emodel>
-61.8556

> <r_glide_XP_HBond>
-0.246102

> <i_i_glide_confnum>
1

> <i_i_glide_posenum>
9

> <r_i_glide_eff_state_penalty>
0.0174

> <i_glide_XP_PoseRank>
1

$$$$
BACE_91.smi:1
                    3D
 Structure written by MMmdl.
 91 94  0  0  1  0            999 V2000
   22.8384   43.5038   -9.9695 C   0  0  0  0  0  0
   23.0360   42.1735  -10.7158 C   0  0  0  0  0  0
   24.2719   41.4158  -10.2099 C   0  0  0  0  0  0
   21.7835   41.3048  -10.6705 C   0  0  0  0  0  0
   21.1795   40.9738   -9.4394 C   0  0  0  0  0  0
   19.9723   40.2397   -9.3970 C   0  0  0  0  0  0
   19.3881   39.7771  -10.6006 C   0  0  0  0  0  0
   20.0109   40.0894  -11.8262 C   0  0  0  0  0  0
   21.1969   40.8448  -11.8653 C   0  0  0  0  0  0
   18.2080   39.0624  -10.6275 O   0  0  0  0  0  0
   17.7727   38.4252   -9.4230 C   0  0  0  0  0  0
   18.5936   37.1461   -9.2039 C   0  0  0  0  0  0
   16.3009   38.0354   -9.6403 C   0  0  0  0  0  0
   17.8696   39.3972   -8.2346 C   0  0  0  0  0  0
   19.2798   40.0017   -8.0607 C   0  0  2  0  0  0
   19.2695   41.2246   -7.2406 N   0  0  0  0  0  0
   18.4205   42.2966   -7.7620 C   0  0  0  0  0  0
   18.7698   43.6607   -7.1690 C   0  0  1  0  0  0
   20.0462   43.9800   -7.6899 O   0  0  0  0  0  0
   17.7301   44.8026   -7.4090 C   0  0  2  0  0  0
   16.5136   44.5296   -8.3389 C   0  0  0  0  0  0
   16.7980   44.4151   -9.8298 C   0  0  0  0  0  0
   16.9783   45.5746  -10.6139 C   0  0  0  0  0  0
   17.2087   45.4698  -12.0077 C   0  0  0  0  0  0
   17.2688   44.1917  -12.5982 C   0  0  0  0  0  0
   17.0847   43.0318  -11.8252 C   0  0  0  0  0  0
   16.8118   43.1479  -10.4530 C   0  0  0  0  0  0
   17.3231   46.5574  -12.8451 O   0  0  0  0  0  0
   18.0712   47.6765  -12.3848 C   0  0  0  0  0  0
   19.5501   47.4912  -12.7552 C   0  0  0  0  0  0
   20.4435   48.5899  -12.1593 C   0  0  0  0  0  0
   20.8377   48.3167  -10.6925 C   0  0  0  0  0  0
   20.6788   49.5331   -9.7598 C   0  0  0  0  0  0
   19.2197   49.7484   -9.3145 C   0  0  0  0  0  0
   18.5139   50.4802  -10.0109 O   0  0  0  0  0  0
   18.7482   49.1539   -8.1856 N   0  0  0  0  0  0
   17.3681   49.4334   -7.7539 C   0  0  0  0  0  0
   19.5376   48.2201   -7.3468 C   0  0  1  0  0  0
   20.3257   48.9855   -6.2620 C   0  0  0  0  0  0
   18.7431   47.0117   -6.8200 C   0  0  0  0  0  0
   18.4603   46.9430   -5.6236 O   0  0  0  0  0  0
   18.3776   46.0816   -7.7193 N   0  0  0  0  0  0
   19.8914   39.2560   -7.5521 H   0  0  0  0  0  0
   18.8647   43.5402   -6.0886 H   0  0  0  0  0  0
   17.2597   44.9105   -6.4400 H   0  0  0  0  0  0
   20.2910   47.7335   -7.9650 H   0  0  0  0  0  0
   21.9738   44.0434  -10.3545 H   0  0  0  0  0  0
   23.7083   44.1504  -10.0872 H   0  0  0  0  0  0
   22.6875   43.3533   -8.9010 H   0  0  0  0  0  0
   23.2235   42.4281  -11.7606 H   0  0  0  0  0  0
   24.4688   40.5483  -10.8386 H   0  0  0  0  0  0
   24.1446   41.0673   -9.1853 H   0  0  0  0  0  0
   25.1609   42.0467  -10.2432 H   0  0  0  0  0  0
   21.6243   41.3166   -8.5172 H   0  0  0  0  0  0
   19.5712   39.7501  -12.7497 H   0  0  0  0  0  0
   21.6552   41.0749  -12.8167 H   0  0  0  0  0  0
   18.2637   36.6271   -8.3037 H   0  0  0  0  0  0
   19.6595   37.3507   -9.1062 H   0  0  0  0  0  0
   18.4600   36.4597  -10.0390 H   0  0  0  0  0  0
   15.8748   37.5923   -8.7380 H   0  0  0  0  0  0
   16.2006   37.3037  -10.4393 H   0  0  0  0  0  0
   15.6928   38.9006   -9.9041 H   0  0  0  0  0  0
   17.5477   38.9206   -7.3066 H   0  0  0  0  0  0
   17.1368   40.1758   -8.4362 H   0  0  0  0  0  0
   18.9466   40.9998   -6.2947 H   0  0  0  0  0  0
   18.5337   42.3534   -8.8412 H   0  0  0  0  0  0
   17.3808   42.0674   -7.5337 H   0  0  0  0  0  0
   20.5562   43.1814   -7.6491 H   0  0  0  0  0  0
   15.9722   43.6443   -8.0065 H   0  0  0  0  0  0
   15.7986   45.3434   -8.2118 H   0  0  0  0  0  0
   16.8874   46.5361  -10.1328 H   0  0  0  0  0  0
   17.4536   44.1042  -13.6561 H   0  0  0  0  0  0
   17.1378   42.0519  -12.2799 H   0  0  0  0  0  0
   16.6289   42.2492   -9.8812 H   0  0  0  0  0  0
   17.9594   47.8732  -11.3217 H   0  0  0  0  0  0
   17.6843   48.5634  -12.8873 H   0  0  0  0  0  0
   19.9055   46.5110  -12.4367 H   0  0  0  0  0  0
   19.6390   47.5018  -13.8417 H   0  0  0  0  0  0
   19.9457   49.5558  -12.2654 H   0  0  0  0  0  0
   21.3568   48.6686  -12.7514 H   0  0  0  0  0  0
   20.2639   47.4771  -10.2975 H   0  0  0  0  0  0
   21.8767   47.9831  -10.6686 H   0  0  0  0  0  0
   21.0242   50.4330  -10.2702 H   0  0  0  0  0  0
   21.3414   49.4345   -8.9007 H   0  0  0  0  0  0
   17.0386   50.4389   -8.0141 H   0  0  0  0  0  0
   17.2632   49.3474   -6.6721 H   0  0  0  0  0  0
   16.6869   48.7239   -8.2233 H   0  0  0  0  0  0
   20.9812   49.7434   -6.6886 H   0  0  0  0  0  0
   20.9494   48.3060   -5.6798 H   0  0  0  0  0  0
   19.6594   49.4881   -5.5634 H   0  0  0  0  0  0
   18.6940   46.1939   -8.6712 H   0  0  0  0  0  0
  1  2  1  0  0  0
  1 47  1  0  0  0
  1 48  1  0  0  0
  1 49  1  0  0  0
  2  3  1  0  0  0
  2  4  1  0  0  0
  2 50  1  0  0  0
  3 51  1  0  0  0
  3 52  1  0  0  0
  3 53  1  0  0  0
  4  9  1  0  0  0
  4  5  2  0  0  0
  5  6  1  0  0  0
  5 54  1  0  0  0
  6 15  1  0  0  0
  6  7  2  0  0  0
  7  8  1  0  0  0
  7 10  1  0  0  0
  8  9  2  0  0  0
  8 55  1  0  0  0
  9 56  1  0  0  0
 10 11  1  0  0  0
 11 12  1  0  0  0
 11 13  1  0  0  0
 11 14  1  0  0  0
 12 57  1  0  0  0
 12 58  1  0  0  0
 12 59  1  0  0  0
 13 60  1  0  0  0
 13 61  1  0  0  0
 13 62  1  0  0  0
 14 15  1  0  0  0
 14 63  1  0  0  0
 14 64  1  0  0  0
 15 43  1  0  0  0
 15 16  1  0  0  0
 16 17  1  0  0  0
 16 65  1  0  0  0
 17 18  1  0  0  0
 17 66  1  0  0  0
 17 67  1  0  0  0
 18 44  1  0  0  0
 18 19  1  0  0  0
 18 20  1  0  0  0
 19 68  1  0  0  0
 20 45  1  0  0  0
 20 42  1  0  0  0
 20 21  1  0  0  0
 21 22  1  0  0  0
 21 69  1  0  0  0
 21 70  1  0  0  0
 22 27  1  0  0  0
 22 23  2  0  0  0
 23 24  1  0  0  0
 23 71  1  0  0  0
 24 25  2  0  0  0
 24 28  1  0  0  0
 25 26  1  0  0  0
 25 72  1  0  0  0
 26 27  2  0  0  0
 26 73  1  0  0  0
 27 74  1  0  0  0
 28 29  1  0  0  0
 29 30  1  0  0  0
 29 75  1  0  0  0
 29 76  1  0  0  0
 30 31  1  0  0  0
 30 77  1  0  0  0
 30 78  1  0  0  0
 31 32  1  0  0  0
 31 79  1  0  0  0
 31 80  1  0  0  0
 32 33  1  0  0  0
 32 81  1  0  0  0
 32 82  1  0  0  0
 33 34  1  0  0  0
 33 83  1  0  0  0
 33 84  1  0  0  0
 34 35  2  0  0  0
 34 36  1  0  0  0
 36 37  1  0  0  0
 36 38  1  0  0  0
 37 85  1  0  0  0
 37 86  1  0  0  0
 37 87  1  0  0  0
 38 46  1  0  0  0
 38 39  1  0  0  0
 38 40  1  0  0  0
 39 88  1  0  0  0
 39 89  1  0  0  0
 39 90  1  0  0  0
 40 41  2  0  0  0
 40 42  1  0  0  0
 42 91  1  0  0  0
M  END
> <s_m_source_file>
BACE_91.smi

> <i_m_source_file_index>
1

> <i_lp_mmshare_version>
42013

> <i_f3d_flags>
0

> <s_epik_input>
W0NIM11bQ0hdKFtDSDNdKWMoW2NIXTEpW2NIXVtjSF1jKGMxMilPQyhbQ0gzXSkoW0NIM10pW0NIMl1bQ0BASF0yW05IXVtDSDJdW0NAQEhdKFtPSF0pW0NASF0oW0NIMl0zKVtOSF1DKD1PKVtDQEhdKFtDSDNdKU4oW0NIM10pQyg9TylbQ0gyXVtDSDJdW0NIMl1bQ0gyXVtDSDJdT2MoW2NIXWMzNClbY0hdW2NIXVtjSF00

> <s_epik_cmdline>
J2VwaWtfcHl0aG9uJywgJy1waCcsICc3LjAnLCAnLXRuJywgJzgnLCAnLW1hJywgJzIwMCcsICctaW1hZScsICc8aW5maWxlLm1hZT4nLCAnLW9tYWUnLCAnPG91dGZpbGUubWFlPic=

> <r_lp_tautomer_probability>
1

> <r_epik_Ionization_Penalty>
  1.9707

> <r_epik_Ionization_Penalty_Charging>
  0.0000

> <r_epik_Ionization_Penalty_Neutral>
  1.9707

> <r_epik_State_Penalty>
  2.0972

> <r_epik_Charging_Adjusted_Penalty>
2.09724

> <i_epik_Tot_Q>
0

> <i_epik_Tot_abs_Q>
0

> <s_lp_Force_Field>
OPLS_2005

> <r_lp_Energy>
50.6926

> <b_lp_Chiralities_Consistent>
1

> <s_lp_Variant>
BACE_91.smi:1-2

> <chiral flag>
1

> <version>
0

> <s_i_glide_gridfile>
second_dock_grid_2

> <i_i_glide_lignum>
185

> <i_i_glide_rotatable_bonds>
6

> <r_i_docking_score>
-0.74583

> <r_i_glide_ligand_efficiency>
-0.0177579

> <r_i_glide_ligand_efficiency_sa>
-0.0617268

> <r_i_glide_ligand_efficiency_ln>
-0.157426

> <r_glide_XP_GScore>
-2.84303

> <r_i_glide_gscore>
-2.84303

> <r_i_glide_evdw>
-38.4996

> <r_i_glide_ecoul>
-9.23211

> <r_i_glide_energy>
-47.7317

> <r_i_glide_einternal>
5.27983

> <r_i_glide_emodel>
-66.2626

> <r_glide_XP_HBond>
-1.22004

> <i_i_glide_confnum>
1

> <i_i_glide_posenum>
3

> <r_i_glide_eff_state_penalty>
2.0972

> <i_glide_XP_PoseRank>
1

$$$$
BACE_92.smi:1
                    3D
 Structure written by MMmdl.
 81 83  0  0  1  0            999 V2000
   31.4207   41.8988  -13.2210 C   0  0  0  0  0  0
   30.7839   43.1338  -12.5687 C   0  0  2  0  0  0
   31.8622   44.1160  -12.0513 C   0  0  0  0  0  0
   31.2903   45.5017  -11.6996 C   0  0  0  0  0  0
   30.7338   46.1553  -12.5785 O   0  0  0  0  0  0
   31.4005   45.9903  -10.4555 N   0  0  0  0  0  0
   31.9342   45.3172   -9.2797 C   0  0  0  0  0  0
   31.6292   46.1283   -8.0074 C   0  0  0  0  0  0
   31.9735   45.3868   -6.7034 C   0  0  0  0  0  0
   31.0102   44.2451   -6.3211 C   0  0  0  0  0  0
   29.8028   44.7389   -5.7369 O   0  0  0  0  0  0
   28.6159   44.6938   -6.4413 C   0  0  0  0  0  0
   28.5193   44.5501   -7.8485 C   0  0  0  0  0  0
   27.2625   44.4720   -8.4860 C   0  0  0  0  0  0
   27.1944   44.3452   -9.9997 C   0  0  0  0  0  0
   27.5250   42.9212  -10.5416 C   0  0  2  0  0  0
   28.5534   43.0243  -11.5740 N   0  0  0  0  0  0
   29.8484   42.7025  -11.4275 C   0  0  0  0  0  0
   30.3026   42.1465  -10.4280 O   0  0  0  0  0  0
   26.3215   42.1237  -11.1134 C   0  0  2  0  0  0
   25.5456   42.9505  -11.9670 O   0  0  0  0  0  0
   25.4513   41.5427   -9.9815 C   0  0  0  0  0  0
   24.1784   40.9501  -10.4390 N   0  3  0  0  0  0
   22.9884   41.7863  -10.1827 C   0  0  0  0  0  0
   21.7222   41.0306  -10.5238 C   0  0  0  0  0  0
   21.0053   40.3500   -9.5151 C   0  0  0  0  0  0
   19.8002   39.6647   -9.8151 C   0  0  0  0  0  0
   19.3410   39.6787  -11.1532 C   0  0  0  0  0  0
   20.0601   40.3485  -12.1602 C   0  0  0  0  0  0
   21.2480   41.0265  -11.8491 C   0  0  0  0  0  0
   18.9741   38.9302   -8.7364 C   0  0  0  0  0  0
   17.5882   39.5937   -8.6114 C   0  0  0  0  0  0
   19.6344   38.9550   -7.3392 C   0  0  0  0  0  0
   18.7878   37.4525   -9.1351 C   0  0  0  0  0  0
   26.0856   44.5521   -7.7138 C   0  0  0  0  0  0
   26.1694   44.7063   -6.3183 C   0  0  0  0  0  0
   27.4263   44.7789   -5.6903 C   0  0  0  0  0  0
   30.1906   43.6322  -13.3386 H   0  0  0  0  0  0
   27.9380   42.3299   -9.7191 H   0  0  0  0  0  0
   26.6962   41.2864  -11.7052 H   0  0  0  0  0  0
   30.6608   41.2139  -13.6038 H   0  0  0  0  0  0
   32.0446   41.3509  -12.5130 H   0  0  0  0  0  0
   32.0516   42.1803  -14.0652 H   0  0  0  0  0  0
   32.4226   43.6729  -11.2289 H   0  0  0  0  0  0
   32.5963   44.2786  -12.8386 H   0  0  0  0  0  0
   31.0282   46.9179  -10.3081 H   0  0  0  0  0  0
   31.5038   44.3191   -9.2060 H   0  0  0  0  0  0
   33.0110   45.1897   -9.3889 H   0  0  0  0  0  0
   32.2082   47.0518   -8.0413 H   0  0  0  0  0  0
   30.5847   46.4392   -7.9811 H   0  0  0  0  0  0
   32.9857   44.9876   -6.7836 H   0  0  0  0  0  0
   32.0058   46.1011   -5.8792 H   0  0  0  0  0  0
   30.8601   43.5375   -7.1352 H   0  0  0  0  0  0
   31.4898   43.6571   -5.5389 H   0  0  0  0  0  0
   29.3996   44.4833   -8.4645 H   0  0  0  0  0  0
   26.2202   44.6967  -10.3367 H   0  0  0  0  0  0
   27.9016   45.0726  -10.4004 H   0  0  0  0  0  0
   28.2739   43.4649  -12.4380 H   0  0  0  0  0  0
   25.0443   42.4035  -12.5600 H   0  0  0  0  0  0
   26.0216   40.7384   -9.5127 H   0  0  0  0  0  0
   25.2611   42.2830   -9.2041 H   0  0  0  0  0  0
   24.2253   40.7372  -11.4324 H   0  0  0  0  0  0
   22.9557   42.0848   -9.1312 H   0  0  0  0  0  0
   23.0463   42.7051  -10.7714 H   0  0  0  0  0  0
   21.3932   40.3741   -8.5071 H   0  0  0  0  0  0
   18.4262   39.1750  -11.4217 H   0  0  0  0  0  0
   19.6909   40.3414  -13.1751 H   0  0  0  0  0  0
   21.7947   41.5375  -12.6291 H   0  0  0  0  0  0
   16.9857   39.1111   -7.8415 H   0  0  0  0  0  0
   17.0211   39.5392   -9.5407 H   0  0  0  0  0  0
   17.6762   40.6480   -8.3406 H   0  0  0  0  0  0
   19.7472   39.9715   -6.9607 H   0  0  0  0  0  0
   20.6162   38.4794   -7.3451 H   0  0  0  0  0  0
   19.0259   38.4156   -6.6100 H   0  0  0  0  0  0
   18.2149   36.9116   -8.3803 H   0  0  0  0  0  0
   19.7501   36.9537   -9.2399 H   0  0  0  0  0  0
   18.2543   37.3383  -10.0774 H   0  0  0  0  0  0
   25.1156   44.5106   -8.1872 H   0  0  0  0  0  0
   25.2713   44.7670   -5.7223 H   0  0  0  0  0  0
   27.4793   44.8912   -4.6168 H   0  0  0  0  0  0
   24.0609   40.0690   -9.9491 H   0  0  0  0  0  0
  1  2  1  0  0  0
  1 41  1  0  0  0
  1 42  1  0  0  0
  1 43  1  0  0  0
  2 38  1  0  0  0
  2 18  1  0  0  0
  2  3  1  0  0  0
  3  4  1  0  0  0
  3 44  1  0  0  0
  3 45  1  0  0  0
  4  5  2  0  0  0
  4  6  1  0  0  0
  6  7  1  0  0  0
  6 46  1  0  0  0
  7  8  1  0  0  0
  7 47  1  0  0  0
  7 48  1  0  0  0
  8  9  1  0  0  0
  8 49  1  0  0  0
  8 50  1  0  0  0
  9 10  1  0  0  0
  9 51  1  0  0  0
  9 52  1  0  0  0
 10 11  1  0  0  0
 10 53  1  0  0  0
 10 54  1  0  0  0
 11 12  1  0  0  0
 12 37  1  0  0  0
 12 13  2  0  0  0
 13 14  1  0  0  0
 13 55  1  0  0  0
 14 15  1  0  0  0
 14 35  2  0  0  0
 15 16  1  0  0  0
 15 56  1  0  0  0
 15 57  1  0  0  0
 16 39  1  0  0  0
 16 17  1  0  0  0
 16 20  1  0  0  0
 17 18  1  0  0  0
 17 58  1  0  0  0
 18 19  2  0  0  0
 20 40  1  0  0  0
 20 21  1  0  0  0
 20 22  1  0  0  0
 21 59  1  0  0  0
 22 23  1  0  0  0
 22 60  1  0  0  0
 22 61  1  0  0  0
 23 24  1  0  0  0
 23 62  1  0  0  0
 23 81  1  0  0  0
 24 25  1  0  0  0
 24 63  1  0  0  0
 24 64  1  0  0  0
 25 30  1  0  0  0
 25 26  2  0  0  0
 26 27  1  0  0  0
 26 65  1  0  0  0
 27 28  2  0  0  0
 27 31  1  0  0  0
 28 29  1  0  0  0
 28 66  1  0  0  0
 29 30  2  0  0  0
 29 67  1  0  0  0
 30 68  1  0  0  0
 31 32  1  0  0  0
 31 33  1  0  0  0
 31 34  1  0  0  0
 32 69  1  0  0  0
 32 70  1  0  0  0
 32 71  1  0  0  0
 33 72  1  0  0  0
 33 73  1  0  0  0
 33 74  1  0  0  0
 34 75  1  0  0  0
 34 76  1  0  0  0
 34 77  1  0  0  0
 35 36  1  0  0  0
 35 78  1  0  0  0
 36 37  2  0  0  0
 36 79  1  0  0  0
 37 80  1  0  0  0
M  CHG  1  23   1
M  END
> <s_m_source_file>
BACE_92.smi

> <i_m_source_file_index>
1

> <i_lp_mmshare_version>
42013

> <i_f3d_flags>
0

> <s_epik_input>
TzFbQ0gyXVtDSDJdW0NIMl1bQ0gyXVtOSF1DKD1PKVtDSDJdW0NAQEhdKFtDSDNdKUMoPU8pW05IXVtDQEBIXShbQ0gyXWMoW2NIXWMxMilbY0hdW2NIXVtjSF0yKVtDQEhdKFtPSF0pW0NIMl1bTkhdW0NIMl1jM1tjSF1jKEMoW0NIM10pKFtDSDNdKVtDSDNdKVtjSF1bY0hdW2NIXTM=

> <s_epik_cmdline>
J2VwaWtfcHl0aG9uJywgJy1waCcsICc3LjAnLCAnLXRuJywgJzgnLCAnLW1hJywgJzIwMCcsICctaW1hZScsICc8aW5maWxlLm1hZT4nLCAnLW9tYWUnLCAnPG91dGZpbGUubWFlPic=

> <r_lp_tautomer_probability>
1

> <r_epik_Ionization_Penalty>
  0.0199

> <r_epik_Ionization_Penalty_Charging>
  0.0199

> <r_epik_Ionization_Penalty_Neutral>
  0.0000

> <r_epik_State_Penalty>
  0.0159

> <r_epik_Charging_Adjusted_Penalty>
0.0357555

> <i_epik_Tot_Q>
1

> <i_epik_Tot_abs_Q>
1

> <s_lp_Force_Field>
OPLS_2005

> <r_lp_Energy>
29.5183

> <b_lp_Chiralities_Consistent>
1

> <s_lp_Variant>
BACE_92.smi:1-1

> <chiral flag>
1

> <version>
0

> <s_i_glide_gridfile>
second_dock_grid_2

> <i_i_glide_lignum>
186

> <i_i_glide_rotatable_bonds>
7

> <r_i_docking_score>
-4.62235

> <r_i_glide_ligand_efficiency>
-0.124928

> <r_i_glide_ligand_efficiency_sa>
-0.416289

> <r_i_glide_ligand_efficiency_ln>
-1.00248

> <r_glide_XP_GScore>
-4.63825

> <r_i_glide_gscore>
-4.63825

> <r_i_glide_evdw>
-34.9548

> <r_i_glide_ecoul>
-12.7663

> <r_i_glide_energy>
-47.7211

> <r_i_glide_einternal>
7.5218

> <r_i_glide_emodel>
-59.3214

> <r_glide_XP_HBond>
-1.25974

> <i_i_glide_confnum>
1

> <i_i_glide_posenum>
7

> <r_i_glide_eff_state_penalty>
0.0159

> <i_glide_XP_PoseRank>
1

$$$$
BACE_92.smi:1
                    3D
 Structure written by MMmdl.
 80 82  0  0  1  0            999 V2000
   19.4315   44.3609  -11.2902 C   0  0  0  0  0  0
   19.0651   43.0151  -10.6376 C   0  0  2  0  0  0
   17.6882   43.0640   -9.9226 C   0  0  0  0  0  0
   16.5014   42.7041  -10.8383 C   0  0  0  0  0  0
   16.5593   42.9582  -12.0401 O   0  0  0  0  0  0
   15.4026   42.1246  -10.3237 N   0  0  0  0  0  0
   15.1428   41.7436   -8.9381 C   0  0  0  0  0  0
   15.7585   40.3794   -8.5741 C   0  0  0  0  0  0
   15.2777   39.2112   -9.4540 C   0  0  0  0  0  0
   15.8914   37.8441   -9.0937 C   0  0  0  0  0  0
   17.2575   37.7509   -9.4964 O   0  0  0  0  0  0
   18.2567   38.2255   -8.6718 C   0  0  0  0  0  0
   19.4846   38.5481   -9.2855 C   0  0  0  0  0  0
   20.5594   39.0666   -8.5334 C   0  0  0  0  0  0
   21.8704   39.4288   -9.2123 C   0  0  0  0  0  0
   22.0823   40.9510   -9.3964 C   0  0  2  0  0  0
   20.9289   41.5231  -10.0961 N   0  0  0  0  0  0
   20.1813   42.5613   -9.6862 C   0  0  0  0  0  0
   20.3634   43.1513   -8.6210 O   0  0  0  0  0  0
   23.3889   41.2710  -10.1681 C   0  0  2  0  0  0
   24.4904   40.9485   -9.3407 O   0  0  0  0  0  0
   23.5482   42.7573  -10.5565 C   0  0  0  0  0  0
   24.6948   42.9496  -11.4382 N   0  0  0  0  0  0
   25.9684   42.6439  -10.7960 C   0  0  0  0  0  0
   27.1446   42.9243  -11.7095 C   0  0  0  0  0  0
   27.3427   44.2192  -12.2317 C   0  0  0  0  0  0
   28.4393   44.5083  -13.0795 C   0  0  0  0  0  0
   29.3370   43.4574  -13.3950 C   0  0  0  0  0  0
   29.1414   42.1627  -12.8775 C   0  0  0  0  0  0
   28.0482   41.8944  -12.0351 C   0  0  0  0  0  0
   28.6197   45.9381  -13.6246 C   0  0  0  0  0  0
   29.8746   46.0913  -14.5141 C   0  0  0  0  0  0
   28.7580   46.9278  -12.4485 C   0  0  0  0  0  0
   27.3929   46.3257  -14.4757 C   0  0  0  0  0  0
   20.4124   39.2509   -7.1447 C   0  0  0  0  0  0
   19.1995   38.9162   -6.5162 C   0  0  0  0  0  0
   18.1274   38.4035   -7.2712 C   0  0  0  0  0  0
   19.0184   42.2692  -11.4340 H   0  0  0  0  0  0
   22.1582   41.3942   -8.4017 H   0  0  0  0  0  0
   23.4278   40.6468  -11.0625 H   0  0  0  0  0  0
   20.4052   44.3114  -11.7794 H   0  0  0  0  0  0
   19.4712   45.1648  -10.5543 H   0  0  0  0  0  0
   18.7024   44.6445  -12.0491 H   0  0  0  0  0  0
   17.7064   42.3984   -9.0626 H   0  0  0  0  0  0
   17.5111   44.0594   -9.5142 H   0  0  0  0  0  0
   14.6589   41.9212  -10.9760 H   0  0  0  0  0  0
   15.5002   42.5182   -8.2586 H   0  0  0  0  0  0
   14.0620   41.7011   -8.8024 H   0  0  0  0  0  0
   16.8403   40.4553   -8.6385 H   0  0  0  0  0  0
   15.5346   40.1577   -7.5303 H   0  0  0  0  0  0
   14.1930   39.1386   -9.3687 H   0  0  0  0  0  0
   15.4845   39.4205  -10.5039 H   0  0  0  0  0  0
   15.7121   37.5768   -8.0543 H   0  0  0  0  0  0
   15.3631   37.0823   -9.6673 H   0  0  0  0  0  0
   19.5933   38.4121  -10.3517 H   0  0  0  0  0  0
   22.6810   39.0029   -8.6201 H   0  0  0  0  0  0
   21.9154   38.9307  -10.1819 H   0  0  0  0  0  0
   20.6951   41.1062  -10.9856 H   0  0  0  0  0  0
   24.6132   40.0117   -9.3575 H   0  0  0  0  0  0
   22.6613   43.1108  -11.0799 H   0  0  0  0  0  0
   23.6353   43.3764   -9.6624 H   0  0  0  0  0  0
   24.5804   42.3509  -12.2500 H   0  0  0  0  0  0
   26.0817   43.2354   -9.8864 H   0  0  0  0  0  0
   25.9967   41.5967  -10.4924 H   0  0  0  0  0  0
   26.6400   44.9965  -11.9703 H   0  0  0  0  0  0
   30.1906   43.6142  -14.0353 H   0  0  0  0  0  0
   29.8344   41.3730  -13.1279 H   0  0  0  0  0  0
   27.9078   40.8987  -11.6402 H   0  0  0  0  0  0
   29.9743   47.1124  -14.8837 H   0  0  0  0  0  0
   29.8326   45.4406  -15.3884 H   0  0  0  0  0  0
   30.7886   45.8623  -13.9646 H   0  0  0  0  0  0
   29.6094   46.6710  -11.8165 H   0  0  0  0  0  0
   27.8714   46.9417  -11.8145 H   0  0  0  0  0  0
   28.9107   47.9476  -12.8039 H   0  0  0  0  0  0
   27.5000   47.3281  -14.8916 H   0  0  0  0  0  0
   26.4703   46.3184  -13.8951 H   0  0  0  0  0  0
   27.2599   45.6373  -15.3113 H   0  0  0  0  0  0
   21.2292   39.6476   -6.5595 H   0  0  0  0  0  0
   19.0898   39.0541   -5.4507 H   0  0  0  0  0  0
   17.2183   38.1601   -6.7457 H   0  0  0  0  0  0
  1  2  1  0  0  0
  1 41  1  0  0  0
  1 42  1  0  0  0
  1 43  1  0  0  0
  2 38  1  0  0  0
  2 18  1  0  0  0
  2  3  1  0  0  0
  3  4  1  0  0  0
  3 44  1  0  0  0
  3 45  1  0  0  0
  4  5  2  0  0  0
  4  6  1  0  0  0
  6  7  1  0  0  0
  6 46  1  0  0  0
  7  8  1  0  0  0
  7 47  1  0  0  0
  7 48  1  0  0  0
  8  9  1  0  0  0
  8 49  1  0  0  0
  8 50  1  0  0  0
  9 10  1  0  0  0
  9 51  1  0  0  0
  9 52  1  0  0  0
 10 11  1  0  0  0
 10 53  1  0  0  0
 10 54  1  0  0  0
 11 12  1  0  0  0
 12 37  1  0  0  0
 12 13  2  0  0  0
 13 14  1  0  0  0
 13 55  1  0  0  0
 14 15  1  0  0  0
 14 35  2  0  0  0
 15 16  1  0  0  0
 15 56  1  0  0  0
 15 57  1  0  0  0
 16 39  1  0  0  0
 16 17  1  0  0  0
 16 20  1  0  0  0
 17 18  1  0  0  0
 17 58  1  0  0  0
 18 19  2  0  0  0
 20 40  1  0  0  0
 20 21  1  0  0  0
 20 22  1  0  0  0
 21 59  1  0  0  0
 22 23  1  0  0  0
 22 60  1  0  0  0
 22 61  1  0  0  0
 23 24  1  0  0  0
 23 62  1  0  0  0
 24 25  1  0  0  0
 24 63  1  0  0  0
 24 64  1  0  0  0
 25 30  1  0  0  0
 25 26  2  0  0  0
 26 27  1  0  0  0
 26 65  1  0  0  0
 27 28  2  0  0  0
 27 31  1  0  0  0
 28 29  1  0  0  0
 28 66  1  0  0  0
 29 30  2  0  0  0
 29 67  1  0  0  0
 30 68  1  0  0  0
 31 32  1  0  0  0
 31 33  1  0  0  0
 31 34  1  0  0  0
 32 69  1  0  0  0
 32 70  1  0  0  0
 32 71  1  0  0  0
 33 72  1  0  0  0
 33 73  1  0  0  0
 33 74  1  0  0  0
 34 75  1  0  0  0
 34 76  1  0  0  0
 34 77  1  0  0  0
 35 36  1  0  0  0
 35 78  1  0  0  0
 36 37  2  0  0  0
 36 79  1  0  0  0
 37 80  1  0  0  0
M  END
> <s_m_source_file>
BACE_92.smi

> <i_m_source_file_index>
1

> <i_lp_mmshare_version>
42013

> <i_f3d_flags>
0

> <s_epik_input>
TzFbQ0gyXVtDSDJdW0NIMl1bQ0gyXVtOSF1DKD1PKVtDSDJdW0NAQEhdKFtDSDNdKUMoPU8pW05IXVtDQEBIXShbQ0gyXWMoW2NIXWMxMilbY0hdW2NIXVtjSF0yKVtDQEhdKFtPSF0pW0NIMl1bTkhdW0NIMl1jM1tjSF1jKEMoW0NIM10pKFtDSDNdKVtDSDNdKVtjSF1bY0hdW2NIXTM=

> <s_epik_cmdline>
J2VwaWtfcHl0aG9uJywgJy1waCcsICc3LjAnLCAnLXRuJywgJzgnLCAnLW1hJywgJzIwMCcsICctaW1hZScsICc8aW5maWxlLm1hZT4nLCAnLW9tYWUnLCAnPG91dGZpbGUubWFlPic=

> <r_lp_tautomer_probability>
1

> <r_epik_Ionization_Penalty>
  2.0216

> <r_epik_Ionization_Penalty_Charging>
  0.0000

> <r_epik_Ionization_Penalty_Neutral>
  2.0216

> <r_epik_State_Penalty>
  2.1519

> <r_epik_Charging_Adjusted_Penalty>
2.15191

> <i_epik_Tot_Q>
0

> <i_epik_Tot_abs_Q>
0

> <s_lp_Force_Field>
OPLS_2005

> <r_lp_Energy>
34.9719

> <b_lp_Chiralities_Consistent>
1

> <s_lp_Variant>
BACE_92.smi:1-2

> <chiral flag>
1

> <version>
0

> <s_i_glide_gridfile>
second_dock_grid_2

> <i_i_glide_lignum>
187

> <i_i_glide_rotatable_bonds>
7

> <r_i_docking_score>
-2.4602

> <r_i_glide_ligand_efficiency>
-0.066492

> <r_i_glide_ligand_efficiency_sa>
-0.221566

> <r_i_glide_ligand_efficiency_ln>
-0.533561

> <r_glide_XP_GScore>
-4.6121

> <r_i_glide_gscore>
-4.6121

> <r_i_glide_evdw>
-35.8095

> <r_i_glide_ecoul>
-13.3276

> <r_i_glide_energy>
-49.137

> <r_i_glide_einternal>
6.08376

> <r_i_glide_emodel>
-72.3341

> <r_glide_XP_HBond>
-1.58844

> <i_i_glide_confnum>
1

> <i_i_glide_posenum>
5

> <r_i_glide_eff_state_penalty>
2.1519

> <i_glide_XP_PoseRank>
1

$$$$
BACE_93.smi:1
                    3D
 Structure written by MMmdl.
 94 97  0  0  1  0            999 V2000
   24.6785   46.4683  -10.3590 C   0  0  0  0  0  0
   23.6728   45.4061   -9.8734 C   0  0  2  0  0  0
   22.7334   44.9208  -10.9992 C   0  0  0  0  0  0
   23.3992   43.8433  -11.8633 C   0  0  0  0  0  0
   24.0600   44.1810  -12.8407 O   0  0  0  0  0  0
   23.2319   42.5500  -11.5518 N   0  0  0  0  0  0
   22.7183   42.0032  -10.3011 C   0  0  0  0  0  0
   23.5464   40.7791   -9.8853 C   0  0  0  0  0  0
   23.4174   40.4353   -8.3954 C   0  0  0  0  0  0
   22.0393   39.8783   -7.9995 C   0  0  0  0  0  0
   21.9733   39.6901   -6.5916 O   0  0  0  0  0  0
   21.8630   40.7946   -5.7717 C   0  0  0  0  0  0
   21.5940   42.1137   -6.2260 C   0  0  0  0  0  0
   21.5074   43.1867   -5.3143 C   0  0  0  0  0  0
   21.1871   44.5956   -5.7998 C   0  0  0  0  0  0
   22.3992   45.4486   -6.2580 C   0  0  2  0  0  0
   22.7959   45.0666   -7.6142 N   0  0  0  0  0  0
   22.8767   45.9031   -8.6620 C   0  0  0  0  0  0
   22.4138   47.0430   -8.6503 O   0  0  0  0  0  0
   23.6381   45.3745   -5.3291 C   0  0  2  0  0  0
   23.2600   45.8163   -4.0402 O   0  0  0  0  0  0
   24.8281   46.2610   -5.7689 C   0  0  0  0  0  0
   26.1161   45.7510   -5.2401 N   0  3  0  0  0  0
   27.3098   46.6432   -5.2571 C   0  0  0  0  0  0
   27.3057   47.6069   -6.4875 C   0  0  0  0  0  0
   28.6137   48.4074   -6.6205 C   0  0  0  0  0  0
   29.8173   47.4692   -6.7778 C   0  0  0  0  0  0
   29.8820   46.4641   -5.6210 C   0  0  0  0  0  0
   28.5439   45.7109   -5.4560 C   0  0  0  0  0  0
   27.3307   47.4089   -3.9109 C   0  0  0  0  0  0
   26.4514   48.4979   -3.6908 C   0  0  0  0  0  0
   26.3918   49.1883   -2.4569 C   0  0  0  0  0  0
   27.2971   48.8164   -1.4378 C   0  0  0  0  0  0
   28.1882   47.7500   -1.6380 C   0  0  0  0  0  0
   28.1867   47.0346   -2.8464 C   0  0  0  0  0  0
   25.3827   50.3361   -2.2719 C   0  0  0  0  0  0
   23.9684   49.8880   -2.7015 C   0  0  0  0  0  0
   25.2664   50.8096   -0.8034 C   0  0  0  0  0  0
   25.8379   51.5182   -3.1446 C   0  0  0  0  0  0
   21.6807   42.9400   -3.9368 C   0  0  0  0  0  0
   21.9415   41.6371   -3.4768 C   0  0  0  0  0  0
   22.0323   40.5727   -4.3909 C   0  0  0  0  0  0
   24.2689   44.5611   -9.5234 H   0  0  0  0  0  0
   22.0573   46.4851   -6.2683 H   0  0  0  0  0  0
   23.9663   44.3347   -5.2632 H   0  0  0  0  0  0
   25.3433   46.0589  -11.1197 H   0  0  0  0  0  0
   25.3034   46.8279   -9.5409 H   0  0  0  0  0  0
   24.1712   47.3301  -10.7932 H   0  0  0  0  0  0
   21.7908   44.5386  -10.6044 H   0  0  0  0  0  0
   22.4533   45.7575  -11.6399 H   0  0  0  0  0  0
   23.6457   41.8758  -12.1946 H   0  0  0  0  0  0
   22.7608   42.7425   -9.5034 H   0  0  0  0  0  0
   21.6696   41.7359  -10.4263 H   0  0  0  0  0  0
   23.2599   39.9192  -10.4901 H   0  0  0  0  0  0
   24.6017   40.9633  -10.0934 H   0  0  0  0  0  0
   23.6647   41.3196   -7.8103 H   0  0  0  0  0  0
   24.1704   39.6951   -8.1274 H   0  0  0  0  0  0
   21.2128   40.4913   -8.3592 H   0  0  0  0  0  0
   21.9025   38.9026   -8.4656 H   0  0  0  0  0  0
   21.4408   42.3262   -7.2719 H   0  0  0  0  0  0
   20.6855   45.1163   -4.9825 H   0  0  0  0  0  0
   20.4440   44.5396   -6.5967 H   0  0  0  0  0  0
   23.1567   44.1301   -7.7312 H   0  0  0  0  0  0
   23.8412   45.3821   -3.4221 H   0  0  0  0  0  0
   24.6348   47.2895   -5.4697 H   0  0  0  0  0  0
   24.9351   46.2778   -6.8510 H   0  0  0  0  0  0
   26.3456   44.9280   -5.7781 H   0  0  0  0  0  0
   27.1753   47.0274   -7.4021 H   0  0  0  0  0  0
   26.4733   48.3080   -6.4687 H   0  0  0  0  0  0
   28.7537   49.0470   -5.7476 H   0  0  0  0  0  0
   28.5547   49.0724   -7.4837 H   0  0  0  0  0  0
   29.7458   46.9337   -7.7258 H   0  0  0  0  0  0
   30.7417   48.0486   -6.8180 H   0  0  0  0  0  0
   30.1540   46.9925   -4.7073 H   0  0  0  0  0  0
   30.6884   45.7529   -5.8015 H   0  0  0  0  0  0
   28.3963   45.1191   -6.3621 H   0  0  0  0  0  0
   28.6218   44.9715   -4.6578 H   0  0  0  0  0  0
   25.7971   48.8207   -4.4795 H   0  0  0  0  0  0
   27.3259   49.3231   -0.4865 H   0  0  0  0  0  0
   28.8619   47.4568   -0.8459 H   0  0  0  0  0  0
   28.8722   46.2070   -2.9236 H   0  0  0  0  0  0
   23.9049   49.6461   -3.7617 H   0  0  0  0  0  0
   23.2300   50.6686   -2.5154 H   0  0  0  0  0  0
   23.6602   49.0026   -2.1443 H   0  0  0  0  0  0
   26.2024   51.2129   -0.4219 H   0  0  0  0  0  0
   24.9601   49.9972   -0.1430 H   0  0  0  0  0  0
   24.5260   51.6046   -0.7035 H   0  0  0  0  0  0
   26.8869   51.7500   -2.9579 H   0  0  0  0  0  0
   25.2606   52.4169   -2.9321 H   0  0  0  0  0  0
   25.7458   51.2978   -4.2086 H   0  0  0  0  0  0
   21.6036   43.7498   -3.2269 H   0  0  0  0  0  0
   22.0647   41.4545   -2.4212 H   0  0  0  0  0  0
   22.2311   39.5746   -4.0305 H   0  0  0  0  0  0
   25.9721   45.4531   -4.2796 H   0  0  0  0  0  0
  1  2  1  0  0  0
  1 46  1  0  0  0
  1 47  1  0  0  0
  1 48  1  0  0  0
  2 43  1  0  0  0
  2 18  1  0  0  0
  2  3  1  0  0  0
  3  4  1  0  0  0
  3 49  1  0  0  0
  3 50  1  0  0  0
  4  5  2  0  0  0
  4  6  1  0  0  0
  6  7  1  0  0  0
  6 51  1  0  0  0
  7  8  1  0  0  0
  7 52  1  0  0  0
  7 53  1  0  0  0
  8  9  1  0  0  0
  8 54  1  0  0  0
  8 55  1  0  0  0
  9 10  1  0  0  0
  9 56  1  0  0  0
  9 57  1  0  0  0
 10 11  1  0  0  0
 10 58  1  0  0  0
 10 59  1  0  0  0
 11 12  1  0  0  0
 12 42  1  0  0  0
 12 13  2  0  0  0
 13 14  1  0  0  0
 13 60  1  0  0  0
 14 15  1  0  0  0
 14 40  2  0  0  0
 15 16  1  0  0  0
 15 61  1  0  0  0
 15 62  1  0  0  0
 16 44  1  0  0  0
 16 17  1  0  0  0
 16 20  1  0  0  0
 17 18  1  0  0  0
 17 63  1  0  0  0
 18 19  2  0  0  0
 20 45  1  0  0  0
 20 21  1  0  0  0
 20 22  1  0  0  0
 21 64  1  0  0  0
 22 23  1  0  0  0
 22 65  1  0  0  0
 22 66  1  0  0  0
 23 24  1  0  0  0
 23 67  1  0  0  0
 23 94  1  0  0  0
 24 29  1  0  0  0
 24 25  1  0  0  0
 24 30  1  0  0  0
 25 26  1  0  0  0
 25 68  1  0  0  0
 25 69  1  0  0  0
 26 27  1  0  0  0
 26 70  1  0  0  0
 26 71  1  0  0  0
 27 28  1  0  0  0
 27 72  1  0  0  0
 27 73  1  0  0  0
 28 29  1  0  0  0
 28 74  1  0  0  0
 28 75  1  0  0  0
 29 76  1  0  0  0
 29 77  1  0  0  0
 30 35  1  0  0  0
 30 31  2  0  0  0
 31 32  1  0  0  0
 31 78  1  0  0  0
 32 33  2  0  0  0
 32 36  1  0  0  0
 33 34  1  0  0  0
 33 79  1  0  0  0
 34 35  2  0  0  0
 34 80  1  0  0  0
 35 81  1  0  0  0
 36 37  1  0  0  0
 36 38  1  0  0  0
 36 39  1  0  0  0
 37 82  1  0  0  0
 37 83  1  0  0  0
 37 84  1  0  0  0
 38 85  1  0  0  0
 38 86  1  0  0  0
 38 87  1  0  0  0
 39 88  1  0  0  0
 39 89  1  0  0  0
 39 90  1  0  0  0
 40 41  1  0  0  0
 40 91  1  0  0  0
 41 42  2  0  0  0
 41 92  1  0  0  0
 42 93  1  0  0  0
M  CHG  1  23   1
M  END
> <s_m_source_file>
BACE_93.smi

> <i_m_source_file_index>
1

> <i_lp_mmshare_version>
42013

> <i_f3d_flags>
0

> <s_epik_input>
TzFbQ0gyXVtDSDJdW0NIMl1bQ0gyXVtOSF1DKD1PKVtDSDJdW0NAQEhdKFtDSDNdKUMoPU8pW05IXVtDQEBIXShbQ0gyXWMoW2NIXWMxMilbY0hdW2NIXVtjSF0yKVtDQEhdKFtPSF0pW0NIMl1bTkhdQzMoW0NIMl1bQ0gyXVtDSDJdW0NIMl1bQ0gyXTMpYzRbY0hdYyhDKFtDSDNdKShbQ0gzXSlbQ0gzXSlbY0hdW2NIXVtjSF00

> <s_epik_cmdline>
J2VwaWtfcHl0aG9uJywgJy1waCcsICc3LjAnLCAnLXRuJywgJzgnLCAnLW1hJywgJzIwMCcsICctaW1hZScsICc8aW5maWxlLm1hZT4nLCAnLW9tYWUnLCAnPG91dGZpbGUubWFlPic=

> <r_lp_tautomer_probability>
1

> <r_epik_Ionization_Penalty>
  0.0120

> <r_epik_Ionization_Penalty_Charging>
  0.0120

> <r_epik_Ionization_Penalty_Neutral>
  0.0000

> <r_epik_State_Penalty>
  0.0092

> <r_epik_Charging_Adjusted_Penalty>
0.0211899

> <i_epik_Tot_Q>
1

> <i_epik_Tot_abs_Q>
1

> <s_lp_Force_Field>
OPLS_2005

> <r_lp_Energy>
42.4445

> <b_lp_Chiralities_Consistent>
1

> <s_lp_Variant>
BACE_93.smi:1-1

> <chiral flag>
1

> <version>
0

> <s_i_glide_gridfile>
second_dock_grid_2

> <i_i_glide_lignum>
188

> <i_i_glide_rotatable_bonds>
7

> <r_i_docking_score>
-5.70836

> <r_i_glide_ligand_efficiency>
-0.135913

> <r_i_glide_ligand_efficiency_sa>
-0.472439

> <r_i_glide_ligand_efficiency_ln>
-1.20489

> <r_glide_XP_GScore>
-5.71756

> <r_i_glide_gscore>
-5.71756

> <r_i_glide_evdw>
-33.7303

> <r_i_glide_ecoul>
-14.7585

> <r_i_glide_energy>
-48.4888

> <r_i_glide_einternal>
3.86643

> <r_i_glide_emodel>
-67.0147

> <r_glide_XP_HBond>
-1.80063

> <i_i_glide_confnum>
1

> <i_i_glide_posenum>
1

> <r_i_glide_eff_state_penalty>
0.0092

> <i_glide_XP_PoseRank>
1

$$$$
BACE_93.smi:1
                    3D
 Structure written by MMmdl.
 93 96  0  0  1  0            999 V2000
   20.7606   48.8563   -5.5870 C   0  0  0  0  0  0
   20.0278   48.4248   -6.8720 C   0  0  2  0  0  0
   19.3148   49.6047   -7.5722 C   0  0  0  0  0  0
   20.2771   50.4580   -8.4115 C   0  0  0  0  0  0
   20.8598   51.4048   -7.8858 O   0  0  0  0  0  0
   20.4513   50.1609   -9.7072 N   0  0  0  0  0  0
   19.8686   49.0169  -10.3988 C   0  0  0  0  0  0
   20.5650   48.7384  -11.7378 C   0  0  0  0  0  0
   20.1167   47.4021  -12.3477 C   0  0  0  0  0  0
   18.6689   47.4055  -12.8719 C   0  0  0  0  0  0
   18.2321   46.0808  -13.1359 O   0  0  0  0  0  0
   17.7575   45.3006  -12.0981 C   0  0  0  0  0  0
   17.6312   45.7220  -10.7456 C   0  0  0  0  0  0
   17.0960   44.8514   -9.7685 C   0  0  0  0  0  0
   16.9476   45.2900   -8.3114 C   0  0  0  0  0  0
   18.1905   45.0750   -7.3988 C   0  0  2  0  0  0
   19.0531   46.2576   -7.4600 N   0  0  0  0  0  0
   19.0336   47.2879   -6.5997 C   0  0  0  0  0  0
   18.2701   47.3541   -5.6374 O   0  0  0  0  0  0
   19.0152   43.7989   -7.7044 C   0  0  2  0  0  0
   18.1814   42.6676   -7.6399 O   0  0  0  0  0  0
   20.2689   43.5648   -6.8242 C   0  0  0  0  0  0
   20.0701   42.6198   -5.7092 N   0  0  0  0  0  0
   21.0744   41.5574   -5.4733 C   0  0  0  0  0  0
   20.6058   40.6307   -4.3175 C   0  0  0  0  0  0
   20.4862   41.3487   -2.9648 C   0  0  0  0  0  0
   21.8183   41.9920   -2.5916 C   0  0  0  0  0  0
   22.3045   42.9308   -3.6989 C   0  0  0  0  0  0
   22.4313   42.2157   -5.0564 C   0  0  0  0  0  0
   21.1591   40.7135   -6.7603 C   0  0  0  0  0  0
   19.9808   40.0971   -7.2501 C   0  0  0  0  0  0
   19.9519   39.3711   -8.4610 C   0  0  0  0  0  0
   21.1604   39.2569   -9.1885 C   0  0  0  0  0  0
   22.3461   39.8445   -8.7123 C   0  0  0  0  0  0
   22.3483   40.5718   -7.5084 C   0  0  0  0  0  0
   18.6266   38.7629   -8.9620 C   0  0  0  0  0  0
   17.8473   38.0918   -7.8088 C   0  0  0  0  0  0
   17.7453   39.8587   -9.5877 C   0  0  0  0  0  0
   18.8647   37.6857  -10.0321 C   0  0  0  0  0  0
   16.6832   43.5567  -10.1494 C   0  0  0  0  0  0
   16.8415   43.1172  -11.4716 C   0  0  0  0  0  0
   17.3707   43.9887  -12.4398 C   0  0  0  0  0  0
   20.7883   48.0243   -7.5452 H   0  0  0  0  0  0
   17.8242   44.9766   -6.3768 H   0  0  0  0  0  0
   19.3673   43.8651   -8.7340 H   0  0  0  0  0  0
   21.5255   49.6020   -5.8012 H   0  0  0  0  0  0
   21.2622   48.0097   -5.1166 H   0  0  0  0  0  0
   20.0727   49.2872   -4.8577 H   0  0  0  0  0  0
   18.8462   50.2545   -6.8388 H   0  0  0  0  0  0
   18.4884   49.2599   -8.1955 H   0  0  0  0  0  0
   21.0717   50.7542  -10.2415 H   0  0  0  0  0  0
   18.8063   49.2084  -10.5530 H   0  0  0  0  0  0
   19.9498   48.1281   -9.7736 H   0  0  0  0  0  0
   21.6429   48.6978  -11.5769 H   0  0  0  0  0  0
   20.3870   49.5550  -12.4384 H   0  0  0  0  0  0
   20.7816   47.1440  -13.1716 H   0  0  0  0  0  0
   20.2475   46.6121  -11.6077 H   0  0  0  0  0  0
   18.6333   47.9617  -13.8101 H   0  0  0  0  0  0
   17.9726   47.9225  -12.2122 H   0  0  0  0  0  0
   17.9340   46.7088  -10.4315 H   0  0  0  0  0  0
   16.1204   44.7183   -7.8874 H   0  0  0  0  0  0
   16.6160   46.3294   -8.2738 H   0  0  0  0  0  0
   19.7196   46.2818   -8.2154 H   0  0  0  0  0  0
   18.5276   42.0884   -6.9731 H   0  0  0  0  0  0
   20.6498   44.5106   -6.4315 H   0  0  0  0  0  0
   21.0628   43.1992   -7.4766 H   0  0  0  0  0  0
   19.1165   42.3834   -5.4198 H   0  0  0  0  0  0
   19.6602   40.1496   -4.5402 H   0  0  0  0  0  0
   21.3211   39.8122   -4.2128 H   0  0  0  0  0  0
   20.1846   40.6392   -2.1941 H   0  0  0  0  0  0
   19.7046   42.1072   -3.0070 H   0  0  0  0  0  0
   21.7298   42.5312   -1.6464 H   0  0  0  0  0  0
   22.5492   41.2027   -2.4431 H   0  0  0  0  0  0
   23.2599   43.3578   -3.4154 H   0  0  0  0  0  0
   21.6102   43.7617   -3.7873 H   0  0  0  0  0  0
   22.7606   42.9351   -5.8081 H   0  0  0  0  0  0
   23.2534   41.4904   -4.9697 H   0  0  0  0  0  0
   19.0678   40.2105   -6.6870 H   0  0  0  0  0  0
   21.2094   38.7256  -10.1260 H   0  0  0  0  0  0
   23.2590   39.7503   -9.2812 H   0  0  0  0  0  0
   23.2668   41.0386   -7.1954 H   0  0  0  0  0  0
   18.4595   37.3542   -7.2938 H   0  0  0  0  0  0
   16.9582   37.5762   -8.1695 H   0  0  0  0  0  0
   17.4950   38.7993   -7.0604 H   0  0  0  0  0  0
   18.2765   40.4020  -10.3694 H   0  0  0  0  0  0
   17.4167   40.5785   -8.8423 H   0  0  0  0  0  0
   16.8458   39.4340  -10.0327 H   0  0  0  0  0  0
   19.2740   38.1012  -10.9546 H   0  0  0  0  0  0
   17.9413   37.1740  -10.2990 H   0  0  0  0  0  0
   19.5607   36.9514   -9.6400 H   0  0  0  0  0  0
   16.2687   42.8815   -9.4137 H   0  0  0  0  0  0
   16.5553   42.1097  -11.7385 H   0  0  0  0  0  0
   17.4813   43.6544  -13.4598 H   0  0  0  0  0  0
  1  2  1  0  0  0
  1 46  1  0  0  0
  1 47  1  0  0  0
  1 48  1  0  0  0
  2 43  1  0  0  0
  2 18  1  0  0  0
  2  3  1  0  0  0
  3  4  1  0  0  0
  3 49  1  0  0  0
  3 50  1  0  0  0
  4  5  2  0  0  0
  4  6  1  0  0  0
  6  7  1  0  0  0
  6 51  1  0  0  0
  7  8  1  0  0  0
  7 52  1  0  0  0
  7 53  1  0  0  0
  8  9  1  0  0  0
  8 54  1  0  0  0
  8 55  1  0  0  0
  9 10  1  0  0  0
  9 56  1  0  0  0
  9 57  1  0  0  0
 10 11  1  0  0  0
 10 58  1  0  0  0
 10 59  1  0  0  0
 11 12  1  0  0  0
 12 42  1  0  0  0
 12 13  2  0  0  0
 13 14  1  0  0  0
 13 60  1  0  0  0
 14 15  1  0  0  0
 14 40  2  0  0  0
 15 16  1  0  0  0
 15 61  1  0  0  0
 15 62  1  0  0  0
 16 44  1  0  0  0
 16 17  1  0  0  0
 16 20  1  0  0  0
 17 18  1  0  0  0
 17 63  1  0  0  0
 18 19  2  0  0  0
 20 45  1  0  0  0
 20 21  1  0  0  0
 20 22  1  0  0  0
 21 64  1  0  0  0
 22 23  1  0  0  0
 22 65  1  0  0  0
 22 66  1  0  0  0
 23 24  1  0  0  0
 23 67  1  0  0  0
 24 29  1  0  0  0
 24 25  1  0  0  0
 24 30  1  0  0  0
 25 26  1  0  0  0
 25 68  1  0  0  0
 25 69  1  0  0  0
 26 27  1  0  0  0
 26 70  1  0  0  0
 26 71  1  0  0  0
 27 28  1  0  0  0
 27 72  1  0  0  0
 27 73  1  0  0  0
 28 29  1  0  0  0
 28 74  1  0  0  0
 28 75  1  0  0  0
 29 76  1  0  0  0
 29 77  1  0  0  0
 30 35  1  0  0  0
 30 31  2  0  0  0
 31 32  1  0  0  0
 31 78  1  0  0  0
 32 33  2  0  0  0
 32 36  1  0  0  0
 33 34  1  0  0  0
 33 79  1  0  0  0
 34 35  2  0  0  0
 34 80  1  0  0  0
 35 81  1  0  0  0
 36 37  1  0  0  0
 36 38  1  0  0  0
 36 39  1  0  0  0
 37 82  1  0  0  0
 37 83  1  0  0  0
 37 84  1  0  0  0
 38 85  1  0  0  0
 38 86  1  0  0  0
 38 87  1  0  0  0
 39 88  1  0  0  0
 39 89  1  0  0  0
 39 90  1  0  0  0
 40 41  1  0  0  0
 40 91  1  0  0  0
 41 42  2  0  0  0
 41 92  1  0  0  0
 42 93  1  0  0  0
M  END
> <s_m_source_file>
BACE_93.smi

> <i_m_source_file_index>
1

> <i_lp_mmshare_version>
42013

> <i_f3d_flags>
0

> <s_epik_input>
TzFbQ0gyXVtDSDJdW0NIMl1bQ0gyXVtOSF1DKD1PKVtDSDJdW0NAQEhdKFtDSDNdKUMoPU8pW05IXVtDQEBIXShbQ0gyXWMoW2NIXWMxMilbY0hdW2NIXVtjSF0yKVtDQEhdKFtPSF0pW0NIMl1bTkhdQzMoW0NIMl1bQ0gyXVtDSDJdW0NIMl1bQ0gyXTMpYzRbY0hdYyhDKFtDSDNdKShbQ0gzXSlbQ0gzXSlbY0hdW2NIXVtjSF00

> <s_epik_cmdline>
J2VwaWtfcHl0aG9uJywgJy1waCcsICc3LjAnLCAnLXRuJywgJzgnLCAnLW1hJywgJzIwMCcsICctaW1hZScsICc8aW5maWxlLm1hZT4nLCAnLW9tYWUnLCAnPG91dGZpbGUubWFlPic=

> <r_lp_tautomer_probability>
1

> <r_epik_Ionization_Penalty>
  2.3184

> <r_epik_Ionization_Penalty_Charging>
  0.0000

> <r_epik_Ionization_Penalty_Neutral>
  2.3184

> <r_epik_State_Penalty>
  2.4704

> <r_epik_Charging_Adjusted_Penalty>
2.47036

> <i_epik_Tot_Q>
0

> <i_epik_Tot_abs_Q>
0

> <s_lp_Force_Field>
OPLS_2005

> <r_lp_Energy>
48.7286

> <b_lp_Chiralities_Consistent>
1

> <s_lp_Variant>
BACE_93.smi:1-2

> <chiral flag>
1

> <version>
0

> <s_i_glide_gridfile>
second_dock_grid_2

> <i_i_glide_lignum>
189

> <i_i_glide_rotatable_bonds>
7

> <r_i_docking_score>
-2.56985

> <r_i_glide_ligand_efficiency>
-0.0611869

> <r_i_glide_ligand_efficiency_sa>
-0.212687

> <r_i_glide_ligand_efficiency_ln>
-0.542429

> <r_glide_XP_GScore>
-5.04025

> <r_i_glide_gscore>
-5.04025

> <r_i_glide_evdw>
-40.6701

> <r_i_glide_ecoul>
-11.4165

> <r_i_glide_energy>
-52.0866

> <r_i_glide_einternal>
6.04895

> <r_i_glide_emodel>
-66.0277

> <r_glide_XP_HBond>
0

> <i_i_glide_confnum>
1

> <i_i_glide_posenum>
5

> <r_i_glide_eff_state_penalty>
2.4704

> <i_glide_XP_PoseRank>
1

$$$$
BACE_94.smi:1
                    3D
 Structure written by MMmdl.
 77 79  0  0  1  0            999 V2000
   15.7700   39.9121   -9.4918 C   0  0  0  0  0  0
   16.6806   38.6853   -9.6563 C   0  0  0  0  0  0
   15.9065   37.3874   -9.3958 C   0  0  0  0  0  0
   17.9252   38.7473   -8.7811 C   0  0  0  0  0  0
   17.8111   38.9335   -7.3853 C   0  0  0  0  0  0
   18.9598   38.9509   -6.5751 C   0  0  0  0  0  0
   20.2326   38.7879   -7.1463 C   0  0  0  0  0  0
   20.3590   38.5828   -8.5352 C   0  0  0  0  0  0
   21.7324   38.3404   -9.1328 C   0  0  0  0  0  0
   22.4600   39.5981   -9.3826 N   0  3  0  0  0  0
   22.0575   40.3052  -10.6147 C   0  0  0  0  0  0
   22.5953   41.7517  -10.6532 C   0  0  1  0  0  0
   22.4601   42.2333  -11.9706 O   0  0  0  0  0  0
   21.9410   42.7553   -9.6566 C   0  0  2  0  0  0
   22.7891   42.9050   -8.3560 C   0  0  0  0  0  0
   21.9965   43.1167   -7.0662 C   0  0  0  0  0  0
   22.1386   42.2151   -5.9891 C   0  0  0  0  0  0
   21.3759   42.3884   -4.8218 C   0  0  0  0  0  0
   20.4601   43.4521   -4.7301 C   0  0  0  0  0  0
   20.2903   44.3580   -5.7968 C   0  0  0  0  0  0
   21.0931   44.1957   -6.9549 C   0  0  0  0  0  0
   19.3435   45.3509   -5.6399 O   0  0  0  0  0  0
   18.7593   45.9334   -6.8017 C   0  0  0  0  0  0
   17.7528   44.9727   -7.4604 C   0  0  0  0  0  0
   17.3831   45.4119   -8.8834 C   0  0  0  0  0  0
   16.3810   44.4932   -9.6032 C   0  0  0  0  0  0
   16.6082   44.5169  -11.4425 S   0  0  0  0  0  0
   15.3174   44.1502  -12.0399 O   0  0  0  0  0  0
   17.2172   45.8032  -11.8111 O   0  0  0  0  0  0
   17.7822   43.1244  -11.8701 C   0  0  0  0  0  0
   19.2541   43.1681  -11.3495 C   0  0  1  0  0  0
   19.9576   44.5223  -11.5921 C   0  0  0  0  0  0
   19.3917   42.5687   -9.9272 C   0  0  0  0  0  0
   18.3951   42.1520   -9.3531 O   0  0  0  0  0  0
   20.5694   42.3787   -9.3121 N   0  0  0  0  0  0
   19.2062   38.5670   -9.3505 C   0  0  0  0  0  0
   23.6748   41.7315  -10.4850 H   0  0  0  0  0  0
   21.9320   43.7564  -10.0779 H   0  0  0  0  0  0
   19.7781   42.4480  -11.9779 H   0  0  0  0  0  0
   16.2921   40.8349   -9.7316 H   0  0  0  0  0  0
   15.3888   40.0044   -8.4755 H   0  0  0  0  0  0
   14.9058   39.8478  -10.1539 H   0  0  0  0  0  0
   17.0115   38.6762  -10.6947 H   0  0  0  0  0  0
   16.5327   36.5141   -9.5741 H   0  0  0  0  0  0
   15.0310   37.3079  -10.0397 H   0  0  0  0  0  0
   15.5679   37.3498   -8.3599 H   0  0  0  0  0  0
   16.8401   39.0432   -6.9247 H   0  0  0  0  0  0
   18.8583   39.0944   -5.5089 H   0  0  0  0  0  0
   21.1049   38.8004   -6.5085 H   0  0  0  0  0  0
   22.3171   37.7429   -8.4413 H   0  0  0  0  0  0
   21.6516   37.7501  -10.0409 H   0  0  0  0  0  0
   22.3192   40.1988   -8.5814 H   0  0  0  0  0  0
   22.4572   39.7501  -11.4598 H   0  0  0  0  0  0
   20.9772   40.2844  -10.7452 H   0  0  0  0  0  0
   23.0270   41.7051  -12.5315 H   0  0  0  0  0  0
   23.4153   42.0247   -8.2132 H   0  0  0  0  0  0
   23.4898   43.7329   -8.4666 H   0  0  0  0  0  0
   22.8300   41.3878   -6.0523 H   0  0  0  0  0  0
   21.4809   41.6969   -3.9987 H   0  0  0  0  0  0
   19.8672   43.5643   -3.8356 H   0  0  0  0  0  0
   21.0111   44.8683   -7.7928 H   0  0  0  0  0  0
   18.2287   46.8331   -6.4878 H   0  0  0  0  0  0
   19.5130   46.2837   -7.5042 H   0  0  0  0  0  0
   18.1701   43.9677   -7.4975 H   0  0  0  0  0  0
   16.8595   44.9024   -6.8406 H   0  0  0  0  0  0
   16.9961   46.4310   -8.8745 H   0  0  0  0  0  0
   18.3016   45.4585   -9.4548 H   0  0  0  0  0  0
   16.4100   43.4632   -9.2577 H   0  0  0  0  0  0
   15.3690   44.8390   -9.3985 H   0  0  0  0  0  0
   17.2944   42.1928  -11.5792 H   0  0  0  0  0  0
   17.8159   43.1003  -12.9560 H   0  0  0  0  0  0
   20.9864   44.3762  -11.9158 H   0  0  0  0  0  0
   19.9835   45.1597  -10.7120 H   0  0  0  0  0  0
   19.4885   45.0760  -12.4061 H   0  0  0  0  0  0
   20.4661   41.9914   -8.3831 H   0  0  0  0  0  0
   19.2983   38.3952  -10.4134 H   0  0  0  0  0  0
   23.4431   39.3611   -9.4617 H   0  0  0  0  0  0
  1  2  1  0  0  0
  1 40  1  0  0  0
  1 41  1  0  0  0
  1 42  1  0  0  0
  2  3  1  0  0  0
  2  4  1  0  0  0
  2 43  1  0  0  0
  3 44  1  0  0  0
  3 45  1  0  0  0
  3 46  1  0  0  0
  4 36  1  0  0  0
  4  5  2  0  0  0
  5  6  1  0  0  0
  5 47  1  0  0  0
  6  7  2  0  0  0
  6 48  1  0  0  0
  7  8  1  0  0  0
  7 49  1  0  0  0
  8  9  1  0  0  0
  8 36  2  0  0  0
  9 10  1  0  0  0
  9 50  1  0  0  0
  9 51  1  0  0  0
 10 11  1  0  0  0
 10 52  1  0  0  0
 10 77  1  0  0  0
 11 12  1  0  0  0
 11 53  1  0  0  0
 11 54  1  0  0  0
 12 37  1  0  0  0
 12 13  1  0  0  0
 12 14  1  0  0  0
 13 55  1  0  0  0
 14 38  1  0  0  0
 14 35  1  0  0  0
 14 15  1  0  0  0
 15 16  1  0  0  0
 15 56  1  0  0  0
 15 57  1  0  0  0
 16 21  1  0  0  0
 16 17  2  0  0  0
 17 18  1  0  0  0
 17 58  1  0  0  0
 18 19  2  0  0  0
 18 59  1  0  0  0
 19 20  1  0  0  0
 19 60  1  0  0  0
 20 21  2  0  0  0
 20 22  1  0  0  0
 21 61  1  0  0  0
 22 23  1  0  0  0
 23 24  1  0  0  0
 23 62  1  0  0  0
 23 63  1  0  0  0
 24 25  1  0  0  0
 24 64  1  0  0  0
 24 65  1  0  0  0
 25 26  1  0  0  0
 25 66  1  0  0  0
 25 67  1  0  0  0
 26 27  1  0  0  0
 26 68  1  0  0  0
 26 69  1  0  0  0
 27 28  2  0  0  0
 27 29  2  0  0  0
 27 30  1  0  0  0
 30 31  1  0  0  0
 30 70  1  0  0  0
 30 71  1  0  0  0
 31 39  1  0  0  0
 31 32  1  0  0  0
 31 33  1  0  0  0
 32 72  1  0  0  0
 32 73  1  0  0  0
 32 74  1  0  0  0
 33 34  2  0  0  0
 33 35  1  0  0  0
 35 75  1  0  0  0
 36 76  1  0  0  0
M  CHG  1  10   1
M  END
> <s_m_source_file>
BACE_94.smi

> <i_m_source_file_index>
1

> <i_lp_mmshare_version>
42013

> <i_f3d_flags>
0

> <s_epik_input>
W0NIM11bQ0hdKFtDSDNdKWMxW2NIXVtjSF1bY0hdYyhbY0hdMSlbQ0gyXVtOSF1bQ0gyXVtDQEBIXShbT0hdKVtDQEhdKFtDSDJdMilbTkhdQyg9TylbQ0BIXShbQ0gzXSlbQ0gyXVMoPU8pKD1PKVtDSDJdW0NIMl1bQ0gyXVtDSDJdT2MoW2NIXTMpW2NIXVtjSF1bY0hdYzIz

> <s_epik_cmdline>
J2VwaWtfcHl0aG9uJywgJy1waCcsICc3LjAnLCAnLXRuJywgJzgnLCAnLW1hJywgJzIwMCcsICctaW1hZScsICc8aW5maWxlLm1hZT4nLCAnLW9tYWUnLCAnPG91dGZpbGUubWFlPic=

> <r_lp_tautomer_probability>
1

> <r_epik_Ionization_Penalty>
  0.0207

> <r_epik_Ionization_Penalty_Charging>
  0.0207

> <r_epik_Ionization_Penalty_Neutral>
  0.0000

> <r_epik_State_Penalty>
  0.0166

> <r_epik_Charging_Adjusted_Penalty>
0.0373063

> <i_epik_Tot_Q>
1

> <i_epik_Tot_abs_Q>
1

> <s_lp_Force_Field>
OPLS_2005

> <r_lp_Energy>
34.4017

> <b_lp_Chiralities_Consistent>
1

> <s_lp_Variant>
BACE_94.smi:1-1

> <chiral flag>
1

> <version>
0

> <s_i_glide_gridfile>
second_dock_grid_2

> <i_i_glide_lignum>
190

> <i_i_glide_rotatable_bonds>
7

> <r_i_docking_score>
-4.66457

> <r_i_glide_ligand_efficiency>
-0.129571

> <r_i_glide_ligand_efficiency_sa>
-0.427835

> <r_i_glide_ligand_efficiency_ln>
-1.01768

> <r_glide_XP_GScore>
-4.68117

> <r_i_glide_gscore>
-4.68117

> <r_i_glide_evdw>
-35.9

> <r_i_glide_ecoul>
-13.5009

> <r_i_glide_energy>
-49.4009

> <r_i_glide_einternal>
3.16779

> <r_i_glide_emodel>
-67.0415

> <r_glide_XP_HBond>
-1.33

> <i_i_glide_confnum>
1

> <i_i_glide_posenum>
1

> <r_i_glide_eff_state_penalty>
0.0166

> <i_glide_XP_PoseRank>
1

$$$$
BACE_94.smi:1
                    3D
 Structure written by MMmdl.
 76 78  0  0  1  0            999 V2000
   21.2305   39.1930  -10.4142 C   0  0  0  0  0  0
   19.9356   39.1382  -11.2488 C   0  0  0  0  0  0
   19.7203   40.5042  -11.9318 C   0  0  0  0  0  0
   18.7398   38.6349  -10.4345 C   0  0  0  0  0  0
   18.8597   37.4794   -9.6341 C   0  0  0  0  0  0
   17.7877   37.0218   -8.8420 C   0  0  0  0  0  0
   16.5844   37.7423   -8.8076 C   0  0  0  0  0  0
   16.4517   38.8982   -9.5925 C   0  0  0  0  0  0
   15.2692   39.8178   -9.3931 C   0  0  0  0  0  0
   15.5093   40.8060   -8.3353 N   0  0  0  0  0  0
   16.8910   41.2835   -8.1697 C   0  0  0  0  0  0
   16.9706   42.6878   -7.5778 C   0  0  1  0  0  0
   18.3131   42.9486   -7.2398 O   0  0  0  0  0  0
   16.4482   43.8137   -8.5177 C   0  0  2  0  0  0
   14.8868   43.8903   -8.5491 C   0  0  0  0  0  0
   14.2163   43.8965   -9.9266 C   0  0  0  0  0  0
   13.3096   42.8852  -10.3034 C   0  0  0  0  0  0
   12.6547   42.9521  -11.5473 C   0  0  0  0  0  0
   12.8926   44.0344  -12.4168 C   0  0  0  0  0  0
   13.8049   45.0495  -12.0667 C   0  0  0  0  0  0
   14.4763   44.9498  -10.8242 C   0  0  0  0  0  0
   13.9668   46.0965  -12.9547 O   0  0  0  0  0  0
   14.9689   47.0757  -12.6943 C   0  0  0  0  0  0
   16.3444   46.5928  -13.1768 C   0  0  0  0  0  0
   17.5125   47.0669  -12.3034 C   0  0  0  0  0  0
   18.8702   46.6118  -12.8638 C   0  0  0  0  0  0
   20.2508   46.8273  -11.6568 S   0  0  0  0  0  0
   21.4837   46.9899  -12.4401 O   0  0  0  0  0  0
   19.8600   47.8781  -10.7064 O   0  0  0  0  0  0
   20.4071   45.1858  -10.7828 C   0  0  0  0  0  0
   19.2800   44.7607   -9.7932 C   0  0  1  0  0  0
   18.9234   45.8837   -8.7966 C   0  0  0  0  0  0
   18.0975   44.0475  -10.5045 C   0  0  0  0  0  0
   18.1985   43.7588  -11.6952 O   0  0  0  0  0  0
   16.9756   43.6537   -9.8784 N   0  0  0  0  0  0
   17.5003   39.3077  -10.4400 C   0  0  0  0  0  0
   16.4610   42.6733   -6.6256 H   0  0  0  0  0  0
   16.7412   44.7758   -8.1139 H   0  0  0  0  0  0
   19.7334   43.9671   -9.1999 H   0  0  0  0  0  0
   21.5355   38.2149  -10.0427 H   0  0  0  0  0  0
   21.1093   39.8502   -9.5532 H   0  0  0  0  0  0
   22.0606   39.5764  -11.0066 H   0  0  0  0  0  0
   20.0681   38.4047  -12.0405 H   0  0  0  0  0  0
   18.8794   40.4886  -12.6248 H   0  0  0  0  0  0
   20.5980   40.7943  -12.5091 H   0  0  0  0  0  0
   19.5391   41.2896  -11.1977 H   0  0  0  0  0  0
   19.7948   36.9513   -9.5867 H   0  0  0  0  0  0
   17.9038   36.1553   -8.2094 H   0  0  0  0  0  0
   15.7984   37.4463   -8.1277 H   0  0  0  0  0  0
   15.0777   40.3288  -10.3372 H   0  0  0  0  0  0
   14.3703   39.2380   -9.1737 H   0  0  0  0  0  0
   15.1117   40.4988   -7.4486 H   0  0  0  0  0  0
   17.4398   40.5795   -7.5409 H   0  0  0  0  0  0
   17.4178   41.3269   -9.1164 H   0  0  0  0  0  0
   18.5337   42.3507   -6.5344 H   0  0  0  0  0  0
   14.4421   43.0980   -7.9489 H   0  0  0  0  0  0
   14.5776   44.8039   -8.0402 H   0  0  0  0  0  0
   13.1030   42.0570   -9.6402 H   0  0  0  0  0  0
   11.9596   42.1759  -11.8307 H   0  0  0  0  0  0
   12.3781   44.0784  -13.3652 H   0  0  0  0  0  0
   15.1886   45.6913  -10.5013 H   0  0  0  0  0  0
   14.7030   47.9789  -13.2434 H   0  0  0  0  0  0
   14.9826   47.3804  -11.6503 H   0  0  0  0  0  0
   16.3643   45.5033  -13.2210 H   0  0  0  0  0  0
   16.4886   46.9500  -14.1961 H   0  0  0  0  0  0
   17.4977   48.1536  -12.2119 H   0  0  0  0  0  0
   17.3748   46.6759  -11.2981 H   0  0  0  0  0  0
   18.8591   45.5757  -13.1917 H   0  0  0  0  0  0
   19.1187   47.2090  -13.7399 H   0  0  0  0  0  0
   20.5866   44.4246  -11.5425 H   0  0  0  0  0  0
   21.3412   45.2455  -10.2240 H   0  0  0  0  0  0
   18.6922   45.4918   -7.8093 H   0  0  0  0  0  0
   18.0879   46.4969   -9.1323 H   0  0  0  0  0  0
   19.7767   46.5384   -8.6240 H   0  0  0  0  0  0
   16.3382   43.1516  -10.4784 H   0  0  0  0  0  0
   17.3567   40.2021  -11.0258 H   0  0  0  0  0  0
  1  2  1  0  0  0
  1 40  1  0  0  0
  1 41  1  0  0  0
  1 42  1  0  0  0
  2  3  1  0  0  0
  2  4  1  0  0  0
  2 43  1  0  0  0
  3 44  1  0  0  0
  3 45  1  0  0  0
  3 46  1  0  0  0
  4 36  1  0  0  0
  4  5  2  0  0  0
  5  6  1  0  0  0
  5 47  1  0  0  0
  6  7  2  0  0  0
  6 48  1  0  0  0
  7  8  1  0  0  0
  7 49  1  0  0  0
  8  9  1  0  0  0
  8 36  2  0  0  0
  9 10  1  0  0  0
  9 50  1  0  0  0
  9 51  1  0  0  0
 10 11  1  0  0  0
 10 52  1  0  0  0
 11 12  1  0  0  0
 11 53  1  0  0  0
 11 54  1  0  0  0
 12 37  1  0  0  0
 12 13  1  0  0  0
 12 14  1  0  0  0
 13 55  1  0  0  0
 14 38  1  0  0  0
 14 35  1  0  0  0
 14 15  1  0  0  0
 15 16  1  0  0  0
 15 56  1  0  0  0
 15 57  1  0  0  0
 16 21  1  0  0  0
 16 17  2  0  0  0
 17 18  1  0  0  0
 17 58  1  0  0  0
 18 19  2  0  0  0
 18 59  1  0  0  0
 19 20  1  0  0  0
 19 60  1  0  0  0
 20 21  2  0  0  0
 20 22  1  0  0  0
 21 61  1  0  0  0
 22 23  1  0  0  0
 23 24  1  0  0  0
 23 62  1  0  0  0
 23 63  1  0  0  0
 24 25  1  0  0  0
 24 64  1  0  0  0
 24 65  1  0  0  0
 25 26  1  0  0  0
 25 66  1  0  0  0
 25 67  1  0  0  0
 26 27  1  0  0  0
 26 68  1  0  0  0
 26 69  1  0  0  0
 27 28  2  0  0  0
 27 29  2  0  0  0
 27 30  1  0  0  0
 30 31  1  0  0  0
 30 70  1  0  0  0
 30 71  1  0  0  0
 31 39  1  0  0  0
 31 32  1  0  0  0
 31 33  1  0  0  0
 32 72  1  0  0  0
 32 73  1  0  0  0
 32 74  1  0  0  0
 33 34  2  0  0  0
 33 35  1  0  0  0
 35 75  1  0  0  0
 36 76  1  0  0  0
M  END
> <s_m_source_file>
BACE_94.smi

> <i_m_source_file_index>
1

> <i_lp_mmshare_version>
42013

> <i_f3d_flags>
0

> <s_epik_input>
W0NIM11bQ0hdKFtDSDNdKWMxW2NIXVtjSF1bY0hdYyhbY0hdMSlbQ0gyXVtOSF1bQ0gyXVtDQEBIXShbT0hdKVtDQEhdKFtDSDJdMilbTkhdQyg9TylbQ0BIXShbQ0gzXSlbQ0gyXVMoPU8pKD1PKVtDSDJdW0NIMl1bQ0gyXVtDSDJdT2MoW2NIXTMpW2NIXVtjSF1bY0hdYzIz

> <s_epik_cmdline>
J2VwaWtfcHl0aG9uJywgJy1waCcsICc3LjAnLCAnLXRuJywgJzgnLCAnLW1hJywgJzIwMCcsICctaW1hZScsICc8aW5maWxlLm1hZT4nLCAnLW9tYWUnLCAnPG91dGZpbGUubWFlPic=

> <r_lp_tautomer_probability>
1

> <r_epik_Ionization_Penalty>
  1.9976

> <r_epik_Ionization_Penalty_Charging>
  0.0000

> <r_epik_Ionization_Penalty_Neutral>
  1.9976

> <r_epik_State_Penalty>
  2.1261

> <r_epik_Charging_Adjusted_Penalty>
2.12615

> <i_epik_Tot_Q>
0

> <i_epik_Tot_abs_Q>
0

> <s_lp_Force_Field>
OPLS_2005

> <r_lp_Energy>
43.4857

> <b_lp_Chiralities_Consistent>
1

> <s_lp_Variant>
BACE_94.smi:1-2

> <chiral flag>
1

> <version>
0

> <s_i_glide_gridfile>
second_dock_grid_2

> <i_i_glide_lignum>
191

> <i_i_glide_rotatable_bonds>
7

> <r_i_docking_score>
-2.24023

> <r_i_glide_ligand_efficiency>
-0.0622285

> <r_i_glide_ligand_efficiency_sa>
-0.205474

> <r_i_glide_ligand_efficiency_ln>
-0.488757

> <r_glide_XP_GScore>
-4.36633

> <r_i_glide_gscore>
-4.36633

> <r_i_glide_evdw>
-32.7635

> <r_i_glide_ecoul>
-9.59644

> <r_i_glide_energy>
-42.3599

> <r_i_glide_einternal>
6.91795

> <r_i_glide_emodel>
-56.1289

> <r_glide_XP_HBond>
-0.69034

> <i_i_glide_confnum>
1

> <i_i_glide_posenum>
7

> <r_i_glide_eff_state_penalty>
2.1261

> <i_glide_XP_PoseRank>
1

$$$$
BACE_95.smi:1
                    3D
 Structure written by MMmdl.
 71 74  0  0  1  0            999 V2000
   17.3182   44.6225  -10.2653 C   0  0  0  0  0  0
   16.7861   43.7389  -11.4177 C   0  0  2  0  0  0
   15.9034   42.5220  -11.0298 C   0  0  0  0  0  0
   14.3585   42.9234  -10.0612 S   0  0  0  0  0  0
   14.0844   44.3667  -10.1407 O   0  0  0  0  0  0
   13.3158   41.9692  -10.4709 O   0  0  0  0  0  0
   14.8466   42.5131   -8.3173 C   0  0  0  0  0  0
   14.9891   40.9915   -8.0938 C   0  0  0  0  0  0
   16.1810   40.6019   -7.1988 C   0  0  0  0  0  0
   16.5158   39.0947   -7.2824 C   0  0  0  0  0  0
   17.8414   38.7950   -6.8435 O   0  0  0  0  0  0
   18.9082   39.0012   -7.7015 C   0  0  0  0  0  0
   20.1753   38.5536   -7.2723 C   0  0  0  0  0  0
   21.3177   38.7404   -8.0756 C   0  0  0  0  0  0
   21.2127   39.4028   -9.3139 C   0  0  0  0  0  0
   19.9594   39.8768   -9.7544 C   0  0  0  0  0  0
   19.8218   40.6334  -11.0714 C   0  0  0  0  0  0
   19.5136   42.1538  -10.9171 C   0  0  2  0  0  0
   18.9843   42.6748  -12.1836 N   0  0  0  0  0  0
   17.8590   43.3677  -12.4750 C   0  0  0  0  0  0
   17.6593   43.7147  -13.6387 O   0  0  0  0  0  0
   20.6904   43.0692  -10.4520 C   0  0  2  0  0  0
   20.4440   44.4142  -10.8194 O   0  0  0  0  0  0
   22.0694   42.6692  -11.0236 C   0  0  0  0  0  0
   22.5334   41.4015  -10.4486 N   0  0  0  0  0  0
   23.4088   41.4182   -9.2666 C   0  0  0  0  0  0
   23.4754   40.1643   -8.4278 C   0  0  0  0  0  0
   22.7504   41.3828   -7.9081 C   0  0  0  0  0  0
   24.6830   42.2380   -9.4110 C   0  0  0  0  0  0
   24.9187   43.3512   -8.5732 C   0  0  0  0  0  0
   26.1030   44.1043   -8.6963 C   0  0  0  0  0  0
   27.0681   43.7481   -9.6569 C   0  0  0  0  0  0
   26.8481   42.6360  -10.4916 C   0  0  0  0  0  0
   28.1533   42.1463  -11.7878 Br  0  0  0  0  0  0
   25.6626   41.8844  -10.3665 C   0  0  0  0  0  0
   18.8144   39.6430   -8.9638 C   0  0  0  0  0  0
   16.1175   44.4034  -11.9679 H   0  0  0  0  0  0
   18.7213   42.2314  -10.1803 H   0  0  0  0  0  0
   20.7500   43.0291   -9.3630 H   0  0  0  0  0  0
   17.6643   44.0412   -9.4125 H   0  0  0  0  0  0
   16.5468   45.2957   -9.8932 H   0  0  0  0  0  0
   18.1409   45.2598  -10.5917 H   0  0  0  0  0  0
   16.4735   41.7835  -10.4717 H   0  0  0  0  0  0
   15.5714   42.0186  -11.9391 H   0  0  0  0  0  0
   14.0902   42.9192   -7.6452 H   0  0  0  0  0  0
   15.7733   43.0441   -8.1029 H   0  0  0  0  0  0
   14.0625   40.5874   -7.6842 H   0  0  0  0  0  0
   15.1160   40.4994   -9.0570 H   0  0  0  0  0  0
   15.9858   40.8834   -6.1634 H   0  0  0  0  0  0
   17.0484   41.1879   -7.4985 H   0  0  0  0  0  0
   15.8239   38.5469   -6.6419 H   0  0  0  0  0  0
   16.3533   38.6878   -8.2814 H   0  0  0  0  0  0
   20.2733   38.0589   -6.3169 H   0  0  0  0  0  0
   22.2794   38.3863   -7.7345 H   0  0  0  0  0  0
   22.0986   39.5563   -9.9128 H   0  0  0  0  0  0
   19.0000   40.1594  -11.6109 H   0  0  0  0  0  0
   20.6980   40.4619  -11.6975 H   0  0  0  0  0  0
   19.5831   42.4940  -12.9765 H   0  0  0  0  0  0
   21.1681   44.7190  -11.3446 H   0  0  0  0  0  0
   22.7931   43.4616  -10.8342 H   0  0  0  0  0  0
   21.9927   42.5632  -12.1053 H   0  0  0  0  0  0
   22.8972   40.7774  -11.1616 H   0  0  0  0  0  0
   22.8711   39.3136   -8.7429 H   0  0  0  0  0  0
   24.4323   39.9131   -7.9705 H   0  0  0  0  0  0
   23.2226   41.9461   -7.1034 H   0  0  0  0  0  0
   21.6614   41.3466   -7.8758 H   0  0  0  0  0  0
   24.1889   43.6332   -7.8281 H   0  0  0  0  0  0
   26.2713   44.9548   -8.0520 H   0  0  0  0  0  0
   27.9761   44.3256   -9.7504 H   0  0  0  0  0  0
   25.5076   41.0302  -11.0096 H   0  0  0  0  0  0
   17.8695   39.9965   -9.3435 H   0  0  0  0  0  0
  1  2  1  0  0  0
  1 40  1  0  0  0
  1 41  1  0  0  0
  1 42  1  0  0  0
  2 37  1  0  0  0
  2 20  1  0  0  0
  2  3  1  0  0  0
  3  4  1  0  0  0
  3 43  1  0  0  0
  3 44  1  0  0  0
  4  5  2  0  0  0
  4  6  2  0  0  0
  4  7  1  0  0  0
  7  8  1  0  0  0
  7 45  1  0  0  0
  7 46  1  0  0  0
  8  9  1  0  0  0
  8 47  1  0  0  0
  8 48  1  0  0  0
  9 10  1  0  0  0
  9 49  1  0  0  0
  9 50  1  0  0  0
 10 11  1  0  0  0
 10 51  1  0  0  0
 10 52  1  0  0  0
 11 12  1  0  0  0
 12 36  1  0  0  0
 12 13  2  0  0  0
 13 14  1  0  0  0
 13 53  1  0  0  0
 14 15  2  0  0  0
 14 54  1  0  0  0
 15 16  1  0  0  0
 15 55  1  0  0  0
 16 17  1  0  0  0
 16 36  2  0  0  0
 17 18  1  0  0  0
 17 56  1  0  0  0
 17 57  1  0  0  0
 18 38  1  0  0  0
 18 19  1  0  0  0
 18 22  1  0  0  0
 19 20  1  0  0  0
 19 58  1  0  0  0
 20 21  2  0  0  0
 22 39  1  0  0  0
 22 23  1  0  0  0
 22 24  1  0  0  0
 23 59  1  0  0  0
 24 25  1  0  0  0
 24 60  1  0  0  0
 24 61  1  0  0  0
 25 26  1  0  0  0
 25 62  1  0  0  0
 26 28  1  0  0  0
 26 27  1  0  0  0
 26 29  1  0  0  0
 27 28  1  0  0  0
 27 63  1  0  0  0
 27 64  1  0  0  0
 28 65  1  0  0  0
 28 66  1  0  0  0
 29 35  1  0  0  0
 29 30  2  0  0  0
 30 31  1  0  0  0
 30 67  1  0  0  0
 31 32  2  0  0  0
 31 68  1  0  0  0
 32 33  1  0  0  0
 32 69  1  0  0  0
 33 34  1  0  0  0
 33 35  2  0  0  0
 35 70  1  0  0  0
 36 71  1  0  0  0
M  END
> <s_m_source_file>
BACE_95.smi

> <i_m_source_file_index>
1

> <i_lp_mmshare_version>
42013

> <i_f3d_flags>
0

> <s_epik_input>
TzFbQ0gyXVtDSDJdW0NIMl1bQ0gyXVMoPU8pKD1PKVtDSDJdW0NAQEhdKFtDSDNdKUMoPU8pW05IXVtDQEBIXShbQ0gyXWMoW2NIXTIpW2NIXVtjSF1bY0hdYzEyKVtDQEhdKFtPSF0pW0NIMl1bTkhdQzMoW0NIMl1bQ0gyXTMpYzRbY0hdW2NIXVtjSF1jKEJyKVtjSF00

> <s_epik_cmdline>
J2VwaWtfcHl0aG9uJywgJy1waCcsICc3LjAnLCAnLXRuJywgJzgnLCAnLW1hJywgJzIwMCcsICctaW1hZScsICc8aW5maWxlLm1hZT4nLCAnLW9tYWUnLCAnPG91dGZpbGUubWFlPic=

> <r_lp_tautomer_probability>
1

> <r_epik_Ionization_Penalty>
  0.2562

> <r_epik_Ionization_Penalty_Charging>
  0.0000

> <r_epik_Ionization_Penalty_Neutral>
  0.2562

> <r_epik_State_Penalty>
  0.2477

> <r_epik_Charging_Adjusted_Penalty>
0.247703

> <i_epik_Tot_Q>
0

> <i_epik_Tot_abs_Q>
0

> <s_lp_Force_Field>
OPLS_2005

> <r_lp_Energy>
51.0082

> <b_lp_Chiralities_Consistent>
1

> <s_lp_Variant>
BACE_95.smi:1-1

> <chiral flag>
1

> <version>
0

> <s_i_glide_gridfile>
second_dock_grid_2

> <i_i_glide_lignum>
192

> <i_i_glide_rotatable_bonds>
6

> <r_i_docking_score>
-2.63894

> <r_i_glide_ligand_efficiency>
-0.0733038

> <r_i_glide_ligand_efficiency_sa>
-0.242044

> <r_i_glide_ligand_efficiency_ln>
-0.575745

> <r_glide_XP_GScore>
-2.88664

> <r_i_glide_gscore>
-2.88664

> <r_i_glide_evdw>
-37.564

> <r_i_glide_ecoul>
-4.74722

> <r_i_glide_energy>
-42.3112

> <r_i_glide_einternal>
2.64318

> <r_i_glide_emodel>
-61.0935

> <r_glide_XP_HBond>
-1.51888

> <i_i_glide_confnum>
1

> <i_i_glide_posenum>
5

> <r_i_glide_eff_state_penalty>
0.2477

> <i_glide_XP_PoseRank>
1

$$$$
