BACE_135.smi:1
                    3D
 Structure written by MMmdl.
 85 88  0  0  1  0            999 V2000
   19.7341   46.3958   -6.2956 C   0  0  0  0  0  0
   18.5922   47.4057   -6.2964 C   0  0  0  0  0  0
   18.0627   47.7487   -5.2409 O   0  0  0  0  0  0
   18.1012   47.9772   -7.6307 C   0  0  0  0  0  0
   18.6319   47.2637   -8.7437 O   0  0  0  0  0  0
   17.9766   46.1353   -9.1867 C   0  0  0  0  0  0
   16.8773   45.5318   -8.5294 C   0  0  0  0  0  0
   16.2799   44.3603   -9.0333 C   0  0  0  0  0  0
   16.7724   43.7832  -10.2242 C   0  0  0  0  0  0
   17.8370   44.3973  -10.9140 C   0  0  0  0  0  0
   18.4341   45.5606  -10.3891 C   0  0  0  0  0  0
   18.2414   43.9198  -12.2734 C   0  0  0  0  0  0
   18.0616   44.6543  -13.2399 O   0  0  0  0  0  0
   18.7786   42.7014  -12.4290 N   0  0  0  0  0  0
   19.2250   41.7334  -11.4364 C   0  0  1  0  0  0
   18.5776   40.3795  -11.7954 C   0  0  0  0  0  0
   18.2228   39.5269  -10.6062 C   0  0  0  0  0  0
   17.0014   39.7437   -9.9398 C   0  0  0  0  0  0
   16.6676   38.9761   -8.8082 C   0  0  0  0  0  0
   15.4219   39.3026   -8.0116 C   0  0  0  0  0  0
   15.7159   40.3726   -6.9490 C   0  0  0  0  0  0
   16.1332   41.7531   -7.4994 C   0  0  0  0  0  0
   14.9998   42.4674   -8.2680 C   0  0  0  0  0  0
   15.1939   43.8747   -8.3458 O   0  0  0  0  0  0
   17.5405   37.9606   -8.3737 C   0  0  0  0  0  0
   18.7425   37.7230   -9.0669 C   0  0  0  0  0  0
   19.0828   38.4991  -10.1828 C   0  0  0  0  0  0
   20.7783   41.7435  -11.4301 C   0  0  2  0  0  0
   21.2612   41.1408  -12.6200 O   0  0  0  0  0  0
   21.3824   41.0163  -10.2169 C   0  0  0  0  0  0
   22.7949   41.3483  -10.0411 N   0  0  0  0  0  0
   23.3665   40.8695   -8.7825 C   0  0  0  0  0  0
   23.1210   41.8099   -7.6145 C   0  0  0  0  0  0
   22.2841   41.4354   -6.5391 C   0  0  0  0  0  0
   22.1363   42.3135   -5.4347 C   0  0  0  0  0  0
   22.8340   43.5416   -5.4911 C   0  0  0  0  0  0
   23.6387   43.8249   -6.6114 C   0  0  0  0  0  0
   23.7878   42.9833   -7.6519 N   0  0  0  0  0  0
   21.2405   41.9957   -4.2202 C   0  0  0  0  0  0
   22.0270   42.1464   -2.8992 C   0  0  0  0  0  0
   20.6827   40.5547   -4.2608 C   0  0  0  0  0  0
   20.0612   42.9877   -4.1948 C   0  0  0  0  0  0
   18.8693   42.0438  -10.4549 H   0  0  0  0  0  0
   21.1235   42.7786  -11.4055 H   0  0  0  0  0  0
   20.6550   46.8630   -6.6504 H   0  0  0  0  0  0
   19.5076   45.5416   -6.9412 H   0  0  0  0  0  0
   19.9114   46.0206   -5.2853 H   0  0  0  0  0  0
   17.0143   48.0198   -7.6601 H   0  0  0  0  0  0
   18.4474   49.0066   -7.6964 H   0  0  0  0  0  0
   16.4694   45.9462   -7.6220 H   0  0  0  0  0  0
   16.2976   42.9089  -10.6480 H   0  0  0  0  0  0
   19.2446   46.0342  -10.9239 H   0  0  0  0  0  0
   19.0297   42.4509  -13.3708 H   0  0  0  0  0  0
   17.6466   40.5504  -12.3353 H   0  0  0  0  0  0
   19.2050   39.7926  -12.4623 H   0  0  0  0  0  0
   16.3373   40.5246  -10.2731 H   0  0  0  0  0  0
   14.6206   39.6231   -8.6764 H   0  0  0  0  0  0
   15.0638   38.3953   -7.5226 H   0  0  0  0  0  0
   14.8600   40.4900   -6.2948 H   0  0  0  0  0  0
   16.5003   39.9836   -6.3054 H   0  0  0  0  0  0
   16.4598   42.3689   -6.6624 H   0  0  0  0  0  0
   17.0219   41.6738   -8.1230 H   0  0  0  0  0  0
   14.8291   42.0275   -9.2495 H   0  0  0  0  0  0
   14.0674   42.3338   -7.7198 H   0  0  0  0  0  0
   17.2994   37.3745   -7.4986 H   0  0  0  0  0  0
   19.4117   36.9512   -8.7386 H   0  0  0  0  0  0
   20.0036   38.2973  -10.7120 H   0  0  0  0  0  0
   22.2113   41.1390  -12.6085 H   0  0  0  0  0  0
   20.8280   41.3021   -9.3210 H   0  0  0  0  0  0
   21.2717   39.9404  -10.3190 H   0  0  0  0  0  0
   23.3497   40.9954  -10.8167 H   0  0  0  0  0  0
   23.0041   39.8686   -8.5507 H   0  0  0  0  0  0
   24.4475   40.7762   -8.8933 H   0  0  0  0  0  0
   21.7830   40.4792   -6.5792 H   0  0  0  0  0  0
   22.7617   44.2658   -4.6943 H   0  0  0  0  0  0
   24.1812   44.7569   -6.6704 H   0  0  0  0  0  0
   21.3883   41.9402   -2.0389 H   0  0  0  0  0  0
   22.4208   43.1538   -2.7626 H   0  0  0  0  0  0
   22.8600   41.4496   -2.8470 H   0  0  0  0  0  0
   21.4842   39.8155   -4.2631 H   0  0  0  0  0  0
   20.0601   40.3818   -5.1402 H   0  0  0  0  0  0
   20.0603   40.3466   -3.3918 H   0  0  0  0  0  0
   19.3710   42.7688   -3.3813 H   0  0  0  0  0  0
   19.5031   42.9503   -5.1303 H   0  0  0  0  0  0
   20.4002   44.0134   -4.0498 H   0  0  0  0  0  0
  1  2  1  0  0  0
  1 45  1  0  0  0
  1 46  1  0  0  0
  1 47  1  0  0  0
  2  3  2  0  0  0
  2  4  1  0  0  0
  4  5  1  0  0  0
  4 48  1  0  0  0
  4 49  1  0  0  0
  5  6  1  0  0  0
  6 11  1  0  0  0
  6  7  2  0  0  0
  7  8  1  0  0  0
  7 50  1  0  0  0
  8 24  1  0  0  0
  8  9  2  0  0  0
  9 10  1  0  0  0
  9 51  1  0  0  0
 10 11  2  0  0  0
 10 12  1  0  0  0
 11 52  1  0  0  0
 12 13  2  0  0  0
 12 14  1  0  0  0
 14 15  1  0  0  0
 14 53  1  0  0  0
 15 43  1  0  0  0
 15 16  1  0  0  0
 15 28  1  0  0  0
 16 17  1  0  0  0
 16 54  1  0  0  0
 16 55  1  0  0  0
 17 27  1  0  0  0
 17 18  2  0  0  0
 18 19  1  0  0  0
 18 56  1  0  0  0
 19 20  1  0  0  0
 19 25  2  0  0  0
 20 21  1  0  0  0
 20 57  1  0  0  0
 20 58  1  0  0  0
 21 22  1  0  0  0
 21 59  1  0  0  0
 21 60  1  0  0  0
 22 23  1  0  0  0
 22 61  1  0  0  0
 22 62  1  0  0  0
 23 24  1  0  0  0
 23 63  1  0  0  0
 23 64  1  0  0  0
 25 26  1  0  0  0
 25 65  1  0  0  0
 26 27  2  0  0  0
 26 66  1  0  0  0
 27 67  1  0  0  0
 28 44  1  0  0  0
 28 29  1  0  0  0
 28 30  1  0  0  0
 29 68  1  0  0  0
 30 31  1  0  0  0
 30 69  1  0  0  0
 30 70  1  0  0  0
 31 32  1  0  0  0
 31 71  1  0  0  0
 32 33  1  0  0  0
 32 72  1  0  0  0
 32 73  1  0  0  0
 33 38  1  0  0  0
 33 34  2  0  0  0
 34 35  1  0  0  0
 34 74  1  0  0  0
 35 36  2  0  0  0
 35 39  1  0  0  0
 36 37  1  0  0  0
 36 75  1  0  0  0
 37 38  2  0  0  0
 37 76  1  0  0  0
 39 40  1  0  0  0
 39 41  1  0  0  0
 39 42  1  0  0  0
 40 77  1  0  0  0
 40 78  1  0  0  0
 40 79  1  0  0  0
 41 80  1  0  0  0
 41 81  1  0  0  0
 41 82  1  0  0  0
 42 83  1  0  0  0
 42 84  1  0  0  0
 42 85  1  0  0  0
M  END
> <s_m_source_file>
BACE_135.smi

> <i_m_source_file_index>
1

> <i_lp_mmshare_version>
42013

> <i_f3d_flags>
0

> <s_epik_input>
W0NIM11DKD1PKVtDSDJdT2MoW2NIXWMxMilbY0hdYyhbY0hdMSlDKD1PKVtOSF1bQ0BASF0oW0NIMl1jM1tjSF1jKFtjSF1bY0hdW2NIXTMpW0NIMl1bQ0gyXVtDSDJdW0NIMl1PMilbQ0BIXShbT0hdKVtDSDJdW05IXVtDSDJdYzRbY0hdYyhbY0hdW2NIXW40KUMoW0NIM10pKFtDSDNdKVtDSDNd

> <s_epik_cmdline>
J2VwaWtfcHl0aG9uJywgJy1waCcsICc3LjAnLCAnLXRuJywgJzgnLCAnLW1hJywgJzIwMCcsICctaW1hZScsICc8aW5maWxlLm1hZT4nLCAnLW9tYWUnLCAnPG91dGZpbGUubWFlPic=

> <r_lp_tautomer_probability>
1

> <r_epik_Ionization_Penalty>
  1.6496

> <r_epik_Ionization_Penalty_Charging>
  0.0000

> <r_epik_Ionization_Penalty_Neutral>
  1.6496

> <r_epik_State_Penalty>
  1.7498

> <r_epik_Charging_Adjusted_Penalty>
1.7498

> <i_epik_Tot_Q>
0

> <i_epik_Tot_abs_Q>
0

> <s_lp_Force_Field>
OPLS_2005

> <r_lp_Energy>
38.1342

> <b_lp_Chiralities_Consistent>
1

> <s_lp_Variant>
BACE_135.smi:1-2

> <chiral flag>
1

> <version>
0

> <s_i_glide_gridfile>
second_dock_grid_2

> <i_i_glide_lignum>
278

> <i_i_glide_rotatable_bonds>
10

> <r_i_docking_score>
-3.22968

> <r_i_glide_ligand_efficiency>
-0.0768971

> <r_i_glide_ligand_efficiency_sa>
-0.267296

> <r_i_glide_ligand_efficiency_ln>
-0.681701

> <r_glide_XP_GScore>
-4.97948

> <r_i_glide_gscore>
-4.97948

> <r_i_glide_evdw>
-48.5522

> <r_i_glide_ecoul>
-11.0576

> <r_i_glide_energy>
-59.6098

> <r_i_glide_einternal>
13.1253

> <r_i_glide_emodel>
-75.0259

> <r_glide_XP_HBond>
-1.53807

> <i_i_glide_confnum>
1

> <i_i_glide_posenum>
1

> <r_i_glide_eff_state_penalty>
1.7498

> <i_glide_XP_PoseRank>
1

$$$$
BACE_136.smi:1
                    3D
 Structure written by MMmdl.
 85 89  0  0  1  0            999 V2000
   21.2050   40.9783   -7.9674 C   0  0  0  0  0  0
   20.8956   39.4765   -7.9016 C   0  0  0  0  0  0
   21.1004   38.9357   -6.4780 C   0  0  0  0  0  0
   19.5146   39.1842   -8.4774 C   0  0  0  0  0  0
   18.3756   38.9787   -7.6675 C   0  0  0  0  0  0
   17.1234   38.7773   -8.2861 C   0  0  0  0  0  0
   15.8566   38.6855   -7.4481 C   0  0  0  0  0  0
   15.0204   39.9061   -7.5465 N   0  3  0  0  0  0
   15.7518   41.1747   -7.3221 C   0  0  0  0  0  0
   15.8511   42.0509   -8.5989 C   0  0  1  0  0  0
   14.6741   42.8329   -8.6612 O   0  0  0  0  0  0
   17.1091   42.9735   -8.6106 C   0  0  2  0  0  0
   17.2956   43.7295   -7.2671 C   0  0  0  0  0  0
   18.6050   44.5069   -7.1192 C   0  0  0  0  0  0
   18.8074   45.7363   -7.7875 C   0  0  0  0  0  0
   20.0383   46.4203   -7.6858 C   0  0  0  0  0  0
   20.3102   47.6392   -8.5515 C   0  0  0  0  0  0
   19.3015   48.7915   -8.3784 C   0  0  0  0  0  0
   19.4249   49.8617   -9.4845 C   0  0  0  0  0  0
   18.5613   49.5789  -10.7289 C   0  0  0  0  0  0
   18.9399   48.3406  -11.3215 O   0  0  0  0  0  0
   17.9025   47.5290  -11.7110 C   0  0  0  0  0  0
   17.9228   46.1853  -11.3055 C   0  0  0  0  0  0
   16.8305   45.3317  -11.5780 C   0  0  0  0  0  0
   15.7483   45.8198  -12.3439 C   0  0  0  0  0  0
   15.7279   47.1656  -12.7951 C   0  0  0  0  0  0
   16.8178   48.0070  -12.4770 C   0  0  0  0  0  0
   14.6360   47.6926  -13.5555 N   0  0  0  0  0  0
   14.7815   48.8534  -14.4298 C   0  0  0  0  0  0
   13.4675   48.9519  -15.2114 C   0  0  0  0  0  0
   12.4683   48.1016  -14.4293 C   0  0  0  0  0  0
   13.3390   47.3503  -13.4351 C   0  0  0  0  0  0
   12.8613   46.5896  -12.5943 O   0  0  0  0  0  0
   16.7875   43.9597  -10.9720 C   0  0  0  0  0  0
   16.4518   42.9660  -11.6185 O   0  0  0  0  0  0
   17.0948   43.9870   -9.6655 N   0  0  0  0  0  0
   21.0487   45.9092   -6.8430 C   0  0  0  0  0  0
   20.8379   44.7097   -6.1363 C   0  0  0  0  0  0
   19.6286   44.0054   -6.2863 C   0  0  0  0  0  0
   16.9532   38.7745   -9.6248 N   0  0  0  0  0  0
   18.0495   38.9548  -10.3906 C   0  0  0  0  0  0
   19.3392   39.1635   -9.8727 C   0  0  0  0  0  0
   15.8793   41.4144   -9.4858 H   0  0  0  0  0  0
   17.9876   42.3425   -8.7590 H   0  0  0  0  0  0
   21.1643   41.3491   -8.9921 H   0  0  0  0  0  0
   22.2029   41.1872   -7.5811 H   0  0  0  0  0  0
   20.4901   41.5513   -7.3792 H   0  0  0  0  0  0
   21.6174   38.9627   -8.5424 H   0  0  0  0  0  0
   20.8724   37.8720   -6.4400 H   0  0  0  0  0  0
   20.4690   39.4487   -5.7502 H   0  0  0  0  0  0
   22.1343   39.0581   -6.1528 H   0  0  0  0  0  0
   18.4390   39.0089   -6.5898 H   0  0  0  0  0  0
   16.1380   38.5500   -6.4082 H   0  0  0  0  0  0
   15.2676   37.8108   -7.7390 H   0  0  0  0  0  0
   14.2861   39.8334   -6.8507 H   0  0  0  0  0  0
   16.7453   40.9615   -6.9249 H   0  0  0  0  0  0
   15.2656   41.7431   -6.5317 H   0  0  0  0  0  0
   14.6246   43.3357   -7.8612 H   0  0  0  0  0  0
   16.4608   44.4203   -7.1388 H   0  0  0  0  0  0
   17.2455   43.0213   -6.4407 H   0  0  0  0  0  0
   18.0308   46.1402   -8.4166 H   0  0  0  0  0  0
   21.3169   48.0052   -8.3549 H   0  0  0  0  0  0
   20.3235   47.2984   -9.5840 H   0  0  0  0  0  0
   19.4649   49.2442   -7.3995 H   0  0  0  0  0  0
   18.2770   48.4221   -8.3638 H   0  0  0  0  0  0
   19.1075   50.8197   -9.0765 H   0  0  0  0  0  0
   20.4699   49.9896   -9.7654 H   0  0  0  0  0  0
   18.6818   50.3741  -11.4674 H   0  0  0  0  0  0
   17.5131   49.5821  -10.4200 H   0  0  0  0  0  0
   18.7633   45.8296  -10.7244 H   0  0  0  0  0  0
   14.9215   45.1532  -12.5474 H   0  0  0  0  0  0
   16.8309   49.0381  -12.7985 H   0  0  0  0  0  0
   14.9189   49.7516  -13.8227 H   0  0  0  0  0  0
   15.6438   48.7602  -15.0916 H   0  0  0  0  0  0
   13.6005   48.5530  -16.2199 H   0  0  0  0  0  0
   13.1364   49.9864  -15.3078 H   0  0  0  0  0  0
   11.7444   48.7191  -13.8935 H   0  0  0  0  0  0
   11.9236   47.4089  -15.0712 H   0  0  0  0  0  0
   17.3447   44.9047   -9.3347 H   0  0  0  0  0  0
   21.9973   46.4174   -6.7585 H   0  0  0  0  0  0
   21.6122   44.3101   -5.4957 H   0  0  0  0  0  0
   19.4890   43.0784   -5.7525 H   0  0  0  0  0  0
   17.8965   38.9508  -11.4581 H   0  0  0  0  0  0
   20.1739   39.3257  -10.5389 H   0  0  0  0  0  0
   14.5906   39.9390   -8.4618 H   0  0  0  0  0  0
  1  2  1  0  0  0
  1 45  1  0  0  0
  1 46  1  0  0  0
  1 47  1  0  0  0
  2  3  1  0  0  0
  2  4  1  0  0  0
  2 48  1  0  0  0
  3 49  1  0  0  0
  3 50  1  0  0  0
  3 51  1  0  0  0
  4 42  1  0  0  0
  4  5  2  0  0  0
  5  6  1  0  0  0
  5 52  1  0  0  0
  6  7  1  0  0  0
  6 40  2  0  0  0
  7  8  1  0  0  0
  7 53  1  0  0  0
  7 54  1  0  0  0
  8  9  1  0  0  0
  8 55  1  0  0  0
  8 85  1  0  0  0
  9 10  1  0  0  0
  9 56  1  0  0  0
  9 57  1  0  0  0
 10 43  1  0  0  0
 10 11  1  0  0  0
 10 12  1  0  0  0
 11 58  1  0  0  0
 12 44  1  0  0  0
 12 36  1  0  0  0
 12 13  1  0  0  0
 13 14  1  0  0  0
 13 59  1  0  0  0
 13 60  1  0  0  0
 14 39  1  0  0  0
 14 15  2  0  0  0
 15 16  1  0  0  0
 15 61  1  0  0  0
 16 17  1  0  0  0
 16 37  2  0  0  0
 17 18  1  0  0  0
 17 62  1  0  0  0
 17 63  1  0  0  0
 18 19  1  0  0  0
 18 64  1  0  0  0
 18 65  1  0  0  0
 19 20  1  0  0  0
 19 66  1  0  0  0
 19 67  1  0  0  0
 20 21  1  0  0  0
 20 68  1  0  0  0
 20 69  1  0  0  0
 21 22  1  0  0  0
 22 27  1  0  0  0
 22 23  2  0  0  0
 23 24  1  0  0  0
 23 70  1  0  0  0
 24 25  2  0  0  0
 24 34  1  0  0  0
 25 26  1  0  0  0
 25 71  1  0  0  0
 26 27  2  0  0  0
 26 28  1  0  0  0
 27 72  1  0  0  0
 28 32  1  0  0  0
 28 29  1  0  0  0
 29 30  1  0  0  0
 29 73  1  0  0  0
 29 74  1  0  0  0
 30 31  1  0  0  0
 30 75  1  0  0  0
 30 76  1  0  0  0
 31 32  1  0  0  0
 31 77  1  0  0  0
 31 78  1  0  0  0
 32 33  2  0  0  0
 34 35  2  0  0  0
 34 36  1  0  0  0
 36 79  1  0  0  0
 37 38  1  0  0  0
 37 80  1  0  0  0
 38 39  2  0  0  0
 38 81  1  0  0  0
 39 82  1  0  0  0
 40 41  1  0  0  0
 41 42  2  0  0  0
 41 83  1  0  0  0
 42 84  1  0  0  0
M  CHG  1   8   1
M  END
> <s_m_source_file>
BACE_136.smi

> <i_m_source_file_index>
1

> <i_lp_mmshare_version>
42013

> <i_f3d_flags>
0

> <s_epik_input>
W0NIM11bQ0hdKFtDSDNdKWMxW2NIXWMobltjSF1bY0hdMSlbQ0gyXVtOSF1bQ0gyXVtDQEBIXShbT0hdKVtDQEhdKFtDSDJdMilbTkhdQyg9TyljKFtjSF1jKFtjSF0zKU40W0NIMl1bQ0gyXVtDSDJdQzQ9TylbY0hdYzNPW0NIMl1bQ0gyXVtDSDJdW0NIMl1jKFtjSF1jMjUpW2NIXVtjSF1bY0hdNQ==

> <s_epik_cmdline>
J2VwaWtfcHl0aG9uJywgJy1waCcsICc3LjAnLCAnLXRuJywgJzgnLCAnLW1hJywgJzIwMCcsICctaW1hZScsICc8aW5maWxlLm1hZT4nLCAnLW9tYWUnLCAnPG91dGZpbGUubWFlPic=

> <r_lp_tautomer_probability>
1

> <r_epik_Ionization_Penalty>
  0.0385

> <r_epik_Ionization_Penalty_Charging>
  0.0382

> <r_epik_Ionization_Penalty_Neutral>
  0.0002

> <r_epik_State_Penalty>
  0.0320

> <r_epik_Charging_Adjusted_Penalty>
0.0702789

> <i_epik_Tot_Q>
1

> <i_epik_Tot_abs_Q>
1

> <s_lp_Force_Field>
OPLS_2005

> <r_lp_Energy>
52.4274

> <b_lp_Chiralities_Consistent>
1

> <s_lp_Variant>
BACE_136.smi:1-1

> <chiral flag>
1

> <version>
0

> <s_i_glide_gridfile>
second_dock_grid_2

> <i_i_glide_lignum>
279

> <i_i_glide_rotatable_bonds>
8

> <r_i_docking_score>
-4.12414

> <r_i_glide_ligand_efficiency>
-0.0981938

> <r_i_glide_ligand_efficiency_sa>
-0.341324

> <r_i_glide_ligand_efficiency_ln>
-0.870499

> <r_glide_XP_GScore>
-4.15614

> <r_i_glide_gscore>
-4.15614

> <r_i_glide_evdw>
-37.7331

> <r_i_glide_ecoul>
-17.3356

> <r_i_glide_energy>
-55.0687

> <r_i_glide_einternal>
2.37301

> <r_i_glide_emodel>
-76.5049

> <r_glide_XP_HBond>
0

> <i_i_glide_confnum>
1

> <i_i_glide_posenum>
11

> <r_i_glide_eff_state_penalty>
0.032

> <i_glide_XP_PoseRank>
1

$$$$
BACE_136.smi:1
                    3D
 Structure written by MMmdl.
 84 88  0  0  1  0            999 V2000
   15.7623   47.8874  -12.8335 C   0  0  0  0  0  0
   16.8704   47.2921  -11.9523 C   0  0  0  0  0  0
   16.8153   47.8278  -10.5140 C   0  0  0  0  0  0
   16.8537   45.7715  -11.9792 C   0  0  0  0  0  0
   15.7795   45.0368  -11.4316 C   0  0  0  0  0  0
   15.8331   43.6280  -11.4705 C   0  0  0  0  0  0
   14.7190   42.7925  -10.8432 C   0  0  0  0  0  0
   15.0001   41.3522  -10.8709 N   0  0  0  0  0  0
   14.5424   40.5675   -9.7104 C   0  0  0  0  0  0
   15.2773   40.9143   -8.3835 C   0  0  1  0  0  0
   14.7040   40.1481   -7.3458 O   0  0  0  0  0  0
   16.7963   40.6107   -8.4301 C   0  0  2  0  0  0
   17.1854   39.1512   -8.0813 C   0  0  0  0  0  0
   18.6764   38.9139   -8.1883 C   0  0  0  0  0  0
   19.4797   39.1240   -7.0543 C   0  0  0  0  0  0
   20.8787   39.0143   -7.1480 C   0  0  0  0  0  0
   21.7141   39.3618   -5.9392 C   0  0  0  0  0  0
   22.3717   40.7410   -6.0942 C   0  0  0  0  0  0
   22.6823   41.4133   -4.7450 C   0  0  0  0  0  0
   21.4720   42.1119   -4.0956 C   0  0  0  0  0  0
   21.4022   43.4785   -4.4912 O   0  0  0  0  0  0
   20.5127   43.9086   -5.4556 C   0  0  0  0  0  0
   19.6944   43.0710   -6.2498 C   0  0  0  0  0  0
   18.8160   43.6234   -7.2052 C   0  0  0  0  0  0
   18.7400   45.0229   -7.3532 C   0  0  0  0  0  0
   19.5311   45.8846   -6.5582 C   0  0  0  0  0  0
   20.4313   45.3023   -5.6397 C   0  0  0  0  0  0
   19.4730   47.3074   -6.7023 N   0  0  0  0  0  0
   20.6083   48.1694   -6.3900 C   0  0  0  0  0  0
   20.1428   49.6098   -6.6380 C   0  0  0  0  0  0
   18.7718   49.4923   -7.3011 C   0  0  0  0  0  0
   18.4184   48.0275   -7.1306 C   0  0  0  0  0  0
   17.2809   47.6173   -7.3451 O   0  0  0  0  0  0
   18.0323   42.7455   -8.1316 C   0  0  0  0  0  0
   17.8440   43.1134   -9.2871 O   0  0  0  0  0  0
   17.5371   41.5995   -7.6402 N   0  0  0  0  0  0
   21.4762   38.6493   -8.3711 C   0  0  0  0  0  0
   20.6694   38.4170   -9.5010 C   0  0  0  0  0  0
   19.2697   38.5498   -9.4151 C   0  0  0  0  0  0
   16.8600   42.9510  -12.0406 N   0  0  0  0  0  0
   17.8928   43.6567  -12.5381 C   0  0  0  0  0  0
   17.9335   45.0620  -12.5435 C   0  0  0  0  0  0
   15.1018   41.9636   -8.1399 H   0  0  0  0  0  0
   17.1258   40.7386   -9.4611 H   0  0  0  0  0  0
   15.8736   47.5650  -13.8691 H   0  0  0  0  0  0
   15.7998   48.9769  -12.8255 H   0  0  0  0  0  0
   14.7720   47.5815  -12.4962 H   0  0  0  0  0  0
   17.8229   47.6186  -12.3746 H   0  0  0  0  0  0
   17.6466   47.4330   -9.9298 H   0  0  0  0  0  0
   15.8910   47.5453  -10.0075 H   0  0  0  0  0  0
   16.8915   48.9140  -10.4944 H   0  0  0  0  0  0
   14.9452   45.5398  -10.9687 H   0  0  0  0  0  0
   13.7824   42.9946  -11.3641 H   0  0  0  0  0  0
   14.5824   43.1487   -9.8226 H   0  0  0  0  0  0
   16.0033   41.2446  -11.0109 H   0  0  0  0  0  0
   14.6829   39.5066   -9.9193 H   0  0  0  0  0  0
   13.4679   40.7008   -9.5981 H   0  0  0  0  0  0
   14.6268   40.6731   -6.5551 H   0  0  0  0  0  0
   16.6619   38.4504   -8.7319 H   0  0  0  0  0  0
   16.8795   38.8986   -7.0632 H   0  0  0  0  0  0
   19.0209   39.4209   -6.1212 H   0  0  0  0  0  0
   22.4593   38.5853   -5.7854 H   0  0  0  0  0  0
   21.0750   39.3508   -5.0571 H   0  0  0  0  0  0
   23.2600   40.6194   -6.7007 H   0  0  0  0  0  0
   21.7464   41.4041   -6.6839 H   0  0  0  0  0  0
   23.0820   40.6619   -4.0596 H   0  0  0  0  0  0
   23.4791   42.1498   -4.8668 H   0  0  0  0  0  0
   20.5425   41.5585   -4.2153 H   0  0  0  0  0  0
   21.6435   42.1375   -3.0187 H   0  0  0  0  0  0
   19.7308   41.9983   -6.1456 H   0  0  0  0  0  0
   18.0808   45.4245   -8.1091 H   0  0  0  0  0  0
   21.0661   45.9179   -5.0225 H   0  0  0  0  0  0
   20.9315   48.0612   -5.3557 H   0  0  0  0  0  0
   21.4458   47.9098   -7.0375 H   0  0  0  0  0  0
   20.8484   50.1542   -7.2624 H   0  0  0  0  0  0
   20.0630   50.1485   -5.6922 H   0  0  0  0  0  0
   18.0194   50.1291   -6.8407 H   0  0  0  0  0  0
   18.8236   49.7284   -8.3633 H   0  0  0  0  0  0
   17.6649   41.3979   -6.6501 H   0  0  0  0  0  0
   22.5501   38.5658   -8.4525 H   0  0  0  0  0  0
   21.1300   38.1498  -10.4385 H   0  0  0  0  0  0
   18.6567   38.3877  -10.2888 H   0  0  0  0  0  0
   18.7046   43.0837  -12.9626 H   0  0  0  0  0  0
   18.7823   45.5791  -12.9653 H   0  0  0  0  0  0
  1  2  1  0  0  0
  1 45  1  0  0  0
  1 46  1  0  0  0
  1 47  1  0  0  0
  2  3  1  0  0  0
  2  4  1  0  0  0
  2 48  1  0  0  0
  3 49  1  0  0  0
  3 50  1  0  0  0
  3 51  1  0  0  0
  4 42  1  0  0  0
  4  5  2  0  0  0
  5  6  1  0  0  0
  5 52  1  0  0  0
  6  7  1  0  0  0
  6 40  2  0  0  0
  7  8  1  0  0  0
  7 53  1  0  0  0
  7 54  1  0  0  0
  8  9  1  0  0  0
  8 55  1  0  0  0
  9 10  1  0  0  0
  9 56  1  0  0  0
  9 57  1  0  0  0
 10 43  1  0  0  0
 10 11  1  0  0  0
 10 12  1  0  0  0
 11 58  1  0  0  0
 12 44  1  0  0  0
 12 36  1  0  0  0
 12 13  1  0  0  0
 13 14  1  0  0  0
 13 59  1  0  0  0
 13 60  1  0  0  0
 14 39  1  0  0  0
 14 15  2  0  0  0
 15 16  1  0  0  0
 15 61  1  0  0  0
 16 17  1  0  0  0
 16 37  2  0  0  0
 17 18  1  0  0  0
 17 62  1  0  0  0
 17 63  1  0  0  0
 18 19  1  0  0  0
 18 64  1  0  0  0
 18 65  1  0  0  0
 19 20  1  0  0  0
 19 66  1  0  0  0
 19 67  1  0  0  0
 20 21  1  0  0  0
 20 68  1  0  0  0
 20 69  1  0  0  0
 21 22  1  0  0  0
 22 27  1  0  0  0
 22 23  2  0  0  0
 23 24  1  0  0  0
 23 70  1  0  0  0
 24 25  2  0  0  0
 24 34  1  0  0  0
 25 26  1  0  0  0
 25 71  1  0  0  0
 26 27  2  0  0  0
 26 28  1  0  0  0
 27 72  1  0  0  0
 28 32  1  0  0  0
 28 29  1  0  0  0
 29 30  1  0  0  0
 29 73  1  0  0  0
 29 74  1  0  0  0
 30 31  1  0  0  0
 30 75  1  0  0  0
 30 76  1  0  0  0
 31 32  1  0  0  0
 31 77  1  0  0  0
 31 78  1  0  0  0
 32 33  2  0  0  0
 34 35  2  0  0  0
 34 36  1  0  0  0
 36 79  1  0  0  0
 37 38  1  0  0  0
 37 80  1  0  0  0
 38 39  2  0  0  0
 38 81  1  0  0  0
 39 82  1  0  0  0
 40 41  1  0  0  0
 41 42  2  0  0  0
 41 83  1  0  0  0
 42 84  1  0  0  0
M  END
> <s_m_source_file>
BACE_136.smi

> <i_m_source_file_index>
1

> <i_lp_mmshare_version>
42013

> <i_f3d_flags>
0

> <s_epik_input>
W0NIM11bQ0hdKFtDSDNdKWMxW2NIXWMobltjSF1bY0hdMSlbQ0gyXVtOSF1bQ0gyXVtDQEBIXShbT0hdKVtDQEhdKFtDSDJdMilbTkhdQyg9TyljKFtjSF1jKFtjSF0zKU40W0NIMl1bQ0gyXVtDSDJdQzQ9TylbY0hdYzNPW0NIMl1bQ0gyXVtDSDJdW0NIMl1jKFtjSF1jMjUpW2NIXVtjSF1bY0hdNQ==

> <s_epik_cmdline>
J2VwaWtfcHl0aG9uJywgJy1waCcsICc3LjAnLCAnLXRuJywgJzgnLCAnLW1hJywgJzIwMCcsICctaW1hZScsICc8aW5maWxlLm1hZT4nLCAnLW9tYWUnLCAnPG91dGZpbGUubWFlPic=

> <r_lp_tautomer_probability>
1

> <r_epik_Ionization_Penalty>
  1.6445

> <r_epik_Ionization_Penalty_Charging>
  0.0000

> <r_epik_Ionization_Penalty_Neutral>
  1.6445

> <r_epik_State_Penalty>
  1.7443

> <r_epik_Charging_Adjusted_Penalty>
1.74428

> <i_epik_Tot_Q>
0

> <i_epik_Tot_abs_Q>
0

> <s_lp_Force_Field>
OPLS_2005

> <r_lp_Energy>
62.4518

> <b_lp_Chiralities_Consistent>
1

> <s_lp_Variant>
BACE_136.smi:1-2

> <chiral flag>
1

> <version>
0

> <s_i_glide_gridfile>
second_dock_grid_2

> <i_i_glide_lignum>
280

> <i_i_glide_rotatable_bonds>
8

> <r_i_docking_score>
-3.69403

> <r_i_glide_ligand_efficiency>
-0.0879531

> <r_i_glide_ligand_efficiency_sa>
-0.305727

> <r_i_glide_ligand_efficiency_ln>
-0.779715

> <r_glide_XP_GScore>
-5.43833

> <r_i_glide_gscore>
-5.43833

> <r_i_glide_evdw>
-43.6179

> <r_i_glide_ecoul>
-11.0502

> <r_i_glide_energy>
-54.6681

> <r_i_glide_einternal>
7.18805

> <r_i_glide_emodel>
-78.441

> <r_glide_XP_HBond>
-1.30592

> <i_i_glide_confnum>
1

> <i_i_glide_posenum>
1

> <r_i_glide_eff_state_penalty>
1.7443

> <i_glide_XP_PoseRank>
1

$$$$
BACE_137.smi:1
                    3D
 Structure written by MMmdl.
 74 77  0  0  1  0            999 V2000
   27.7683   45.3989  -14.1443 C   0  0  0  0  0  0
   27.6281   45.4596  -12.6154 C   0  0  0  0  0  0
   28.8390   46.1419  -11.9611 C   0  0  0  0  0  0
   27.3716   44.0815  -12.0194 C   0  0  0  0  0  0
   28.3333   43.0541  -12.1388 C   0  0  0  0  0  0
   28.0917   41.7865  -11.5766 C   0  0  0  0  0  0
   26.8923   41.5394  -10.8831 C   0  0  0  0  0  0
   25.9270   42.5600  -10.7534 C   0  0  0  0  0  0
   24.6570   42.3189   -9.9526 C   0  0  0  0  0  0
   23.9288   41.1267  -10.4396 N   0  3  0  0  0  0
   22.4817   41.1049  -10.1340 C   0  0  0  0  0  0
   22.0698   42.3387   -9.3006 C   0  0  1  0  0  0
   21.3785   43.2134  -10.1708 O   0  0  0  0  0  0
   21.1832   41.9931   -8.0749 C   0  0  2  0  0  0
   21.1783   40.4795   -7.7199 C   0  0  0  0  0  0
   20.1014   39.6606   -8.4236 C   0  0  0  0  0  0
   20.3056   39.1938   -9.7386 C   0  0  0  0  0  0
   19.2949   38.4647  -10.3944 C   0  0  0  0  0  0
   18.0784   38.1948   -9.7384 C   0  0  0  0  0  0
   17.8661   38.6561   -8.4227 C   0  0  0  0  0  0
   16.5690   38.3435   -7.6969 C   0  0  0  0  0  0
   15.4785   39.4257   -7.8277 C   0  0  0  0  0  0
   14.7925   39.4942   -9.2072 C   0  0  0  0  0  0
   15.3554   40.5276  -10.2005 C   0  0  0  0  0  0
   14.8758   41.8404   -9.9108 O   0  0  0  0  0  0
   15.6762   42.7603   -9.2655 C   0  0  0  0  0  0
   15.1499   44.0539   -9.0690 C   0  0  0  0  0  0
   15.8186   45.0576   -8.4631 N   0  0  0  0  0  0
   17.0677   44.8088   -8.0188 C   0  0  0  0  0  0
   17.7095   43.5611   -8.1676 C   0  0  0  0  0  0
   16.9881   42.5184   -8.7935 C   0  0  0  0  0  0
   19.1019   43.3453   -7.6506 C   0  0  0  0  0  0
   19.5498   44.0055   -6.7141 O   0  0  0  0  0  0
   19.8123   42.4352   -8.3327 N   0  0  0  0  0  0
   18.8817   39.3839   -7.7683 C   0  0  0  0  0  0
   26.1666   43.8246  -11.3308 C   0  0  0  0  0  0
   22.9663   42.8477   -8.9439 H   0  0  0  0  0  0
   21.5978   42.5312   -7.2203 H   0  0  0  0  0  0
   26.8779   44.9665  -14.6019 H   0  0  0  0  0  0
   28.6249   44.7960  -14.4470 H   0  0  0  0  0  0
   27.9025   46.3959  -14.5645 H   0  0  0  0  0  0
   26.7583   46.0813  -12.3985 H   0  0  0  0  0  0
   28.7117   46.2120  -10.8804 H   0  0  0  0  0  0
   28.9731   47.1544  -12.3427 H   0  0  0  0  0  0
   29.7613   45.5940  -12.1545 H   0  0  0  0  0  0
   29.2627   43.2338  -12.6593 H   0  0  0  0  0  0
   28.8332   41.0065  -11.6687 H   0  0  0  0  0  0
   26.7239   40.5686  -10.4400 H   0  0  0  0  0  0
   24.9226   42.1661   -8.9063 H   0  0  0  0  0  0
   24.0030   43.1912   -9.9915 H   0  0  0  0  0  0
   24.0361   41.0983  -11.4432 H   0  0  0  0  0  0
   21.9039   41.0299  -11.0563 H   0  0  0  0  0  0
   22.2634   40.1964   -9.5796 H   0  0  0  0  0  0
   21.6525   43.0365  -11.0582 H   0  0  0  0  0  0
   22.1511   40.0193   -7.8923 H   0  0  0  0  0  0
   21.0081   40.3833   -6.6468 H   0  0  0  0  0  0
   21.2352   39.3962  -10.2496 H   0  0  0  0  0  0
   19.4534   38.1095  -11.4021 H   0  0  0  0  0  0
   17.3095   37.6315  -10.2469 H   0  0  0  0  0  0
   16.1864   37.3810   -8.0391 H   0  0  0  0  0  0
   16.8025   38.2049   -6.6404 H   0  0  0  0  0  0
   14.7035   39.1713   -7.1036 H   0  0  0  0  0  0
   15.8491   40.3988   -7.5108 H   0  0  0  0  0  0
   14.8175   38.5054   -9.6664 H   0  0  0  0  0  0
   13.7338   39.7138   -9.0638 H   0  0  0  0  0  0
   16.4323   40.4479  -10.3292 H   0  0  0  0  0  0
   14.9516   40.2884  -11.1846 H   0  0  0  0  0  0
   14.1546   44.2920   -9.4143 H   0  0  0  0  0  0
   17.5698   45.6386   -7.5430 H   0  0  0  0  0  0
   17.4487   41.5503   -8.8971 H   0  0  0  0  0  0
   19.3399   41.9701   -9.0947 H   0  0  0  0  0  0
   18.7196   39.7406   -6.7613 H   0  0  0  0  0  0
   25.4285   44.6066  -11.2256 H   0  0  0  0  0  0
   24.3489   40.2952  -10.0494 H   0  0  0  0  0  0
  1  2  1  0  0  0
  1 39  1  0  0  0
  1 40  1  0  0  0
  1 41  1  0  0  0
  2  3  1  0  0  0
  2  4  1  0  0  0
  2 42  1  0  0  0
  3 43  1  0  0  0
  3 44  1  0  0  0
  3 45  1  0  0  0
  4 36  1  0  0  0
  4  5  2  0  0  0
  5  6  1  0  0  0
  5 46  1  0  0  0
  6  7  2  0  0  0
  6 47  1  0  0  0
  7  8  1  0  0  0
  7 48  1  0  0  0
  8  9  1  0  0  0
  8 36  2  0  0  0
  9 10  1  0  0  0
  9 49  1  0  0  0
  9 50  1  0  0  0
 10 11  1  0  0  0
 10 51  1  0  0  0
 10 74  1  0  0  0
 11 12  1  0  0  0
 11 52  1  0  0  0
 11 53  1  0  0  0
 12 37  1  0  0  0
 12 13  1  0  0  0
 12 14  1  0  0  0
 13 54  1  0  0  0
 14 38  1  0  0  0
 14 34  1  0  0  0
 14 15  1  0  0  0
 15 16  1  0  0  0
 15 55  1  0  0  0
 15 56  1  0  0  0
 16 35  1  0  0  0
 16 17  2  0  0  0
 17 18  1  0  0  0
 17 57  1  0  0  0
 18 19  2  0  0  0
 18 58  1  0  0  0
 19 20  1  0  0  0
 19 59  1  0  0  0
 20 21  1  0  0  0
 20 35  2  0  0  0
 21 22  1  0  0  0
 21 60  1  0  0  0
 21 61  1  0  0  0
 22 23  1  0  0  0
 22 62  1  0  0  0
 22 63  1  0  0  0
 23 24  1  0  0  0
 23 64  1  0  0  0
 23 65  1  0  0  0
 24 25  1  0  0  0
 24 66  1  0  0  0
 24 67  1  0  0  0
 25 26  1  0  0  0
 26 31  1  0  0  0
 26 27  2  0  0  0
 27 28  1  0  0  0
 27 68  1  0  0  0
 28 29  2  0  0  0
 29 30  1  0  0  0
 29 69  1  0  0  0
 30 31  2  0  0  0
 30 32  1  0  0  0
 31 70  1  0  0  0
 32 33  2  0  0  0
 32 34  1  0  0  0
 34 71  1  0  0  0
 35 72  1  0  0  0
 36 73  1  0  0  0
M  CHG  1  10   1
M  END
> <s_m_source_file>
BACE_137.smi

> <i_m_source_file_index>
1

> <i_lp_mmshare_version>
42013

> <i_f3d_flags>
0

> <s_epik_input>
W0NIM11bQ0hdKFtDSDNdKWMxW2NIXVtjSF1bY0hdYyhbY0hdMSlbQ0gyXVtOSF1bQ0gyXVtDQEBIXShbT0hdKVtDQEhdKFtDSDJdMilbTkhdQyg9TyljKFtjSF0zKVtjSF1uW2NIXWMzT1tDSDJdW0NIMl1bQ0gyXVtDSDJdYyhbY0hdNClbY0hdW2NIXVtjSF1jMjQ=

> <s_epik_cmdline>
J2VwaWtfcHl0aG9uJywgJy1waCcsICc3LjAnLCAnLXRuJywgJzgnLCAnLW1hJywgJzIwMCcsICctaW1hZScsICc8aW5maWxlLm1hZT4nLCAnLW9tYWUnLCAnPG91dGZpbGUubWFlPic=

> <r_lp_tautomer_probability>
1

> <r_epik_Ionization_Penalty>
  0.0203

> <r_epik_Ionization_Penalty_Charging>
  0.0201

> <r_epik_Ionization_Penalty_Neutral>
  0.0002

> <r_epik_State_Penalty>
  0.0161

> <r_epik_Charging_Adjusted_Penalty>
0.0361071

> <i_epik_Tot_Q>
1

> <i_epik_Tot_abs_Q>
1

> <s_lp_Force_Field>
OPLS_2005

> <r_lp_Energy>
27.1754

> <b_lp_Chiralities_Consistent>
1

> <s_lp_Variant>
BACE_137.smi:1-1

> <chiral flag>
1

> <version>
0

> <s_i_glide_gridfile>
second_dock_grid_2

> <i_i_glide_lignum>
281

> <i_i_glide_rotatable_bonds>
7

> <r_i_docking_score>
-2.77077

> <r_i_glide_ligand_efficiency>
-0.0769657

> <r_i_glide_ligand_efficiency_sa>
-0.254135

> <r_i_glide_ligand_efficiency_ln>
-0.604506

> <r_glide_XP_GScore>
-2.78687

> <r_i_glide_gscore>
-2.78687

> <r_i_glide_evdw>
-37.3021

> <r_i_glide_ecoul>
-10.0099

> <r_i_glide_energy>
-47.312

> <r_i_glide_einternal>
3.34623

> <r_i_glide_emodel>
-65.342

> <r_glide_XP_HBond>
0

> <i_i_glide_confnum>
1

> <i_i_glide_posenum>
2

> <r_i_glide_eff_state_penalty>
0.0161

> <i_glide_XP_PoseRank>
1

$$$$
BACE_137.smi:1
                    3D
 Structure written by MMmdl.
 73 76  0  0  1  0            999 V2000
   29.4814   41.4188  -13.2641 C   0  0  0  0  0  0
   29.7350   42.5593  -12.2660 C   0  0  0  0  0  0
   30.7126   42.1368  -11.1581 C   0  0  0  0  0  0
   28.4341   43.1023  -11.6878 C   0  0  0  0  0  0
   28.1114   44.4684  -11.8360 C   0  0  0  0  0  0
   26.9150   44.9785  -11.2963 C   0  0  0  0  0  0
   26.0345   44.1273  -10.6024 C   0  0  0  0  0  0
   26.3468   42.7612  -10.4482 C   0  0  0  0  0  0
   25.4029   41.8453   -9.6941 C   0  0  0  0  0  0
   24.1097   41.7259  -10.3586 N   0  0  0  0  0  0
   22.9771   41.8901   -9.4516 C   0  0  0  0  0  0
   22.6896   40.5862   -8.6751 C   0  0  1  0  0  0
   23.9235   40.1498   -8.1373 O   0  0  0  0  0  0
   21.6865   40.7638   -7.5056 C   0  0  2  0  0  0
   21.0822   39.4232   -7.0014 C   0  0  0  0  0  0
   19.8340   38.9563   -7.7436 C   0  0  0  0  0  0
   19.9491   38.2925   -8.9827 C   0  0  0  0  0  0
   18.7948   37.8735   -9.6719 C   0  0  0  0  0  0
   17.5199   38.1058   -9.1214 C   0  0  0  0  0  0
   17.3938   38.7641   -7.8807 C   0  0  0  0  0  0
   16.0229   38.9790   -7.2630 C   0  0  0  0  0  0
   15.3792   40.3450   -7.5715 C   0  0  0  0  0  0
   14.8593   40.5147   -9.0148 C   0  0  0  0  0  0
   15.8169   41.1770  -10.0252 C   0  0  0  0  0  0
   15.8497   42.5954   -9.8660 O   0  0  0  0  0  0
   16.7916   43.1872   -9.0508 C   0  0  0  0  0  0
   16.6002   44.5407   -8.7026 C   0  0  0  0  0  0
   17.4318   45.2393   -7.9008 N   0  0  0  0  0  0
   18.5168   44.6062   -7.4077 C   0  0  0  0  0  0
   18.8310   43.2637   -7.7062 C   0  0  0  0  0  0
   17.9462   42.5466   -8.5423 C   0  0  0  0  0  0
   20.0341   42.5996   -7.1069 C   0  0  0  0  0  0
   20.4392   42.9048   -5.9857 O   0  0  0  0  0  0
   20.6161   41.6805   -7.8925 N   0  0  0  0  0  0
   18.5527   39.1861   -7.1953 C   0  0  0  0  0  0
   27.5436   42.2522  -10.9952 C   0  0  0  0  0  0
   22.3132   39.8305   -9.3649 H   0  0  0  0  0  0
   22.2520   41.2041   -6.6817 H   0  0  0  0  0  0
   28.8315   41.7470  -14.0760 H   0  0  0  0  0  0
   29.0093   40.5606  -12.7849 H   0  0  0  0  0  0
   30.4148   41.0746  -13.7103 H   0  0  0  0  0  0
   30.2125   43.3681  -12.8209 H   0  0  0  0  0  0
   30.9229   42.9683  -10.4847 H   0  0  0  0  0  0
   31.6629   41.8076  -11.5791 H   0  0  0  0  0  0
   30.3151   41.3163  -10.5602 H   0  0  0  0  0  0
   28.7807   45.1335  -12.3619 H   0  0  0  0  0  0
   26.6738   46.0247  -11.4120 H   0  0  0  0  0  0
   25.1210   44.5275  -10.1874 H   0  0  0  0  0  0
   25.8644   40.8620   -9.5951 H   0  0  0  0  0  0
   25.2737   42.2332   -8.6829 H   0  0  0  0  0  0
   24.0461   40.8170  -10.8050 H   0  0  0  0  0  0
   23.1514   42.7154   -8.7599 H   0  0  0  0  0  0
   22.1068   42.1699  -10.0447 H   0  0  0  0  0  0
   24.3616   39.6152   -8.7815 H   0  0  0  0  0  0
   21.8231   38.6237   -7.0091 H   0  0  0  0  0  0
   20.8108   39.5459   -5.9520 H   0  0  0  0  0  0
   20.9224   38.1010   -9.4096 H   0  0  0  0  0  0
   18.8876   37.3669  -10.6214 H   0  0  0  0  0  0
   16.6395   37.7732   -9.6514 H   0  0  0  0  0  0
   15.3566   38.1726   -7.5720 H   0  0  0  0  0  0
   16.1249   38.8742   -6.1820 H   0  0  0  0  0  0
   14.5127   40.4313   -6.9149 H   0  0  0  0  0  0
   16.0341   41.1612   -7.2745 H   0  0  0  0  0  0
   14.5552   39.5401   -9.3977 H   0  0  0  0  0  0
   13.9444   41.1078   -8.9898 H   0  0  0  0  0  0
   16.7909   40.6959  -10.0616 H   0  0  0  0  0  0
   15.4025   41.0134  -11.0202 H   0  0  0  0  0  0
   15.7394   45.0788   -9.0718 H   0  0  0  0  0  0
   19.1517   45.1945   -6.7613 H   0  0  0  0  0  0
   18.1624   41.5158   -8.7673 H   0  0  0  0  0  0
   20.2194   41.5371   -8.8098 H   0  0  0  0  0  0
   18.4572   39.6910   -6.2449 H   0  0  0  0  0  0
   27.7797   41.2049  -10.8760 H   0  0  0  0  0  0
  1  2  1  0  0  0
  1 39  1  0  0  0
  1 40  1  0  0  0
  1 41  1  0  0  0
  2  3  1  0  0  0
  2  4  1  0  0  0
  2 42  1  0  0  0
  3 43  1  0  0  0
  3 44  1  0  0  0
  3 45  1  0  0  0
  4 36  1  0  0  0
  4  5  2  0  0  0
  5  6  1  0  0  0
  5 46  1  0  0  0
  6  7  2  0  0  0
  6 47  1  0  0  0
  7  8  1  0  0  0
  7 48  1  0  0  0
  8  9  1  0  0  0
  8 36  2  0  0  0
  9 10  1  0  0  0
  9 49  1  0  0  0
  9 50  1  0  0  0
 10 11  1  0  0  0
 10 51  1  0  0  0
 11 12  1  0  0  0
 11 52  1  0  0  0
 11 53  1  0  0  0
 12 37  1  0  0  0
 12 13  1  0  0  0
 12 14  1  0  0  0
 13 54  1  0  0  0
 14 38  1  0  0  0
 14 34  1  0  0  0
 14 15  1  0  0  0
 15 16  1  0  0  0
 15 55  1  0  0  0
 15 56  1  0  0  0
 16 35  1  0  0  0
 16 17  2  0  0  0
 17 18  1  0  0  0
 17 57  1  0  0  0
 18 19  2  0  0  0
 18 58  1  0  0  0
 19 20  1  0  0  0
 19 59  1  0  0  0
 20 21  1  0  0  0
 20 35  2  0  0  0
 21 22  1  0  0  0
 21 60  1  0  0  0
 21 61  1  0  0  0
 22 23  1  0  0  0
 22 62  1  0  0  0
 22 63  1  0  0  0
 23 24  1  0  0  0
 23 64  1  0  0  0
 23 65  1  0  0  0
 24 25  1  0  0  0
 24 66  1  0  0  0
 24 67  1  0  0  0
 25 26  1  0  0  0
 26 31  1  0  0  0
 26 27  2  0  0  0
 27 28  1  0  0  0
 27 68  1  0  0  0
 28 29  2  0  0  0
 29 30  1  0  0  0
 29 69  1  0  0  0
 30 31  2  0  0  0
 30 32  1  0  0  0
 31 70  1  0  0  0
 32 33  2  0  0  0
 32 34  1  0  0  0
 34 71  1  0  0  0
 35 72  1  0  0  0
 36 73  1  0  0  0
M  END
> <s_m_source_file>
BACE_137.smi

> <i_m_source_file_index>
1

> <i_lp_mmshare_version>
42013

> <i_f3d_flags>
0

> <s_epik_input>
W0NIM11bQ0hdKFtDSDNdKWMxW2NIXVtjSF1bY0hdYyhbY0hdMSlbQ0gyXVtOSF1bQ0gyXVtDQEBIXShbT0hdKVtDQEhdKFtDSDJdMilbTkhdQyg9TyljKFtjSF0zKVtjSF1uW2NIXWMzT1tDSDJdW0NIMl1bQ0gyXVtDSDJdYyhbY0hdNClbY0hdW2NIXVtjSF1jMjQ=

> <s_epik_cmdline>
J2VwaWtfcHl0aG9uJywgJy1waCcsICc3LjAnLCAnLXRuJywgJzgnLCAnLW1hJywgJzIwMCcsICctaW1hZScsICc8aW5maWxlLm1hZT4nLCAnLW9tYWUnLCAnPG91dGZpbGUubWFlPic=

> <r_lp_tautomer_probability>
1

> <r_epik_Ionization_Penalty>
  2.0164

> <r_epik_Ionization_Penalty_Charging>
  0.0000

> <r_epik_Ionization_Penalty_Neutral>
  2.0164

> <r_epik_State_Penalty>
  2.1460

> <r_epik_Charging_Adjusted_Penalty>
2.14597

> <i_epik_Tot_Q>
0

> <i_epik_Tot_abs_Q>
0

> <s_lp_Force_Field>
OPLS_2005

> <r_lp_Energy>
37.1229

> <b_lp_Chiralities_Consistent>
1

> <s_lp_Variant>
BACE_137.smi:1-2

> <chiral flag>
1

> <version>
0

> <s_i_glide_gridfile>
second_dock_grid_2

> <i_i_glide_lignum>
282

> <i_i_glide_rotatable_bonds>
7

> <r_i_docking_score>
0.0725207

> <r_i_glide_ligand_efficiency>
0.00201446

> <r_i_glide_ligand_efficiency_sa>
0.00665161

> <r_i_glide_ligand_efficiency_ln>
0.0158221

> <r_glide_XP_GScore>
-2.07348

> <r_i_glide_gscore>
-2.07348

> <r_i_glide_evdw>
-39.6368

> <r_i_glide_ecoul>
-6.48194

> <r_i_glide_energy>
-46.1187

> <r_i_glide_einternal>
4.65188

> <r_i_glide_emodel>
-64.0369

> <r_glide_XP_HBond>
-1.18

> <i_i_glide_confnum>
1

> <i_i_glide_posenum>
6

> <r_i_glide_eff_state_penalty>
2.146

> <i_glide_XP_PoseRank>
1

$$$$
BACE_138.smi:1
                    3D
 Structure written by MMmdl.
 72 75  0  0  1  0            999 V2000
   20.8831   40.0296  -12.1757 C   0  0  0  0  0  0
   19.9369   40.6359  -11.1150 C   0  0  0  0  0  0
   18.5117   40.1946  -11.4805 C   0  0  0  0  0  0
   20.1599   40.0388   -9.7743 N   0  3  0  0  0  0
   21.5061   40.0688   -9.1609 C   0  0  0  0  0  0
   21.5265   39.2811   -7.8327 C   0  0  1  0  0  0
   22.8356   39.3628   -7.3131 O   0  0  0  0  0  0
   20.5428   39.7196   -6.7008 C   0  0  2  0  0  0
   19.3323   38.7671   -6.5278 C   0  0  0  0  0  0
   18.2439   38.7789   -7.5981 C   0  0  0  0  0  0
   18.1379   37.6934   -8.4885 C   0  0  0  0  0  0
   17.0565   37.6047   -9.3830 C   0  0  0  0  0  0
   16.0869   38.6222   -9.4172 C   0  0  0  0  0  0
   16.2019   39.7361   -8.5655 C   0  0  0  0  0  0
   17.2692   39.7984   -7.6412 C   0  0  0  0  0  0
   15.2484   40.7162   -8.6567 O   0  0  0  0  0  0
   15.7266   42.0516   -8.6781 C   0  0  0  0  0  0
   14.5221   42.9853   -8.8355 C   0  0  0  0  0  0
   14.8620   44.4080   -9.3089 C   0  0  0  0  0  0
   15.8756   45.1764   -8.4405 C   0  0  0  0  0  0
   17.1612   44.6921   -8.7821 O   0  0  0  0  0  0
   18.1117   44.6659   -7.7977 C   0  0  0  0  0  0
   18.3179   45.6851   -6.8432 C   0  0  0  0  0  0
   19.2606   45.6210   -5.8764 N   0  0  0  0  0  0
   20.0576   44.5238   -5.8348 C   0  0  0  0  0  0
   19.9191   43.4432   -6.7327 C   0  0  0  0  0  0
   18.9480   43.5436   -7.7438 C   0  0  0  0  0  0
   20.7564   42.2089   -6.6245 C   0  0  0  0  0  0
   21.9547   42.2419   -6.3585 O   0  0  0  0  0  0
   20.0604   41.0844   -6.8403 N   0  0  0  0  0  0
   20.0718   42.1753  -11.1101 C   0  0  0  0  0  0
   21.3427   42.7820  -10.9449 C   0  0  0  0  0  0
   21.4909   44.1840  -10.9864 C   0  0  0  0  0  0
   20.3740   45.0058  -11.2331 C   0  0  0  0  0  0
   19.1111   44.4227  -11.4291 C   0  0  0  0  0  0
   17.6159   45.5142  -11.8764 Br  0  0  0  0  0  0
   18.9582   43.0270  -11.3450 C   0  0  0  0  0  0
   21.3676   38.2221   -8.0561 H   0  0  0  0  0  0
   21.0748   39.6636   -5.7459 H   0  0  0  0  0  0
   20.6471   40.4090  -13.1702 H   0  0  0  0  0  0
   20.7909   38.9481  -12.2181 H   0  0  0  0  0  0
   21.9340   40.2596  -11.9988 H   0  0  0  0  0  0
   18.2011   40.5944  -12.4414 H   0  0  0  0  0  0
   17.7816   40.5247  -10.7387 H   0  0  0  0  0  0
   18.4341   39.1080  -11.5482 H   0  0  0  0  0  0
   19.5169   40.4773   -9.1290 H   0  0  0  0  0  0
   22.2328   39.6234   -9.8394 H   0  0  0  0  0  0
   21.8260   41.0937   -8.9897 H   0  0  0  0  0  0
   22.9752   40.2437   -6.9863 H   0  0  0  0  0  0
   19.7072   37.7501   -6.4396 H   0  0  0  0  0  0
   18.8412   38.9789   -5.5756 H   0  0  0  0  0  0
   18.8601   36.8956   -8.4489 H   0  0  0  0  0  0
   16.9669   36.7537  -10.0405 H   0  0  0  0  0  0
   15.2548   38.5535  -10.1020 H   0  0  0  0  0  0
   17.3074   40.5962   -6.9175 H   0  0  0  0  0  0
   16.2622   42.3036   -7.7646 H   0  0  0  0  0  0
   16.4101   42.1687   -9.5178 H   0  0  0  0  0  0
   13.8318   42.5483   -9.5588 H   0  0  0  0  0  0
   13.9830   43.0249   -7.8896 H   0  0  0  0  0  0
   15.2191   44.3779  -10.3397 H   0  0  0  0  0  0
   13.9200   44.9497   -9.3410 H   0  0  0  0  0  0
   15.8371   46.2442   -8.6585 H   0  0  0  0  0  0
   15.6469   45.0480   -7.3806 H   0  0  0  0  0  0
   17.7064   46.5757   -6.8476 H   0  0  0  0  0  0
   20.7893   44.4973   -5.0420 H   0  0  0  0  0  0
   18.8087   42.7495   -8.4633 H   0  0  0  0  0  0
   19.0574   41.1882   -6.8972 H   0  0  0  0  0  0
   22.2296   42.1854  -10.8037 H   0  0  0  0  0  0
   22.4679   44.6283  -10.8566 H   0  0  0  0  0  0
   20.4924   46.0772  -11.2944 H   0  0  0  0  0  0
   17.9623   42.6402  -11.4991 H   0  0  0  0  0  0
   19.8897   39.0680   -9.8402 H   0  0  0  0  0  0
  1  2  1  0  0  0
  1 40  1  0  0  0
  1 41  1  0  0  0
  1 42  1  0  0  0
  2  3  1  0  0  0
  2  4  1  0  0  0
  2 31  1  0  0  0
  3 43  1  0  0  0
  3 44  1  0  0  0
  3 45  1  0  0  0
  4  5  1  0  0  0
  4 46  1  0  0  0
  4 72  1  0  0  0
  5  6  1  0  0  0
  5 47  1  0  0  0
  5 48  1  0  0  0
  6 38  1  0  0  0
  6  7  1  0  0  0
  6  8  1  0  0  0
  7 49  1  0  0  0
  8 39  1  0  0  0
  8 30  1  0  0  0
  8  9  1  0  0  0
  9 10  1  0  0  0
  9 50  1  0  0  0
  9 51  1  0  0  0
 10 15  1  0  0  0
 10 11  2  0  0  0
 11 12  1  0  0  0
 11 52  1  0  0  0
 12 13  2  0  0  0
 12 53  1  0  0  0
 13 14  1  0  0  0
 13 54  1  0  0  0
 14 15  2  0  0  0
 14 16  1  0  0  0
 15 55  1  0  0  0
 16 17  1  0  0  0
 17 18  1  0  0  0
 17 56  1  0  0  0
 17 57  1  0  0  0
 18 19  1  0  0  0
 18 58  1  0  0  0
 18 59  1  0  0  0
 19 20  1  0  0  0
 19 60  1  0  0  0
 19 61  1  0  0  0
 20 21  1  0  0  0
 20 62  1  0  0  0
 20 63  1  0  0  0
 21 22  1  0  0  0
 22 27  1  0  0  0
 22 23  2  0  0  0
 23 24  1  0  0  0
 23 64  1  0  0  0
 24 25  2  0  0  0
 25 26  1  0  0  0
 25 65  1  0  0  0
 26 27  2  0  0  0
 26 28  1  0  0  0
 27 66  1  0  0  0
 28 29  2  0  0  0
 28 30  1  0  0  0
 30 67  1  0  0  0
 31 37  1  0  0  0
 31 32  2  0  0  0
 32 33  1  0  0  0
 32 68  1  0  0  0
 33 34  2  0  0  0
 33 69  1  0  0  0
 34 35  1  0  0  0
 34 70  1  0  0  0
 35 36  1  0  0  0
 35 37  2  0  0  0
 37 71  1  0  0  0
M  CHG  1   4   1
M  END
> <s_m_source_file>
BACE_138.smi

> <i_m_source_file_index>
1

> <i_lp_mmshare_version>
42013

> <i_f3d_flags>
0

> <s_epik_input>
QnJjKFtjSF0xKVtjSF1bY0hdW2NIXWMxQyhbQ0gzXSkoW0NIM10pW05IXVtDSDJdW0NAQEhdKFtPSF0pW0NASF0oW0NIMl0yKVtOSF1DKD1PKWMoW2NIXTMpW2NIXW5bY0hdYzNPW0NIMl1bQ0gyXVtDSDJdW0NIMl1PYyhbY0hdNClbY0hdW2NIXVtjSF1jMjQ=

> <s_epik_cmdline>
J2VwaWtfcHl0aG9uJywgJy1waCcsICc3LjAnLCAnLXRuJywgJzgnLCAnLW1hJywgJzIwMCcsICctaW1hZScsICc8aW5maWxlLm1hZT4nLCAnLW9tYWUnLCAnPG91dGZpbGUubWFlPic=

> <r_lp_tautomer_probability>
1

> <r_epik_Ionization_Penalty>
  0.0249

> <r_epik_Ionization_Penalty_Charging>
  0.0247

> <r_epik_Ionization_Penalty_Neutral>
  0.0002

> <r_epik_State_Penalty>
  0.0201

> <r_epik_Charging_Adjusted_Penalty>
0.0447449

> <i_epik_Tot_Q>
1

> <i_epik_Tot_abs_Q>
1

> <s_lp_Force_Field>
OPLS_2005

> <r_lp_Energy>
40.5644

> <b_lp_Chiralities_Consistent>
1

> <s_lp_Variant>
BACE_138.smi:1-1

> <chiral flag>
1

> <version>
0

> <s_i_glide_gridfile>
second_dock_grid_2

> <i_i_glide_lignum>
283

> <i_i_glide_rotatable_bonds>
6

> <r_i_docking_score>
-4.06953

> <r_i_glide_ligand_efficiency>
-0.109987

> <r_i_glide_ligand_efficiency_sa>
-0.366502

> <r_i_glide_ligand_efficiency_ln>
-0.882586

> <r_glide_XP_GScore>
-4.08963

> <r_i_glide_gscore>
-4.08963

> <r_i_glide_evdw>
-44.6516

> <r_i_glide_ecoul>
-6.90595

> <r_i_glide_energy>
-51.5575

> <r_i_glide_einternal>
1.75132

> <r_i_glide_emodel>
-70.9449

> <r_glide_XP_HBond>
-1.31642

> <i_i_glide_confnum>
1

> <i_i_glide_posenum>
5

> <r_i_glide_eff_state_penalty>
0.0201

> <i_glide_XP_PoseRank>
1

$$$$
BACE_138.smi:1
                    3D
 Structure written by MMmdl.
 71 74  0  0  1  0            999 V2000
   22.5898   44.2080   -9.7470 C   0  0  0  0  0  0
   22.8708   42.9575  -10.6139 C   0  0  0  0  0  0
   23.6213   43.4516  -11.8621 C   0  0  0  0  0  0
   23.7909   42.0374   -9.9026 N   0  0  0  0  0  0
   23.5450   41.6741   -8.4905 C   0  0  0  0  0  0
   22.5165   40.5357   -8.2612 C   0  0  1  0  0  0
   23.2550   39.3507   -8.0400 O   0  0  0  0  0  0
   21.5950   40.7526   -7.0320 C   0  0  2  0  0  0
   20.5848   39.6009   -6.8021 C   0  0  0  0  0  0
   19.5511   39.3960   -7.9075 C   0  0  0  0  0  0
   19.7280   38.3636   -8.8497 C   0  0  0  0  0  0
   18.7306   38.1053   -9.8074 C   0  0  0  0  0  0
   17.5523   38.8745   -9.8296 C   0  0  0  0  0  0
   17.3744   39.9364   -8.9249 C   0  0  0  0  0  0
   18.3828   40.1900   -7.9653 C   0  0  0  0  0  0
   16.1991   40.6503   -9.0037 O   0  0  0  0  0  0
   16.2731   42.0449   -8.7391 C   0  0  0  0  0  0
   14.8948   42.6924   -8.9564 C   0  0  0  0  0  0
   14.9154   44.1637   -9.4288 C   0  0  0  0  0  0
   15.7830   45.1209   -8.5955 C   0  0  0  0  0  0
   17.1412   44.9300   -8.9638 O   0  0  0  0  0  0
   18.0568   45.0759   -7.9544 C   0  0  0  0  0  0
   18.0605   46.1700   -7.0650 C   0  0  0  0  0  0
   18.9282   46.2870   -6.0375 N   0  0  0  0  0  0
   19.8472   45.3094   -5.8723 C   0  0  0  0  0  0
   19.9399   44.1733   -6.7039 C   0  0  0  0  0  0
   19.0354   44.0831   -7.7851 C   0  0  0  0  0  0
   20.9545   43.0996   -6.4247 C   0  0  0  0  0  0
   21.8076   43.2438   -5.5495 O   0  0  0  0  0  0
   20.8412   41.9930   -7.1753 N   0  0  0  0  0  0
   21.5839   42.2690  -11.1080 C   0  0  0  0  0  0
   21.6143   40.9200  -11.5400 C   0  0  0  0  0  0
   20.4528   40.2757  -11.9980 C   0  0  0  0  0  0
   19.2485   40.9907  -12.0850 C   0  0  0  0  0  0
   19.2150   42.3539  -11.7489 C   0  0  0  0  0  0
   17.6310   43.3597  -12.0675 Br  0  0  0  0  0  0
   20.3662   42.9833  -11.2386 C   0  0  0  0  0  0
   21.8842   40.3793   -9.1244 H   0  0  0  0  0  0
   22.2293   40.8119   -6.1455 H   0  0  0  0  0  0
   22.1505   45.0197  -10.3273 H   0  0  0  0  0  0
   23.5096   44.6019   -9.3127 H   0  0  0  0  0  0
   21.9052   43.9920   -8.9314 H   0  0  0  0  0  0
   23.0202   44.1523  -12.4410 H   0  0  0  0  0  0
   23.8798   42.6305  -12.5236 H   0  0  0  0  0  0
   24.5502   43.9572  -11.5964 H   0  0  0  0  0  0
   23.9298   41.1994  -10.4597 H   0  0  0  0  0  0
   24.4911   41.3739   -8.0418 H   0  0  0  0  0  0
   23.2763   42.5585   -7.9192 H   0  0  0  0  0  0
   23.7841   39.1477   -8.8062 H   0  0  0  0  0  0
   21.1173   38.6629   -6.6371 H   0  0  0  0  0  0
   20.0414   39.7841   -5.8736 H   0  0  0  0  0  0
   20.6180   37.7517   -8.8250 H   0  0  0  0  0  0
   18.8609   37.3089  -10.5220 H   0  0  0  0  0  0
   16.7845   38.6600  -10.5570 H   0  0  0  0  0  0
   18.2477   40.9719   -7.2383 H   0  0  0  0  0  0
   16.6003   42.2532   -7.7209 H   0  0  0  0  0  0
   17.0091   42.4683   -9.4180 H   0  0  0  0  0  0
   14.3438   42.1125   -9.6983 H   0  0  0  0  0  0
   14.3195   42.6029   -8.0340 H   0  0  0  0  0  0
   15.2313   44.2114  -10.4703 H   0  0  0  0  0  0
   13.8882   44.5263   -9.4153 H   0  0  0  0  0  0
   15.5139   46.1552   -8.8086 H   0  0  0  0  0  0
   15.6059   44.9507   -7.5326 H   0  0  0  0  0  0
   17.3336   46.9625   -7.1627 H   0  0  0  0  0  0
   20.5100   45.4388   -5.0292 H   0  0  0  0  0  0
   19.0490   43.2481   -8.4691 H   0  0  0  0  0  0
   20.1029   41.9651   -7.8625 H   0  0  0  0  0  0
   22.5281   40.3495  -11.5001 H   0  0  0  0  0  0
   20.4855   39.2354  -12.2864 H   0  0  0  0  0  0
   18.3549   40.5030  -12.4400 H   0  0  0  0  0  0
   20.3000   44.0299  -10.9870 H   0  0  0  0  0  0
  1  2  1  0  0  0
  1 40  1  0  0  0
  1 41  1  0  0  0
  1 42  1  0  0  0
  2  3  1  0  0  0
  2  4  1  0  0  0
  2 31  1  0  0  0
  3 43  1  0  0  0
  3 44  1  0  0  0
  3 45  1  0  0  0
  4  5  1  0  0  0
  4 46  1  0  0  0
  5  6  1  0  0  0
  5 47  1  0  0  0
  5 48  1  0  0  0
  6 38  1  0  0  0
  6  7  1  0  0  0
  6  8  1  0  0  0
  7 49  1  0  0  0
  8 39  1  0  0  0
  8 30  1  0  0  0
  8  9  1  0  0  0
  9 10  1  0  0  0
  9 50  1  0  0  0
  9 51  1  0  0  0
 10 15  1  0  0  0
 10 11  2  0  0  0
 11 12  1  0  0  0
 11 52  1  0  0  0
 12 13  2  0  0  0
 12 53  1  0  0  0
 13 14  1  0  0  0
 13 54  1  0  0  0
 14 15  2  0  0  0
 14 16  1  0  0  0
 15 55  1  0  0  0
 16 17  1  0  0  0
 17 18  1  0  0  0
 17 56  1  0  0  0
 17 57  1  0  0  0
 18 19  1  0  0  0
 18 58  1  0  0  0
 18 59  1  0  0  0
 19 20  1  0  0  0
 19 60  1  0  0  0
 19 61  1  0  0  0
 20 21  1  0  0  0
 20 62  1  0  0  0
 20 63  1  0  0  0
 21 22  1  0  0  0
 22 27  1  0  0  0
 22 23  2  0  0  0
 23 24  1  0  0  0
 23 64  1  0  0  0
 24 25  2  0  0  0
 25 26  1  0  0  0
 25 65  1  0  0  0
 26 27  2  0  0  0
 26 28  1  0  0  0
 27 66  1  0  0  0
 28 29  2  0  0  0
 28 30  1  0  0  0
 30 67  1  0  0  0
 31 37  1  0  0  0
 31 32  2  0  0  0
 32 33  1  0  0  0
 32 68  1  0  0  0
 33 34  2  0  0  0
 33 69  1  0  0  0
 34 35  1  0  0  0
 34 70  1  0  0  0
 35 36  1  0  0  0
 35 37  2  0  0  0
 37 71  1  0  0  0
M  END
> <s_m_source_file>
BACE_138.smi

> <i_m_source_file_index>
1

> <i_lp_mmshare_version>
42013

> <i_f3d_flags>
0

> <s_epik_input>
QnJjKFtjSF0xKVtjSF1bY0hdW2NIXWMxQyhbQ0gzXSkoW0NIM10pW05IXVtDSDJdW0NAQEhdKFtPSF0pW0NASF0oW0NIMl0yKVtOSF1DKD1PKWMoW2NIXTMpW2NIXW5bY0hdYzNPW0NIMl1bQ0gyXVtDSDJdW0NIMl1PYyhbY0hdNClbY0hdW2NIXVtjSF1jMjQ=

> <s_epik_cmdline>
J2VwaWtfcHl0aG9uJywgJy1waCcsICc3LjAnLCAnLXRuJywgJzgnLCAnLW1hJywgJzIwMCcsICctaW1hZScsICc8aW5maWxlLm1hZT4nLCAnLW9tYWUnLCAnPG91dGZpbGUubWFlPic=

> <r_lp_tautomer_probability>
1

> <r_epik_Ionization_Penalty>
  1.8955

> <r_epik_Ionization_Penalty_Charging>
  0.0000

> <r_epik_Ionization_Penalty_Neutral>
  1.8955

> <r_epik_State_Penalty>
  2.0160

> <r_epik_Charging_Adjusted_Penalty>
2.01604

> <i_epik_Tot_Q>
0

> <i_epik_Tot_abs_Q>
0

> <s_lp_Force_Field>
OPLS_2005

> <r_lp_Energy>
44.5331

> <b_lp_Chiralities_Consistent>
1

> <s_lp_Variant>
BACE_138.smi:1-2

> <chiral flag>
1

> <version>
0

> <s_i_glide_gridfile>
second_dock_grid_2

> <i_i_glide_lignum>
284

> <i_i_glide_rotatable_bonds>
6

> <r_i_docking_score>
-1.85792

> <r_i_glide_ligand_efficiency>
-0.050214

> <r_i_glide_ligand_efficiency_sa>
-0.167324

> <r_i_glide_ligand_efficiency_ln>
-0.402939

> <r_glide_XP_GScore>
-3.87392

> <r_i_glide_gscore>
-3.87392

> <r_i_glide_evdw>
-40.5079

> <r_i_glide_ecoul>
-8.28284

> <r_i_glide_energy>
-48.7907

> <r_i_glide_einternal>
8.06259

> <r_i_glide_emodel>
-63.898

> <r_glide_XP_HBond>
-1.03819

> <i_i_glide_confnum>
1

> <i_i_glide_posenum>
1

> <r_i_glide_eff_state_penalty>
2.016

> <i_glide_XP_PoseRank>
1

$$$$
BACE_139.smi:1
                    3D
 Structure written by MMmdl.
 78 81  0  0  1  0            999 V2000
   20.3962   38.9499  -11.5353 C   0  0  0  0  0  0
   19.2748   39.9186  -11.1615 C   0  0  0  0  0  0
   19.6865   41.3713  -11.4265 C   0  0  0  0  0  0
   18.8249   39.6879   -9.7263 C   0  0  0  0  0  0
   19.7232   39.8433   -8.6505 C   0  0  0  0  0  0
   19.2667   39.5874   -7.3444 C   0  0  0  0  0  0
   17.9963   39.2297   -7.0692 N   0  0  0  0  0  0
   17.1261   39.1082   -8.0907 C   0  0  0  0  0  0
   15.6838   38.8025   -7.7011 C   0  0  0  0  0  0
   14.8594   39.9435   -7.2371 N   0  3  0  0  0  0
   15.3720   41.3152   -7.4258 C   0  0  0  0  0  0
   15.3712   41.8213   -8.8925 C   0  0  1  0  0  0
   14.0602   42.2520   -9.2396 O   0  0  0  0  0  0
   16.4642   42.9049   -9.2183 C   0  0  2  0  0  0
   17.4438   43.3092   -8.0748 C   0  0  0  0  0  0
   18.3013   44.5594   -8.2720 C   0  0  0  0  0  0
   18.2900   45.5482   -7.2668 C   0  0  0  0  0  0
   19.1188   46.6794   -7.3557 C   0  0  0  0  0  0
   19.9870   46.8219   -8.4517 C   0  0  0  0  0  0
   20.0119   45.8480   -9.4668 C   0  0  0  0  0  0
   19.1607   44.7196   -9.3837 C   0  0  0  0  0  0
   20.9286   45.9988  -10.4750 O   0  0  0  0  0  0
   20.4040   46.2453  -11.7714 C   0  0  0  0  0  0
   19.7822   47.6563  -11.8650 C   0  0  0  0  0  0
   19.6688   48.2158  -13.2956 C   0  0  0  0  0  0
   18.5372   47.6455  -14.1692 C   0  0  0  0  0  0
   17.2689   48.2008  -13.8181 O   0  0  0  0  0  0
   16.3164   47.3892  -13.2411 C   0  0  0  0  0  0
   14.9621   47.7541  -13.3841 C   0  0  0  0  0  0
   13.9356   46.9384  -12.8655 C   0  0  0  0  0  0
   14.2610   45.7493  -12.1836 C   0  0  0  0  0  0
   15.6124   45.3946  -12.0039 C   0  0  0  0  0  0
   16.6261   46.2114  -12.5299 C   0  0  0  0  0  0
   16.0119   44.1200  -11.3298 C   0  0  0  0  0  0
   16.4605   43.2166  -12.0398 O   0  0  0  0  0  0
   15.9324   44.0590   -9.9765 N   0  0  0  0  0  0
   15.2389   45.0747   -9.1775 C   0  0  0  0  0  0
   17.5009   39.2956   -9.4400 C   0  0  0  0  0  0
   15.5453   40.9819   -9.5614 H   0  0  0  0  0  0
   17.1498   42.3824   -9.8858 H   0  0  0  0  0  0
   20.0598   37.9309  -11.3482 H   0  0  0  0  0  0
   21.3011   39.1134  -10.9472 H   0  0  0  0  0  0
   20.6676   39.0322  -12.5878 H   0  0  0  0  0  0
   18.4283   39.6967  -11.8097 H   0  0  0  0  0  0
   18.8462   42.0442  -11.2795 H   0  0  0  0  0  0
   20.0253   41.5020  -12.4540 H   0  0  0  0  0  0
   20.4965   41.6900  -10.7680 H   0  0  0  0  0  0
   20.7501   40.1363   -8.8182 H   0  0  0  0  0  0
   19.9317   39.6828   -6.4992 H   0  0  0  0  0  0
   15.1752   38.2729   -8.5078 H   0  0  0  0  0  0
   15.6990   38.1501   -6.8405 H   0  0  0  0  0  0
   13.9257   39.8620   -7.6150 H   0  0  0  0  0  0
   14.7398   41.9708   -6.8403 H   0  0  0  0  0  0
   16.3474   41.3409   -6.9470 H   0  0  0  0  0  0
   13.4140   41.6065   -8.9698 H   0  0  0  0  0  0
   16.8721   43.4687   -7.1609 H   0  0  0  0  0  0
   18.1169   42.4807   -7.8529 H   0  0  0  0  0  0
   17.6599   45.4262   -6.4050 H   0  0  0  0  0  0
   19.1070   47.4239   -6.5735 H   0  0  0  0  0  0
   20.6475   47.6745   -8.5085 H   0  0  0  0  0  0
   19.2044   43.9598  -10.1486 H   0  0  0  0  0  0
   21.2607   46.1846  -12.4398 H   0  0  0  0  0  0
   19.7193   45.4558  -12.0761 H   0  0  0  0  0  0
   18.8168   47.6885  -11.3606 H   0  0  0  0  0  0
   20.4276   48.3350  -11.3067 H   0  0  0  0  0  0
   19.5409   49.2965  -13.2411 H   0  0  0  0  0  0
   20.6204   48.0594  -13.8049 H   0  0  0  0  0  0
   18.7188   47.9637  -15.1969 H   0  0  0  0  0  0
   18.5660   46.5565  -14.2189 H   0  0  0  0  0  0
   14.7107   48.6529  -13.9262 H   0  0  0  0  0  0
   12.9012   47.2127  -13.0180 H   0  0  0  0  0  0
   13.4746   45.1075  -11.8108 H   0  0  0  0  0  0
   17.6459   45.9038  -12.3875 H   0  0  0  0  0  0
   14.1720   45.0075   -9.3866 H   0  0  0  0  0  0
   15.6007   46.0810   -9.3985 H   0  0  0  0  0  0
   15.3473   44.9199   -8.1040 H   0  0  0  0  0  0
   16.7840   39.1632  -10.2372 H   0  0  0  0  0  0
   14.7747   39.8281   -6.2306 H   0  0  0  0  0  0
  1  2  1  0  0  0
  1 41  1  0  0  0
  1 42  1  0  0  0
  1 43  1  0  0  0
  2  3  1  0  0  0
  2  4  1  0  0  0
  2 44  1  0  0  0
  3 45  1  0  0  0
  3 46  1  0  0  0
  3 47  1  0  0  0
  4 38  1  0  0  0
  4  5  2  0  0  0
  5  6  1  0  0  0
  5 48  1  0  0  0
  6  7  2  0  0  0
  6 49  1  0  0  0
  7  8  1  0  0  0
  8  9  1  0  0  0
  8 38  2  0  0  0
  9 10  1  0  0  0
  9 50  1  0  0  0
  9 51  1  0  0  0
 10 11  1  0  0  0
 10 52  1  0  0  0
 10 78  1  0  0  0
 11 12  1  0  0  0
 11 53  1  0  0  0
 11 54  1  0  0  0
 12 39  1  0  0  0
 12 13  1  0  0  0
 12 14  1  0  0  0
 13 55  1  0  0  0
 14 40  1  0  0  0
 14 36  1  0  0  0
 14 15  1  0  0  0
 15 16  1  0  0  0
 15 56  1  0  0  0
 15 57  1  0  0  0
 16 21  1  0  0  0
 16 17  2  0  0  0
 17 18  1  0  0  0
 17 58  1  0  0  0
 18 19  2  0  0  0
 18 59  1  0  0  0
 19 20  1  0  0  0
 19 60  1  0  0  0
 20 21  2  0  0  0
 20 22  1  0  0  0
 21 61  1  0  0  0
 22 23  1  0  0  0
 23 24  1  0  0  0
 23 62  1  0  0  0
 23 63  1  0  0  0
 24 25  1  0  0  0
 24 64  1  0  0  0
 24 65  1  0  0  0
 25 26  1  0  0  0
 25 66  1  0  0  0
 25 67  1  0  0  0
 26 27  1  0  0  0
 26 68  1  0  0  0
 26 69  1  0  0  0
 27 28  1  0  0  0
 28 33  1  0  0  0
 28 29  2  0  0  0
 29 30  1  0  0  0
 29 70  1  0  0  0
 30 31  2  0  0  0
 30 71  1  0  0  0
 31 32  1  0  0  0
 31 72  1  0  0  0
 32 33  2  0  0  0
 32 34  1  0  0  0
 33 73  1  0  0  0
 34 35  2  0  0  0
 34 36  1  0  0  0
 36 37  1  0  0  0
 37 74  1  0  0  0
 37 75  1  0  0  0
 37 76  1  0  0  0
 38 77  1  0  0  0
M  CHG  1  10   1
M  END
> <s_m_source_file>
BACE_139.smi

> <i_m_source_file_index>
1

> <i_lp_mmshare_version>
42013

> <i_f3d_flags>
0

> <s_epik_input>
W0NIM11bQ0hdKFtDSDNdKWMxW2NIXVtjSF1uYyhbY0hdMSlbQ0gyXVtOSF1bQ0gyXVtDQEBIXShbT0hdKVtDQEhdKFtDSDJdMilOKFtDSDNdKUMoPU8pYyhbY0hdMylbY0hdW2NIXVtjSF1jM09bQ0gyXVtDSDJdW0NIMl1bQ0gyXU9jKFtjSF00KVtjSF1bY0hdW2NIXWMyNA==

> <s_epik_cmdline>
J2VwaWtfcHl0aG9uJywgJy1waCcsICc3LjAnLCAnLXRuJywgJzgnLCAnLW1hJywgJzIwMCcsICctaW1hZScsICc8aW5maWxlLm1hZT4nLCAnLW9tYWUnLCAnPG91dGZpbGUubWFlPic=

> <r_lp_tautomer_probability>
1

> <r_epik_Ionization_Penalty>
  0.0384

> <r_epik_Ionization_Penalty_Charging>
  0.0382

> <r_epik_Ionization_Penalty_Neutral>
  0.0002

> <r_epik_State_Penalty>
  0.0320

> <r_epik_Charging_Adjusted_Penalty>
0.0702789

> <i_epik_Tot_Q>
1

> <i_epik_Tot_abs_Q>
1

> <s_lp_Force_Field>
OPLS_2005

> <r_lp_Energy>
54.234

> <b_lp_Chiralities_Consistent>
1

> <s_lp_Variant>
BACE_139.smi:1-1

> <chiral flag>
1

> <version>
0

> <s_i_glide_gridfile>
second_dock_grid_2

> <i_i_glide_lignum>
285

> <i_i_glide_rotatable_bonds>
7

> <r_i_docking_score>
-4.21325

> <r_i_glide_ligand_efficiency>
-0.110875

> <r_i_glide_ligand_efficiency_sa>
-0.372759

> <r_i_glide_ligand_efficiency_ln>
-0.9085

> <r_glide_XP_GScore>
-4.24525

> <r_i_glide_gscore>
-4.24525

> <r_i_glide_evdw>
-30.3853

> <r_i_glide_ecoul>
-18.231

> <r_i_glide_energy>
-48.6164

> <r_i_glide_einternal>
5.13207

> <r_i_glide_emodel>
-62.9285

> <r_glide_XP_HBond>
-0.48

> <i_i_glide_confnum>
1

> <i_i_glide_posenum>
1

> <r_i_glide_eff_state_penalty>
0.032

> <i_glide_XP_PoseRank>
1

$$$$
BACE_139.smi:1
                    3D
 Structure written by MMmdl.
 77 80  0  0  1  0            999 V2000
   28.2962   49.3453   -1.7367 C   0  0  0  0  0  0
   27.1110   49.7279   -0.8329 C   0  0  0  0  0  0
   27.0014   48.7669    0.3581 C   0  0  0  0  0  0
   25.7853   49.8387   -1.5783 C   0  0  0  0  0  0
   24.8630   50.8453   -1.2214 C   0  0  0  0  0  0
   23.6677   50.9545   -1.9515 C   0  0  0  0  0  0
   23.3559   50.1495   -2.9891 N   0  0  0  0  0  0
   24.2261   49.1690   -3.3194 C   0  0  0  0  0  0
   23.7965   48.2993   -4.4925 C   0  0  0  0  0  0
   24.8398   47.4273   -5.0446 N   0  0  0  0  0  0
   24.3707   46.6251   -6.1778 C   0  0  0  0  0  0
   23.7332   45.2659   -5.7765 C   0  0  1  0  0  0
   23.2600   45.2864   -4.4404 O   0  0  0  0  0  0
   22.5792   44.8839   -6.7447 C   0  0  2  0  0  0
   21.2761   45.7210   -6.5922 C   0  0  0  0  0  0
   20.0578   45.1949   -7.3417 C   0  0  0  0  0  0
   18.8946   44.8661   -6.6205 C   0  0  0  0  0  0
   17.7442   44.4069   -7.2845 C   0  0  0  0  0  0
   17.7483   44.2801   -8.6838 C   0  0  0  0  0  0
   18.9056   44.5945   -9.4187 C   0  0  0  0  0  0
   20.0661   45.0509   -8.7488 C   0  0  0  0  0  0
   18.8422   44.4978  -10.7825 O   0  0  0  0  0  0
   19.6827   43.5285  -11.3826 C   0  0  0  0  0  0
   19.1285   42.1039  -11.1805 C   0  0  0  0  0  0
   19.5656   41.0988  -12.2638 C   0  0  0  0  0  0
   21.0125   40.5764  -12.1899 C   0  0  0  0  0  0
   21.1389   39.5533  -11.2009 O   0  0  0  0  0  0
   21.5685   39.8476   -9.9232 C   0  0  0  0  0  0
   21.5582   38.7895   -8.9936 C   0  0  0  0  0  0
   21.9992   38.9900   -7.6709 C   0  0  0  0  0  0
   22.4636   40.2549   -7.2635 C   0  0  0  0  0  0
   22.4637   41.3352   -8.1739 C   0  0  0  0  0  0
   22.0283   41.1173   -9.4982 C   0  0  0  0  0  0
   22.9935   42.6960   -7.8136 C   0  0  0  0  0  0
   23.8871   43.1631   -8.5182 O   0  0  0  0  0  0
   22.3839   43.4138   -6.8299 N   0  0  0  0  0  0
   21.5276   42.8104   -5.7998 C   0  0  0  0  0  0
   25.4476   48.9669   -2.6361 C   0  0  0  0  0  0
   24.5135   44.5049   -5.8233 H   0  0  0  0  0  0
   22.9252   45.2004   -7.7348 H   0  0  0  0  0  0
   28.3701   50.0141   -2.5925 H   0  0  0  0  0  0
   28.2063   48.3285   -2.1181 H   0  0  0  0  0  0
   29.2382   49.3988   -1.1877 H   0  0  0  0  0  0
   27.3238   50.7194   -0.4394 H   0  0  0  0  0  0
   26.1895   49.0595    1.0280 H   0  0  0  0  0  0
   27.9217   48.7598    0.9416 H   0  0  0  0  0  0
   26.8156   47.7503    0.0197 H   0  0  0  0  0  0
   25.0700   51.5227   -0.4056 H   0  0  0  0  0  0
   22.9461   51.7192   -1.7081 H   0  0  0  0  0  0
   22.9320   47.7154   -4.1791 H   0  0  0  0  0  0
   23.4376   48.9685   -5.2750 H   0  0  0  0  0  0
   25.1568   46.7963   -4.3147 H   0  0  0  0  0  0
   23.6833   47.2201   -6.7797 H   0  0  0  0  0  0
   25.2126   46.4117   -6.8393 H   0  0  0  0  0  0
   23.9538   44.9515   -3.8749 H   0  0  0  0  0  0
   21.0123   45.8089   -5.5368 H   0  0  0  0  0  0
   21.4536   46.7440   -6.9253 H   0  0  0  0  0  0
   18.8827   44.9593   -5.5469 H   0  0  0  0  0  0
   16.8600   44.1428   -6.7247 H   0  0  0  0  0  0
   16.8600   43.9362   -9.1914 H   0  0  0  0  0  0
   20.9474   45.3095   -9.3163 H   0  0  0  0  0  0
   19.6634   43.7770  -12.4400 H   0  0  0  0  0  0
   20.7188   43.6172  -11.0532 H   0  0  0  0  0  0
   19.3637   41.7364  -10.1820 H   0  0  0  0  0  0
   18.0393   42.1652  -11.2199 H   0  0  0  0  0  0
   18.8962   40.2403  -12.2362 H   0  0  0  0  0  0
   19.4040   41.5585  -13.2389 H   0  0  0  0  0  0
   21.2355   40.0863  -13.1366 H   0  0  0  0  0  0
   21.7476   41.3767  -12.1245 H   0  0  0  0  0  0
   21.2169   37.8111   -9.2967 H   0  0  0  0  0  0
   22.0003   38.1641   -6.9708 H   0  0  0  0  0  0
   22.8367   40.3741   -6.2584 H   0  0  0  0  0  0
   22.0702   41.9545  -10.1730 H   0  0  0  0  0  0
   22.0989   42.1258   -5.1748 H   0  0  0  0  0  0
   20.6905   42.2693   -6.2426 H   0  0  0  0  0  0
   21.1085   43.5431   -5.1135 H   0  0  0  0  0  0
   26.1205   48.1763   -2.9296 H   0  0  0  0  0  0
  1  2  1  0  0  0
  1 41  1  0  0  0
  1 42  1  0  0  0
  1 43  1  0  0  0
  2  3  1  0  0  0
  2  4  1  0  0  0
  2 44  1  0  0  0
  3 45  1  0  0  0
  3 46  1  0  0  0
  3 47  1  0  0  0
  4 38  1  0  0  0
  4  5  2  0  0  0
  5  6  1  0  0  0
  5 48  1  0  0  0
  6  7  2  0  0  0
  6 49  1  0  0  0
  7  8  1  0  0  0
  8  9  1  0  0  0
  8 38  2  0  0  0
  9 10  1  0  0  0
  9 50  1  0  0  0
  9 51  1  0  0  0
 10 11  1  0  0  0
 10 52  1  0  0  0
 11 12  1  0  0  0
 11 53  1  0  0  0
 11 54  1  0  0  0
 12 39  1  0  0  0
 12 13  1  0  0  0
 12 14  1  0  0  0
 13 55  1  0  0  0
 14 40  1  0  0  0
 14 36  1  0  0  0
 14 15  1  0  0  0
 15 16  1  0  0  0
 15 56  1  0  0  0
 15 57  1  0  0  0
 16 21  1  0  0  0
 16 17  2  0  0  0
 17 18  1  0  0  0
 17 58  1  0  0  0
 18 19  2  0  0  0
 18 59  1  0  0  0
 19 20  1  0  0  0
 19 60  1  0  0  0
 20 21  2  0  0  0
 20 22  1  0  0  0
 21 61  1  0  0  0
 22 23  1  0  0  0
 23 24  1  0  0  0
 23 62  1  0  0  0
 23 63  1  0  0  0
 24 25  1  0  0  0
 24 64  1  0  0  0
 24 65  1  0  0  0
 25 26  1  0  0  0
 25 66  1  0  0  0
 25 67  1  0  0  0
 26 27  1  0  0  0
 26 68  1  0  0  0
 26 69  1  0  0  0
 27 28  1  0  0  0
 28 33  1  0  0  0
 28 29  2  0  0  0
 29 30  1  0  0  0
 29 70  1  0  0  0
 30 31  2  0  0  0
 30 71  1  0  0  0
 31 32  1  0  0  0
 31 72  1  0  0  0
 32 33  2  0  0  0
 32 34  1  0  0  0
 33 73  1  0  0  0
 34 35  2  0  0  0
 34 36  1  0  0  0
 36 37  1  0  0  0
 37 74  1  0  0  0
 37 75  1  0  0  0
 37 76  1  0  0  0
 38 77  1  0  0  0
M  END
> <s_m_source_file>
BACE_139.smi

> <i_m_source_file_index>
1

> <i_lp_mmshare_version>
42013

> <i_f3d_flags>
0

> <s_epik_input>
W0NIM11bQ0hdKFtDSDNdKWMxW2NIXVtjSF1uYyhbY0hdMSlbQ0gyXVtOSF1bQ0gyXVtDQEBIXShbT0hdKVtDQEhdKFtDSDJdMilOKFtDSDNdKUMoPU8pYyhbY0hdMylbY0hdW2NIXVtjSF1jM09bQ0gyXVtDSDJdW0NIMl1bQ0gyXU9jKFtjSF00KVtjSF1bY0hdW2NIXWMyNA==

> <s_epik_cmdline>
J2VwaWtfcHl0aG9uJywgJy1waCcsICc3LjAnLCAnLXRuJywgJzgnLCAnLW1hJywgJzIwMCcsICctaW1hZScsICc8aW5maWxlLm1hZT4nLCAnLW9tYWUnLCAnPG91dGZpbGUubWFlPic=

> <r_lp_tautomer_probability>
1

> <r_epik_Ionization_Penalty>
  1.6445

> <r_epik_Ionization_Penalty_Charging>
  0.0000

> <r_epik_Ionization_Penalty_Neutral>
  1.6445

> <r_epik_State_Penalty>
  1.7443

> <r_epik_Charging_Adjusted_Penalty>
1.74428

> <i_epik_Tot_Q>
0

> <i_epik_Tot_abs_Q>
0

> <s_lp_Force_Field>
OPLS_2005

> <r_lp_Energy>
62.5803

> <b_lp_Chiralities_Consistent>
1

> <s_lp_Variant>
BACE_139.smi:1-2

> <chiral flag>
1

> <version>
0

> <s_i_glide_gridfile>
second_dock_grid_2

> <i_i_glide_lignum>
286

> <i_i_glide_rotatable_bonds>
7

> <r_i_docking_score>
-2.70938

> <r_i_glide_ligand_efficiency>
-0.0712995

> <r_i_glide_ligand_efficiency_sa>
-0.239707

> <r_i_glide_ligand_efficiency_ln>
-0.584222

> <r_glide_XP_GScore>
-4.45368

> <r_i_glide_gscore>
-4.45368

> <r_i_glide_evdw>
-39.8806

> <r_i_glide_ecoul>
-5.57951

> <r_i_glide_energy>
-45.4601

> <r_i_glide_einternal>
6.83426

> <r_i_glide_emodel>
-57.0006

> <r_glide_XP_HBond>
-1.33

> <i_i_glide_confnum>
1

> <i_i_glide_posenum>
2

> <r_i_glide_eff_state_penalty>
1.7443

> <i_glide_XP_PoseRank>
1

$$$$
BACE_140.smi:1
                    3D
 Structure written by MMmdl.
 83 87  0  0  1  0            999 V2000
   16.1912   46.7591  -10.5029 C   0  0  0  0  0  0
   17.2692   47.4731  -11.0849 O   0  0  0  0  0  0
   18.4912   47.3000  -10.3838 C   0  0  0  0  0  0
   18.7326   45.8438  -10.0273 C   0  0  0  0  0  0
   18.4721   44.8349  -10.9770 C   0  0  0  0  0  0
   18.6697   43.4732  -10.6686 C   0  0  0  0  0  0
   19.1540   43.1337   -9.3783 C   0  0  0  0  0  0
   19.4112   44.1341   -8.4102 C   0  0  0  0  0  0
   19.1876   45.4885   -8.7409 C   0  0  0  0  0  0
   19.8475   43.7643   -7.0190 C   0  0  0  0  0  0
   19.3735   44.3442   -6.0408 O   0  0  0  0  0  0
   20.7821   42.7970   -6.9392 N   0  0  0  0  0  0
   21.2908   42.1630   -5.7142 C   0  0  1  0  0  0
   21.7583   40.6989   -5.9742 C   0  0  0  0  0  0
   20.9043   39.9156   -6.9654 C   0  0  0  0  0  0
   21.3465   39.7384   -8.2944 C   0  0  0  0  0  0
   20.5481   39.0656   -9.2416 C   0  0  0  0  0  0
   19.3107   38.5146   -8.8311 C   0  0  0  0  0  0
   18.8768   38.6627   -7.4986 C   0  0  0  0  0  0
   19.6672   39.3656   -6.5684 C   0  0  0  0  0  0
   21.0448   38.9539  -10.5206 O   0  0  0  0  0  0
   20.1640   39.1869  -11.6187 C   0  0  0  0  0  0
   19.9126   40.6951  -11.8381 C   0  0  0  0  0  0
   18.4974   41.1650  -11.4503 C   0  0  0  0  0  0
   18.3476   42.5680  -11.6634 O   0  0  0  0  0  0
   22.3446   43.0695   -5.0056 C   0  0  2  0  0  0
   22.0043   43.2369   -3.6421 O   0  0  0  0  0  0
   22.4904   44.4817   -5.6124 C   0  0  0  0  0  0
   23.2565   45.3741   -4.7391 N   0  0  0  0  0  0
   23.7489   46.6093   -5.3682 C   0  0  0  0  0  0
   23.7642   46.6676   -6.8770 C   0  0  0  0  0  0
   25.0605   46.5399   -6.1131 C   0  0  0  0  0  0
   23.4324   47.8943   -4.6164 C   0  0  0  0  0  0
   24.2133   48.3017   -3.5103 C   0  0  0  0  0  0
   23.9241   49.4977   -2.8123 C   0  0  0  0  0  0
   22.8372   50.2938   -3.2349 C   0  0  0  0  0  0
   22.0556   49.9004   -4.3371 C   0  0  0  0  0  0
   22.3529   48.7084   -5.0241 C   0  0  0  0  0  0
   24.7684   49.9351   -1.6165 C   0  0  0  0  0  0
   24.8855   51.4667   -1.5203 C   0  0  0  0  0  0
   24.2709   49.3142   -0.2991 C   0  0  0  0  0  0
   20.4243   42.0790   -5.0562 H   0  0  0  0  0  0
   23.3255   42.5934   -5.0278 H   0  0  0  0  0  0
   15.2851   46.9300  -11.0841 H   0  0  0  0  0  0
   15.9998   47.0902   -9.4813 H   0  0  0  0  0  0
   16.3841   45.6855  -10.4934 H   0  0  0  0  0  0
   18.4775   47.8811   -9.4601 H   0  0  0  0  0  0
   19.3189   47.6771  -10.9868 H   0  0  0  0  0  0
   18.1036   45.1052  -11.9562 H   0  0  0  0  0  0
   19.3131   42.1038   -9.1025 H   0  0  0  0  0  0
   19.3694   46.2613   -8.0075 H   0  0  0  0  0  0
   21.1230   42.4134   -7.8091 H   0  0  0  0  0  0
   21.7857   40.1453   -5.0350 H   0  0  0  0  0  0
   22.7822   40.6836   -6.3481 H   0  0  0  0  0  0
   22.2957   40.1498   -8.6064 H   0  0  0  0  0  0
   18.6885   37.9622   -9.5186 H   0  0  0  0  0  0
   17.9325   38.2386   -7.1900 H   0  0  0  0  0  0
   19.3186   39.4830   -5.5526 H   0  0  0  0  0  0
   19.2378   38.6154  -11.5668 H   0  0  0  0  0  0
   20.6828   38.7989  -12.4959 H   0  0  0  0  0  0
   20.0571   40.9197  -12.8957 H   0  0  0  0  0  0
   20.6715   41.2774  -11.3148 H   0  0  0  0  0  0
   18.2069   40.8553  -10.4477 H   0  0  0  0  0  0
   17.7803   40.6739  -12.1089 H   0  0  0  0  0  0
   21.5594   44.0648   -3.5436 H   0  0  0  0  0  0
   21.4962   44.9019   -5.7691 H   0  0  0  0  0  0
   22.9507   44.4215   -6.5985 H   0  0  0  0  0  0
   24.0216   44.8756   -4.2960 H   0  0  0  0  0  0
   23.4097   45.7913   -7.4197 H   0  0  0  0  0  0
   23.5479   47.6268   -7.3474 H   0  0  0  0  0  0
   25.7108   47.4137   -6.0728 H   0  0  0  0  0  0
   25.5726   45.5782   -6.1451 H   0  0  0  0  0  0
   25.0453   47.6879   -3.1978 H   0  0  0  0  0  0
   22.5948   51.2118   -2.7196 H   0  0  0  0  0  0
   21.2266   50.5145   -4.6568 H   0  0  0  0  0  0
   21.7449   48.4199   -5.8693 H   0  0  0  0  0  0
   25.7795   49.5572   -1.7739 H   0  0  0  0  0  0
   25.2983   51.8869   -2.4381 H   0  0  0  0  0  0
   25.5475   51.7581   -0.7043 H   0  0  0  0  0  0
   23.9200   51.9410   -1.3422 H   0  0  0  0  0  0
   24.2530   48.2255   -0.3607 H   0  0  0  0  0  0
   23.2657   49.6493   -0.0421 H   0  0  0  0  0  0
   24.9257   49.5808    0.5311 H   0  0  0  0  0  0
  1  2  1  0  0  0
  1 44  1  0  0  0
  1 45  1  0  0  0
  1 46  1  0  0  0
  2  3  1  0  0  0
  3  4  1  0  0  0
  3 47  1  0  0  0
  3 48  1  0  0  0
  4  9  1  0  0  0
  4  5  2  0  0  0
  5  6  1  0  0  0
  5 49  1  0  0  0
  6 25  1  0  0  0
  6  7  2  0  0  0
  7  8  1  0  0  0
  7 50  1  0  0  0
  8  9  2  0  0  0
  8 10  1  0  0  0
  9 51  1  0  0  0
 10 11  2  0  0  0
 10 12  1  0  0  0
 12 13  1  0  0  0
 12 52  1  0  0  0
 13 42  1  0  0  0
 13 14  1  0  0  0
 13 26  1  0  0  0
 14 15  1  0  0  0
 14 53  1  0  0  0
 14 54  1  0  0  0
 15 20  1  0  0  0
 15 16  2  0  0  0
 16 17  1  0  0  0
 16 55  1  0  0  0
 17 18  2  0  0  0
 17 21  1  0  0  0
 18 19  1  0  0  0
 18 56  1  0  0  0
 19 20  2  0  0  0
 19 57  1  0  0  0
 20 58  1  0  0  0
 21 22  1  0  0  0
 22 23  1  0  0  0
 22 59  1  0  0  0
 22 60  1  0  0  0
 23 24  1  0  0  0
 23 61  1  0  0  0
 23 62  1  0  0  0
 24 25  1  0  0  0
 24 63  1  0  0  0
 24 64  1  0  0  0
 26 43  1  0  0  0
 26 27  1  0  0  0
 26 28  1  0  0  0
 27 65  1  0  0  0
 28 29  1  0  0  0
 28 66  1  0  0  0
 28 67  1  0  0  0
 29 30  1  0  0  0
 29 68  1  0  0  0
 30 32  1  0  0  0
 30 31  1  0  0  0
 30 33  1  0  0  0
 31 32  1  0  0  0
 31 69  1  0  0  0
 31 70  1  0  0  0
 32 71  1  0  0  0
 32 72  1  0  0  0
 33 38  1  0  0  0
 33 34  2  0  0  0
 34 35  1  0  0  0
 34 73  1  0  0  0
 35 36  2  0  0  0
 35 39  1  0  0  0
 36 37  1  0  0  0
 36 74  1  0  0  0
 37 38  2  0  0  0
 37 75  1  0  0  0
 38 76  1  0  0  0
 39 40  1  0  0  0
 39 41  1  0  0  0
 39 77  1  0  0  0
 40 78  1  0  0  0
 40 79  1  0  0  0
 40 80  1  0  0  0
 41 81  1  0  0  0
 41 82  1  0  0  0
 41 83  1  0  0  0
M  END
> <s_m_source_file>
BACE_140.smi

> <i_m_source_file_index>
1

> <i_lp_mmshare_version>
42013

> <i_f3d_flags>
0

> <s_epik_input>
TzFbQ0gyXVtDSDJdW0NIMl1PYyhbY0hdW2NIXVtjSF0yKVtjSF1jMltDSDJdW0NASF0oW05IXUMoPU8pYyhbY0hdMylbY0hdYyhbY0hdYzEzKVtDSDJdT1tDSDNdKVtDQEhdKFtPSF0pW0NIMl1bTkhdQzQoW0NIMl1bQ0gyXTQpYzVbY0hdYyhbQ0hdKFtDSDNdKVtDSDNdKVtjSF1bY0hdW2NIXTU=

> <s_epik_cmdline>
J2VwaWtfcHl0aG9uJywgJy1waCcsICc3LjAnLCAnLXRuJywgJzgnLCAnLW1hJywgJzIwMCcsICctaW1hZScsICc8aW5maWxlLm1hZT4nLCAnLW9tYWUnLCAnPG91dGZpbGUubWFlPic=

> <r_lp_tautomer_probability>
1

> <r_epik_Ionization_Penalty>
  0.3229

> <r_epik_Ionization_Penalty_Charging>
  0.0000

> <r_epik_Ionization_Penalty_Neutral>
  0.3229

> <r_epik_State_Penalty>
  0.3176

> <r_epik_Charging_Adjusted_Penalty>
0.317604

> <i_epik_Tot_Q>
0

> <i_epik_Tot_abs_Q>
0

> <s_lp_Force_Field>
OPLS_2005

> <r_lp_Energy>
55.3845

> <b_lp_Chiralities_Consistent>
1

> <s_lp_Variant>
BACE_140.smi:1-1

> <chiral flag>
1

> <version>
0

> <s_i_glide_gridfile>
second_dock_grid_2

> <i_i_glide_lignum>
287

> <i_i_glide_rotatable_bonds>
9

> <r_i_docking_score>
-4.92435

> <r_i_glide_ligand_efficiency>
-0.120106

> <r_i_glide_ligand_efficiency_sa>
-0.414152

> <r_i_glide_ligand_efficiency_ln>
-1.04472

> <r_glide_XP_GScore>
-5.24195

> <r_i_glide_gscore>
-5.24195

> <r_i_glide_evdw>
-42.0874

> <r_i_glide_ecoul>
-8.27922

> <r_i_glide_energy>
-50.3666

> <r_i_glide_einternal>
4.35643

> <r_i_glide_emodel>
-71.5713

> <r_glide_XP_HBond>
-1.07365

> <i_i_glide_confnum>
1

> <i_i_glide_posenum>
10

> <r_i_glide_eff_state_penalty>
0.3176

> <i_glide_XP_PoseRank>
1

$$$$
BACE_140.smi:1
                    3D
 Structure written by MMmdl.
 84 88  0  0  1  0            999 V2000
   13.0780   48.2639  -14.2754 C   0  0  0  0  0  0
   13.9352   47.8296  -13.2327 O   0  0  0  0  0  0
   15.2851   48.2238  -13.4249 C   0  0  0  0  0  0
   16.2175   47.5253  -12.4511 C   0  0  0  0  0  0
   17.2700   48.2357  -11.8360 C   0  0  0  0  0  0
   18.1390   47.5920  -10.9324 C   0  0  0  0  0  0
   17.9621   46.2128  -10.6727 C   0  0  0  0  0  0
   16.9178   45.4814  -11.2879 C   0  0  0  0  0  0
   16.0497   46.1507  -12.1800 C   0  0  0  0  0  0
   16.7749   43.9987  -11.0646 C   0  0  0  0  0  0
   16.4176   43.2592  -11.9831 O   0  0  0  0  0  0
   17.0359   43.5667   -9.8149 N   0  0  0  0  0  0
   17.0913   42.1707   -9.3553 C   0  0  1  0  0  0
   18.1626   41.9753   -8.2403 C   0  0  0  0  0  0
   19.4937   42.6627   -8.5222 C   0  0  0  0  0  0
   19.7371   43.9589   -8.0206 C   0  0  0  0  0  0
   20.9088   44.6599   -8.3673 C   0  0  0  0  0  0
   21.8922   44.0158   -9.1549 C   0  0  0  0  0  0
   21.6797   42.6999   -9.6127 C   0  0  0  0  0  0
   20.4789   42.0284   -9.3085 C   0  0  0  0  0  0
   21.0232   45.9571   -7.9251 O   0  0  0  0  0  0
   21.5470   46.9095   -8.8461 C   0  0  0  0  0  0
   20.8479   48.2597   -8.6108 C   0  0  0  0  0  0
   19.3499   48.2701   -8.9762 C   0  0  0  0  0  0
   19.1759   48.3202  -10.3921 O   0  0  0  0  0  0
   15.6702   41.6449   -8.9986 C   0  0  2  0  0  0
   14.6800   42.5017   -9.5385 O   0  0  0  0  0  0
   15.4281   41.5227   -7.4789 C   0  0  0  0  0  0
   15.7591   40.1654   -6.9873 N   0  3  0  0  0  0
   16.1003   39.1732   -8.0183 C   0  0  0  0  0  0
   15.3092   37.8872   -8.0403 C   0  0  0  0  0  0
   15.0901   38.9268   -9.1133 C   0  0  0  0  0  0
   17.5744   39.1003   -8.3899 C   0  0  0  0  0  0
   18.0243   39.5162   -9.6638 C   0  0  0  0  0  0
   19.3933   39.4461  -10.0134 C   0  0  0  0  0  0
   20.3187   38.9516   -9.0684 C   0  0  0  0  0  0
   19.8815   38.5353   -7.7971 C   0  0  0  0  0  0
   18.5167   38.6094   -7.4605 C   0  0  0  0  0  0
   19.8782   39.8956  -11.3907 C   0  0  0  0  0  0
   18.9384   40.9375  -12.0231 C   0  0  0  0  0  0
   21.3374   40.3839  -11.3592 C   0  0  0  0  0  0
   17.4467   41.5888  -10.2078 H   0  0  0  0  0  0
   15.5338   40.6574   -9.4417 H   0  0  0  0  0  0
   12.0601   47.9311  -14.0725 H   0  0  0  0  0  0
   13.3796   47.8480  -15.2377 H   0  0  0  0  0  0
   13.0643   49.3520  -14.3523 H   0  0  0  0  0  0
   15.3735   49.3056  -13.3123 H   0  0  0  0  0  0
   15.6045   47.9808  -14.4398 H   0  0  0  0  0  0
   17.4165   49.2842  -12.0523 H   0  0  0  0  0  0
   18.6612   45.7083  -10.0257 H   0  0  0  0  0  0
   15.2523   45.6105  -12.6706 H   0  0  0  0  0  0
   17.2890   44.2656   -9.1311 H   0  0  0  0  0  0
   18.3507   40.9127   -8.0825 H   0  0  0  0  0  0
   17.7964   42.3536   -7.2854 H   0  0  0  0  0  0
   18.9883   44.4528   -7.4180 H   0  0  0  0  0  0
   22.8112   44.5204   -9.4145 H   0  0  0  0  0  0
   22.4313   42.2119  -10.2157 H   0  0  0  0  0  0
   20.3135   41.0317   -9.6912 H   0  0  0  0  0  0
   22.6195   47.0114   -8.6758 H   0  0  0  0  0  0
   21.4092   46.6081   -9.8862 H   0  0  0  0  0  0
   21.3591   49.0394   -9.1766 H   0  0  0  0  0  0
   20.9604   48.5302   -7.5602 H   0  0  0  0  0  0
   18.8271   47.4472   -8.4888 H   0  0  0  0  0  0
   18.8995   49.1784   -8.5744 H   0  0  0  0  0  0
   13.8355   42.0931   -9.4248 H   0  0  0  0  0  0
   14.3941   41.7674   -7.2347 H   0  0  0  0  0  0
   16.0598   42.2367   -6.9490 H   0  0  0  0  0  0
   14.9585   39.8179   -6.4790 H   0  0  0  0  0  0
   15.8360   36.9752   -8.3211 H   0  0  0  0  0  0
   14.5274   37.7626   -7.2910 H   0  0  0  0  0  0
   14.1619   39.4973   -9.0814 H   0  0  0  0  0  0
   15.4704   38.7099  -10.1115 H   0  0  0  0  0  0
   17.3072   39.8942  -10.3778 H   0  0  0  0  0  0
   21.3698   38.8875   -9.3097 H   0  0  0  0  0  0
   20.5943   38.1582   -7.0785 H   0  0  0  0  0  0
   18.1950   38.2867   -6.4809 H   0  0  0  0  0  0
   19.8581   39.0234  -12.0455 H   0  0  0  0  0  0
   17.9202   40.5538  -12.0965 H   0  0  0  0  0  0
   19.2613   41.1941  -13.0325 H   0  0  0  0  0  0
   18.9046   41.8622  -11.4465 H   0  0  0  0  0  0
   22.0008   39.6122  -10.9673 H   0  0  0  0  0  0
   21.4586   41.2729  -10.7398 H   0  0  0  0  0  0
   21.6880   40.6341  -12.3610 H   0  0  0  0  0  0
   16.5355   40.2388   -6.3456 H   0  0  0  0  0  0
  1  2  1  0  0  0
  1 44  1  0  0  0
  1 45  1  0  0  0
  1 46  1  0  0  0
  2  3  1  0  0  0
  3  4  1  0  0  0
  3 47  1  0  0  0
  3 48  1  0  0  0
  4  9  1  0  0  0
  4  5  2  0  0  0
  5  6  1  0  0  0
  5 49  1  0  0  0
  6 25  1  0  0  0
  6  7  2  0  0  0
  7  8  1  0  0  0
  7 50  1  0  0  0
  8  9  2  0  0  0
  8 10  1  0  0  0
  9 51  1  0  0  0
 10 11  2  0  0  0
 10 12  1  0  0  0
 12 13  1  0  0  0
 12 52  1  0  0  0
 13 42  1  0  0  0
 13 14  1  0  0  0
 13 26  1  0  0  0
 14 15  1  0  0  0
 14 53  1  0  0  0
 14 54  1  0  0  0
 15 20  1  0  0  0
 15 16  2  0  0  0
 16 17  1  0  0  0
 16 55  1  0  0  0
 17 18  2  0  0  0
 17 21  1  0  0  0
 18 19  1  0  0  0
 18 56  1  0  0  0
 19 20  2  0  0  0
 19 57  1  0  0  0
 20 58  1  0  0  0
 21 22  1  0  0  0
 22 23  1  0  0  0
 22 59  1  0  0  0
 22 60  1  0  0  0
 23 24  1  0  0  0
 23 61  1  0  0  0
 23 62  1  0  0  0
 24 25  1  0  0  0
 24 63  1  0  0  0
 24 64  1  0  0  0
 26 43  1  0  0  0
 26 27  1  0  0  0
 26 28  1  0  0  0
 27 65  1  0  0  0
 28 29  1  0  0  0
 28 66  1  0  0  0
 28 67  1  0  0  0
 29 30  1  0  0  0
 29 68  1  0  0  0
 29 84  1  0  0  0
 30 32  1  0  0  0
 30 31  1  0  0  0
 30 33  1  0  0  0
 31 32  1  0  0  0
 31 69  1  0  0  0
 31 70  1  0  0  0
 32 71  1  0  0  0
 32 72  1  0  0  0
 33 38  1  0  0  0
 33 34  2  0  0  0
 34 35  1  0  0  0
 34 73  1  0  0  0
 35 36  2  0  0  0
 35 39  1  0  0  0
 36 37  1  0  0  0
 36 74  1  0  0  0
 37 38  2  0  0  0
 37 75  1  0  0  0
 38 76  1  0  0  0
 39 40  1  0  0  0
 39 41  1  0  0  0
 39 77  1  0  0  0
 40 78  1  0  0  0
 40 79  1  0  0  0
 40 80  1  0  0  0
 41 81  1  0  0  0
 41 82  1  0  0  0
 41 83  1  0  0  0
M  CHG  1  29   1
M  END
> <s_m_source_file>
BACE_140.smi

> <i_m_source_file_index>
1

> <i_lp_mmshare_version>
42013

> <i_f3d_flags>
0

> <s_epik_input>
TzFbQ0gyXVtDSDJdW0NIMl1PYyhbY0hdW2NIXVtjSF0yKVtjSF1jMltDSDJdW0NASF0oW05IXUMoPU8pYyhbY0hdMylbY0hdYyhbY0hdYzEzKVtDSDJdT1tDSDNdKVtDQEhdKFtPSF0pW0NIMl1bTkhdQzQoW0NIMl1bQ0gyXTQpYzVbY0hdYyhbQ0hdKFtDSDNdKVtDSDNdKVtjSF1bY0hdW2NIXTU=

> <s_epik_cmdline>
J2VwaWtfcHl0aG9uJywgJy1waCcsICc3LjAnLCAnLXRuJywgJzgnLCAnLW1hJywgJzIwMCcsICctaW1hZScsICc8aW5maWxlLm1hZT4nLCAnLW9tYWUnLCAnPG91dGZpbGUubWFlPic=

> <r_lp_tautomer_probability>
1

> <r_epik_Ionization_Penalty>
  0.5137

> <r_epik_Ionization_Penalty_Charging>
  0.5137

> <r_epik_Ionization_Penalty_Neutral>
  0.0000

> <r_epik_State_Penalty>
  0.5212

> <r_epik_Charging_Adjusted_Penalty>
1.03485

> <i_epik_Tot_Q>
1

> <i_epik_Tot_abs_Q>
1

> <s_lp_Force_Field>
OPLS_2005

> <r_lp_Energy>
44.4551

> <b_lp_Chiralities_Consistent>
1

> <s_lp_Variant>
BACE_140.smi:1-2

> <chiral flag>
1

> <version>
0

> <s_i_glide_gridfile>
second_dock_grid_2

> <i_i_glide_lignum>
288

> <i_i_glide_rotatable_bonds>
9

> <r_i_docking_score>
-5.14932

> <r_i_glide_ligand_efficiency>
-0.125593

> <r_i_glide_ligand_efficiency_sa>
-0.433072

> <r_i_glide_ligand_efficiency_ln>
-1.09245

> <r_glide_XP_GScore>
-5.67052

> <r_i_glide_gscore>
-5.67052

> <r_i_glide_evdw>
-34.8063

> <r_i_glide_ecoul>
-18.8046

> <r_i_glide_energy>
-53.6109

> <r_i_glide_einternal>
6.14665

> <r_i_glide_emodel>
-78.6569

> <r_glide_XP_HBond>
-1.27803

> <i_i_glide_confnum>
1

> <i_i_glide_posenum>
11

> <r_i_glide_eff_state_penalty>
0.5212

> <i_glide_XP_PoseRank>
1

$$$$
BACE_141.smi:1
                    3D
 Structure written by MMmdl.
 81 84  0  0  1  0            999 V2000
   32.2390   41.1504  -15.7797 C   0  0  0  0  0  0
   31.1526   42.1356  -15.3244 C   0  0  0  0  0  0
   31.0110   42.2070  -13.8142 C   0  0  0  0  0  0
   29.7597   42.0837  -13.1750 C   0  0  0  0  0  0
   29.7609   42.2285  -11.7713 C   0  0  0  0  0  0
   28.4868   42.3038  -10.9577 C   0  0  0  0  0  0
   27.4494   41.3500  -11.4040 N   0  3  0  0  0  0
   26.1912   41.3673  -10.6202 C   0  0  0  0  0  0
   25.5904   42.7892  -10.4868 C   0  0  1  0  0  0
   25.4553   43.3497  -11.7806 O   0  0  0  0  0  0
   24.2384   42.9057   -9.7500 C   0  0  2  0  0  0
   24.2930   42.4791   -8.2618 C   0  0  0  0  0  0
   22.9117   42.2525   -7.6640 C   0  0  0  0  0  0
   22.4610   40.9433   -7.3894 C   0  0  0  0  0  0
   21.1438   40.7086   -6.9484 C   0  0  0  0  0  0
   20.2797   41.8194   -6.7735 C   0  0  0  0  0  0
   20.7333   43.1283   -7.0143 C   0  0  0  0  0  0
   22.0488   43.3476   -7.4569 C   0  0  0  0  0  0
   20.7902   39.3945   -6.7203 O   0  0  0  0  0  0
   19.4084   39.0518   -6.6515 C   0  0  0  0  0  0
   18.7832   39.0448   -8.0551 C   0  0  0  0  0  0
   19.2657   37.8465   -8.8839 C   0  0  0  0  0  0
   18.8290   37.8589  -10.3520 C   0  0  0  0  0  0
   19.7699   38.5505  -11.1612 O   0  0  0  0  0  0
   19.6936   39.9155  -11.2185 C   0  0  0  0  0  0
   18.4736   40.6263  -11.2523 C   0  0  0  0  0  0
   18.4720   42.0339  -11.3127 C   0  0  0  0  0  0
   19.6968   42.7324  -11.3263 C   0  0  0  0  0  0
   20.9214   42.0295  -11.2660 C   0  0  0  0  0  0
   20.9077   40.6194  -11.2543 C   0  0  0  0  0  0
   22.2158   42.7799  -11.1809 C   0  0  0  0  0  0
   22.3255   43.9149  -11.6399 O   0  0  0  0  0  0
   23.1649   42.1876  -10.4398 N   0  0  0  0  0  0
   17.1715   42.7770  -11.3761 C   0  0  0  0  0  0
   16.8607   43.3508  -12.4234 O   0  0  0  0  0  0
   16.3758   42.7454  -10.2792 N   0  0  0  0  0  0
   15.0442   43.3568  -10.2880 C   0  0  0  0  0  0
   16.7750   42.1731   -8.9885 C   0  0  0  0  0  0
   30.8957   42.4456  -11.0811 N   0  0  0  0  0  0
   32.0155   42.5672  -11.7948 C   0  0  0  0  0  0
   32.1323   42.4769  -13.1160 N   0  0  0  0  0  0
   26.2818   43.4218   -9.9313 H   0  0  0  0  0  0
   23.9725   43.9655   -9.7320 H   0  0  0  0  0  0
   32.2626   41.0759  -16.8666 H   0  0  0  0  0  0
   32.0599   40.1510  -15.3811 H   0  0  0  0  0  0
   33.2280   41.4676  -15.4464 H   0  0  0  0  0  0
   31.3715   43.1340  -15.7026 H   0  0  0  0  0  0
   30.1970   41.8374  -15.7580 H   0  0  0  0  0  0
   28.8603   41.9272  -13.7502 H   0  0  0  0  0  0
   28.7040   42.1500   -9.8996 H   0  0  0  0  0  0
   28.1395   43.3292  -11.0668 H   0  0  0  0  0  0
   27.2271   41.5739  -12.3623 H   0  0  0  0  0  0
   25.4824   40.6931  -11.0992 H   0  0  0  0  0  0
   26.4034   40.9414   -9.6401 H   0  0  0  0  0  0
   24.6098   43.0921  -12.1278 H   0  0  0  0  0  0
   24.8600   41.5564   -8.1557 H   0  0  0  0  0  0
   24.8246   43.2271   -7.6719 H   0  0  0  0  0  0
   23.1168   40.0989   -7.5489 H   0  0  0  0  0  0
   19.2608   41.7034   -6.4402 H   0  0  0  0  0  0
   20.0647   43.9637   -6.8706 H   0  0  0  0  0  0
   22.3832   44.3532   -7.6645 H   0  0  0  0  0  0
   19.3219   38.0575   -6.2138 H   0  0  0  0  0  0
   18.8601   39.7008   -5.9767 H   0  0  0  0  0  0
   17.6979   38.9934   -7.9617 H   0  0  0  0  0  0
   19.0012   39.9831   -8.5612 H   0  0  0  0  0  0
   20.3515   37.7509   -8.8276 H   0  0  0  0  0  0
   18.8533   36.9498   -8.4292 H   0  0  0  0  0  0
   18.8600   36.8370  -10.7098 H   0  0  0  0  0  0
   17.7932   38.1730  -10.4675 H   0  0  0  0  0  0
   17.5285   40.1060  -11.2643 H   0  0  0  0  0  0
   19.6945   43.8132  -11.3512 H   0  0  0  0  0  0
   21.8295   40.0563  -11.2319 H   0  0  0  0  0  0
   22.9593   41.2603  -10.0980 H   0  0  0  0  0  0
   14.5804   43.3325  -11.2756 H   0  0  0  0  0  0
   15.1083   44.3985   -9.9672 H   0  0  0  0  0  0
   14.3655   42.8337   -9.6101 H   0  0  0  0  0  0
   17.8101   42.4133   -8.7401 H   0  0  0  0  0  0
   16.6658   41.0883   -9.0047 H   0  0  0  0  0  0
   16.1623   42.5518   -8.1692 H   0  0  0  0  0  0
   32.9229   42.7577  -11.2407 H   0  0  0  0  0  0
   27.8367   40.4096  -11.3538 H   0  0  0  0  0  0
  1  2  1  0  0  0
  1 44  1  0  0  0
  1 45  1  0  0  0
  1 46  1  0  0  0
  2  3  1  0  0  0
  2 47  1  0  0  0
  2 48  1  0  0  0
  3 41  1  0  0  0
  3  4  2  0  0  0
  4  5  1  0  0  0
  4 49  1  0  0  0
  5  6  1  0  0  0
  5 39  2  0  0  0
  6  7  1  0  0  0
  6 50  1  0  0  0
  6 51  1  0  0  0
  7  8  1  0  0  0
  7 52  1  0  0  0
  7 81  1  0  0  0
  8  9  1  0  0  0
  8 53  1  0  0  0
  8 54  1  0  0  0
  9 42  1  0  0  0
  9 10  1  0  0  0
  9 11  1  0  0  0
 10 55  1  0  0  0
 11 43  1  0  0  0
 11 33  1  0  0  0
 11 12  1  0  0  0
 12 13  1  0  0  0
 12 56  1  0  0  0
 12 57  1  0  0  0
 13 18  1  0  0  0
 13 14  2  0  0  0
 14 15  1  0  0  0
 14 58  1  0  0  0
 15 16  2  0  0  0
 15 19  1  0  0  0
 16 17  1  0  0  0
 16 59  1  0  0  0
 17 18  2  0  0  0
 17 60  1  0  0  0
 18 61  1  0  0  0
 19 20  1  0  0  0
 20 21  1  0  0  0
 20 62  1  0  0  0
 20 63  1  0  0  0
 21 22  1  0  0  0
 21 64  1  0  0  0
 21 65  1  0  0  0
 22 23  1  0  0  0
 22 66  1  0  0  0
 22 67  1  0  0  0
 23 24  1  0  0  0
 23 68  1  0  0  0
 23 69  1  0  0  0
 24 25  1  0  0  0
 25 30  1  0  0  0
 25 26  2  0  0  0
 26 27  1  0  0  0
 26 70  1  0  0  0
 27 28  2  0  0  0
 27 34  1  0  0  0
 28 29  1  0  0  0
 28 71  1  0  0  0
 29 30  2  0  0  0
 29 31  1  0  0  0
 30 72  1  0  0  0
 31 32  2  0  0  0
 31 33  1  0  0  0
 33 73  1  0  0  0
 34 35  2  0  0  0
 34 36  1  0  0  0
 36 37  1  0  0  0
 36 38  1  0  0  0
 37 74  1  0  0  0
 37 75  1  0  0  0
 37 76  1  0  0  0
 38 77  1  0  0  0
 38 78  1  0  0  0
 38 79  1  0  0  0
 39 40  1  0  0  0
 40 41  2  0  0  0
 40 80  1  0  0  0
M  CHG  1   7   1
M  END
> <s_m_source_file>
BACE_141.smi

> <i_m_source_file_index>
1

> <i_lp_mmshare_version>
42013

> <i_f3d_flags>
0

> <s_epik_input>
W0NIM11bQ0gyXWMxW2NIXWMobltjSF1uMSlbQ0gyXVtOSF1bQ0gyXVtDQEBIXShbT0hdKVtDQEhdKFtDSDJdMilbTkhdQyg9TyljKFtjSF0zKVtjSF1jKEMoPU8pTihbQ0gzXSlbQ0gzXSlbY0hdYzNPW0NIMl1bQ0gyXVtDSDJdW0NIMl1PYyhbY0hdYzI0KVtjSF1bY0hdW2NIXTQ=

> <s_epik_cmdline>
J2VwaWtfcHl0aG9uJywgJy1waCcsICc3LjAnLCAnLXRuJywgJzgnLCAnLW1hJywgJzIwMCcsICctaW1hZScsICc8aW5maWxlLm1hZT4nLCAnLW9tYWUnLCAnPG91dGZpbGUubWFlPic=

> <r_lp_tautomer_probability>
1

> <r_epik_Ionization_Penalty>
  0.1034

> <r_epik_Ionization_Penalty_Charging>
  0.1034

> <r_epik_Ionization_Penalty_Neutral>
  0.0000

> <r_epik_State_Penalty>
  0.0933

> <r_epik_Charging_Adjusted_Penalty>
0.196746

> <i_epik_Tot_Q>
1

> <i_epik_Tot_abs_Q>
1

> <s_epik_Chemistry_Notes>
This compound contains an electron-poor aromatic ring that is susceptible to covalent hydrolysis at low pH, typically resulting in measured values for nitrogen ring protonation that are around two units higher than predicted values.

> <s_lp_Force_Field>
OPLS_2005

> <r_lp_Energy>
28.7943

> <b_lp_Chiralities_Consistent>
1

> <s_lp_Variant>
BACE_141.smi:1-1

> <chiral flag>
1

> <version>
0

> <s_i_glide_gridfile>
second_dock_grid_2

> <i_i_glide_lignum>
289

> <i_i_glide_rotatable_bonds>
9

> <r_i_docking_score>
-5.27123

> <r_i_glide_ligand_efficiency>
-0.128567

> <r_i_glide_ligand_efficiency_sa>
-0.443326

> <r_i_glide_ligand_efficiency_ln>
-1.11831

> <r_glide_XP_GScore>
-5.36453

> <r_i_glide_gscore>
-5.36453

> <r_i_glide_evdw>
-41.6487

> <r_i_glide_ecoul>
-14.6337

> <r_i_glide_energy>
-56.2824

> <r_i_glide_einternal>
7.39648

> <r_i_glide_emodel>
-72.2781

> <r_glide_XP_HBond>
-1.18

> <i_i_glide_confnum>
1

> <i_i_glide_posenum>
30

> <r_i_glide_eff_state_penalty>
0.0933

> <i_glide_XP_PoseRank>
1

$$$$
BACE_141.smi:1
                    3D
 Structure written by MMmdl.
 80 83  0  0  1  0            999 V2000
   21.6046   43.8821   -5.6313 C   0  0  0  0  0  0
   20.1108   43.9449   -5.2992 C   0  0  0  0  0  0
   19.3647   45.0344   -6.0552 C   0  0  0  0  0  0
   18.4553   44.7365   -7.0870 C   0  0  0  0  0  0
   17.7456   45.8264   -7.6375 C   0  0  0  0  0  0
   16.6453   45.6363   -8.6635 C   0  0  0  0  0  0
   15.9044   44.3959   -8.4639 N   0  0  0  0  0  0
   14.7943   44.1801   -9.3906 C   0  0  0  0  0  0
   14.2106   42.7569   -9.2627 C   0  0  1  0  0  0
   13.0282   42.7072  -10.0392 O   0  0  0  0  0  0
   15.1104   41.5361   -9.6608 C   0  0  2  0  0  0
   15.0264   40.4293   -8.5664 C   0  0  0  0  0  0
   16.1966   39.4578   -8.5538 C   0  0  0  0  0  0
   17.3898   39.7921   -7.8755 C   0  0  0  0  0  0
   18.5310   38.9735   -7.9731 C   0  0  0  0  0  0
   18.4358   37.7580   -8.6956 C   0  0  0  0  0  0
   17.2256   37.3867   -9.3106 C   0  0  0  0  0  0
   16.1110   38.2408   -9.2539 C   0  0  0  0  0  0
   19.6831   39.4373   -7.3737 O   0  0  0  0  0  0
   20.8923   38.7317   -7.6159 C   0  0  0  0  0  0
   22.0816   39.5526   -7.0943 C   0  0  0  0  0  0
   22.3209   40.8860   -7.8294 C   0  0  0  0  0  0
   22.6819   40.7324   -9.3195 C   0  0  0  0  0  0
   21.5106   40.6148  -10.1207 O   0  0  0  0  0  0
   20.7714   41.7461  -10.3893 C   0  0  0  0  0  0
   21.3202   43.0454  -10.5327 C   0  0  0  0  0  0
   20.4905   44.1508  -10.8374 C   0  0  0  0  0  0
   19.1105   43.9405  -11.0372 C   0  0  0  0  0  0
   18.5492   42.6606  -10.8635 C   0  0  0  0  0  0
   19.3854   41.5674  -10.5574 C   0  0  0  0  0  0
   17.0727   42.4716  -10.9913 C   0  0  0  0  0  0
   16.4600   42.9289  -11.9572 O   0  0  0  0  0  0
   16.5165   41.8629   -9.9323 N   0  0  0  0  0  0
   21.0588   45.5335  -11.0198 C   0  0  0  0  0  0
   20.7791   46.1606  -12.0397 O   0  0  0  0  0  0
   21.8455   46.0514  -10.0471 N   0  0  0  0  0  0
   22.5296   47.3322  -10.2428 C   0  0  0  0  0  0
   21.9817   45.4876   -8.7053 C   0  0  0  0  0  0
   17.9576   47.0919   -7.2211 N   0  0  0  0  0  0
   18.8704   47.2591   -6.2644 C   0  0  0  0  0  0
   19.5587   46.3028   -5.6407 N   0  0  0  0  0  0
   13.8899   42.6535   -8.2264 H   0  0  0  0  0  0
   14.7479   41.0976  -10.5926 H   0  0  0  0  0  0
   22.0993   43.1228   -5.0262 H   0  0  0  0  0  0
   22.0956   44.8374   -5.4368 H   0  0  0  0  0  0
   21.7647   43.6217   -6.6751 H   0  0  0  0  0  0
   19.6510   42.9764   -5.5027 H   0  0  0  0  0  0
   20.0009   44.1176   -4.2283 H   0  0  0  0  0  0
   18.2746   43.7187   -7.4047 H   0  0  0  0  0  0
   15.9633   46.4856   -8.6089 H   0  0  0  0  0  0
   17.0878   45.6556   -9.6585 H   0  0  0  0  0  0
   15.6552   44.2473   -7.4866 H   0  0  0  0  0  0
   14.0086   44.9054   -9.1792 H   0  0  0  0  0  0
   15.1022   44.3709  -10.4182 H   0  0  0  0  0  0
   12.5162   41.9698   -9.7221 H   0  0  0  0  0  0
   14.9987   40.8799   -7.5734 H   0  0  0  0  0  0
   14.0886   39.8799   -8.6645 H   0  0  0  0  0  0
   17.4500   40.7149   -7.3131 H   0  0  0  0  0  0
   19.2762   37.0896   -8.7941 H   0  0  0  0  0  0
   17.1605   36.4572   -9.8534 H   0  0  0  0  0  0
   15.1980   37.9705   -9.7612 H   0  0  0  0  0  0
   20.8532   37.7754   -7.0945 H   0  0  0  0  0  0
   21.0262   38.5233   -8.6776 H   0  0  0  0  0  0
   21.9350   39.7481   -6.0315 H   0  0  0  0  0  0
   22.9863   38.9509   -7.1670 H   0  0  0  0  0  0
   21.4537   41.5361   -7.7147 H   0  0  0  0  0  0
   23.1449   41.3954   -7.3269 H   0  0  0  0  0  0
   23.3382   41.5339   -9.6538 H   0  0  0  0  0  0
   23.2601   39.8204   -9.4609 H   0  0  0  0  0  0
   22.3818   43.2121  -10.4436 H   0  0  0  0  0  0
   18.4745   44.7756  -11.2927 H   0  0  0  0  0  0
   18.9674   40.5768  -10.4452 H   0  0  0  0  0  0
   17.1596   41.5708   -9.2099 H   0  0  0  0  0  0
   21.8427   48.1576  -10.0398 H   0  0  0  0  0  0
   22.8979   47.4455  -11.2636 H   0  0  0  0  0  0
   23.3915   47.4324   -9.5835 H   0  0  0  0  0  0
   21.0501   45.0299   -8.3796 H   0  0  0  0  0  0
   22.2232   46.2537   -7.9669 H   0  0  0  0  0  0
   22.7721   44.7355   -8.6809 H   0  0  0  0  0  0
   19.0330   48.2707   -5.9238 H   0  0  0  0  0  0
  1  2  1  0  0  0
  1 44  1  0  0  0
  1 45  1  0  0  0
  1 46  1  0  0  0
  2  3  1  0  0  0
  2 47  1  0  0  0
  2 48  1  0  0  0
  3 41  1  0  0  0
  3  4  2  0  0  0
  4  5  1  0  0  0
  4 49  1  0  0  0
  5  6  1  0  0  0
  5 39  2  0  0  0
  6  7  1  0  0  0
  6 50  1  0  0  0
  6 51  1  0  0  0
  7  8  1  0  0  0
  7 52  1  0  0  0
  8  9  1  0  0  0
  8 53  1  0  0  0
  8 54  1  0  0  0
  9 42  1  0  0  0
  9 10  1  0  0  0
  9 11  1  0  0  0
 10 55  1  0  0  0
 11 43  1  0  0  0
 11 33  1  0  0  0
 11 12  1  0  0  0
 12 13  1  0  0  0
 12 56  1  0  0  0
 12 57  1  0  0  0
 13 18  1  0  0  0
 13 14  2  0  0  0
 14 15  1  0  0  0
 14 58  1  0  0  0
 15 16  2  0  0  0
 15 19  1  0  0  0
 16 17  1  0  0  0
 16 59  1  0  0  0
 17 18  2  0  0  0
 17 60  1  0  0  0
 18 61  1  0  0  0
 19 20  1  0  0  0
 20 21  1  0  0  0
 20 62  1  0  0  0
 20 63  1  0  0  0
 21 22  1  0  0  0
 21 64  1  0  0  0
 21 65  1  0  0  0
 22 23  1  0  0  0
 22 66  1  0  0  0
 22 67  1  0  0  0
 23 24  1  0  0  0
 23 68  1  0  0  0
 23 69  1  0  0  0
 24 25  1  0  0  0
 25 30  1  0  0  0
 25 26  2  0  0  0
 26 27  1  0  0  0
 26 70  1  0  0  0
 27 28  2  0  0  0
 27 34  1  0  0  0
 28 29  1  0  0  0
 28 71  1  0  0  0
 29 30  2  0  0  0
 29 31  1  0  0  0
 30 72  1  0  0  0
 31 32  2  0  0  0
 31 33  1  0  0  0
 33 73  1  0  0  0
 34 35  2  0  0  0
 34 36  1  0  0  0
 36 37  1  0  0  0
 36 38  1  0  0  0
 37 74  1  0  0  0
 37 75  1  0  0  0
 37 76  1  0  0  0
 38 77  1  0  0  0
 38 78  1  0  0  0
 38 79  1  0  0  0
 39 40  1  0  0  0
 40 41  2  0  0  0
 40 80  1  0  0  0
M  END
> <s_m_source_file>
BACE_141.smi

> <i_m_source_file_index>
1

> <i_lp_mmshare_version>
42013

> <i_f3d_flags>
0

> <s_epik_input>
W0NIM11bQ0gyXWMxW2NIXWMobltjSF1uMSlbQ0gyXVtOSF1bQ0gyXVtDQEBIXShbT0hdKVtDQEhdKFtDSDJdMilbTkhdQyg9TyljKFtjSF0zKVtjSF1jKEMoPU8pTihbQ0gzXSlbQ0gzXSlbY0hdYzNPW0NIMl1bQ0gyXVtDSDJdW0NIMl1PYyhbY0hdYzI0KVtjSF1bY0hdW2NIXTQ=

> <s_epik_cmdline>
J2VwaWtfcHl0aG9uJywgJy1waCcsICc3LjAnLCAnLXRuJywgJzgnLCAnLW1hJywgJzIwMCcsICctaW1hZScsICc8aW5maWxlLm1hZT4nLCAnLW9tYWUnLCAnPG91dGZpbGUubWFlPic=

> <r_lp_tautomer_probability>
1

> <r_epik_Ionization_Penalty>
  1.0853

> <r_epik_Ionization_Penalty_Charging>
  0.0000

> <r_epik_Ionization_Penalty_Neutral>
  1.0853

> <r_epik_State_Penalty>
  1.1410

> <r_epik_Charging_Adjusted_Penalty>
1.14102

> <i_epik_Tot_Q>
0

> <i_epik_Tot_abs_Q>
0

> <s_epik_Chemistry_Notes>
This compound contains an electron-poor aromatic ring that is susceptible to covalent hydrolysis at low pH, typically resulting in measured values for nitrogen ring protonation that are around two units higher than predicted values.

> <s_lp_Force_Field>
OPLS_2005

> <r_lp_Energy>
42.4592

> <b_lp_Chiralities_Consistent>
1

> <s_lp_Variant>
BACE_141.smi:1-2

> <chiral flag>
1

> <version>
0

> <s_i_glide_gridfile>
second_dock_grid_2

> <i_i_glide_lignum>
290

> <i_i_glide_rotatable_bonds>
9

> <r_i_docking_score>
-3.844

> <r_i_glide_ligand_efficiency>
-0.093756

> <r_i_glide_ligand_efficiency_sa>
-0.323291

> <r_i_glide_ligand_efficiency_ln>
-0.815517

> <r_glide_XP_GScore>
-4.985

> <r_i_glide_gscore>
-4.985

> <r_i_glide_evdw>
-39.4697

> <r_i_glide_ecoul>
-15.6892

> <r_i_glide_energy>
-55.1589

> <r_i_glide_einternal>
6.11296

> <r_i_glide_emodel>
-75.3185

> <r_glide_XP_HBond>
-1.46213

> <i_i_glide_confnum>
1

> <i_i_glide_posenum>
4

> <r_i_glide_eff_state_penalty>
1.141

> <i_glide_XP_PoseRank>
1

$$$$
BACE_142.smi:1
                    3D
 Structure written by MMmdl.
 58 60  0  0  1  0            999 V2000
   19.8246   42.6906   -1.2729 C   0  0  0  0  0  0
   20.8337   41.8829   -1.8643 O   0  0  0  0  0  0
   20.9178   41.8854   -3.2382 C   0  0  0  0  0  0
   21.4819   40.7503   -3.8515 C   0  0  0  0  0  0
   21.5486   40.6446   -5.2515 C   0  0  0  0  0  0
   21.0811   41.7154   -6.0446 C   0  0  0  0  0  0
   20.5237   42.8690   -5.4582 C   0  0  0  0  0  0
   20.4602   42.9496   -4.0520 C   0  0  0  0  0  0
   19.9877   43.9463   -6.3287 C   0  0  0  0  0  0
   20.0715   44.0532   -7.5833 N   0  0  0  0  0  0
   19.3700   45.2490   -7.9710 C   0  0  1  0  0  0
   18.3103   44.9806   -9.0715 C   0  0  0  0  0  0
   18.8736   44.4809  -10.4240 C   0  0  2  0  0  0
   18.0313   44.9921  -11.6065 C   0  0  0  0  0  0
   18.9828   42.9399  -10.4636 C   0  0  0  0  0  0
   20.0525   42.4272  -11.4456 C   0  0  0  0  0  0
   20.5163   40.9766  -11.2071 C   0  0  0  0  0  0
   21.1222   40.7990   -9.8065 C   0  0  0  0  0  0
   22.0599   39.5958   -9.6305 C   0  0  0  0  0  0
   22.6601   39.5768   -8.2128 C   0  0  0  0  0  0
   21.6657   39.0748   -7.1508 C   0  0  0  0  0  0
   22.0599   39.4602   -5.8038 N   0  0  0  0  0  0
   18.7370   45.7664   -6.6612 C   0  0  2  0  0  0
   19.0769   47.2234   -6.3253 C   0  0  0  0  0  0
   18.0605   47.7503   -5.5003 O   0  0  0  0  0  0
   19.2853   44.9126   -5.6784 O   0  0  0  0  0  0
   20.0967   45.9718   -8.3436 H   0  0  0  0  0  0
   19.8705   44.9097  -10.5324 H   0  0  0  0  0  0
   17.6599   45.6121   -6.6932 H   0  0  0  0  0  0
   19.7396   42.4562   -0.2141 H   0  0  0  0  0  0
   18.8560   42.5038   -1.7309 H   0  0  0  0  0  0
   20.0601   43.7504   -1.3578 H   0  0  0  0  0  0
   21.8350   39.9361   -3.2388 H   0  0  0  0  0  0
   21.1257   41.6524   -7.1195 H   0  0  0  0  0  0
   20.0440   43.8313   -3.5982 H   0  0  0  0  0  0
   17.5483   44.2870   -8.7092 H   0  0  0  0  0  0
   17.7871   45.9239   -9.2393 H   0  0  0  0  0  0
   17.0022   44.6321  -11.5438 H   0  0  0  0  0  0
   18.4432   44.6611  -12.5607 H   0  0  0  0  0  0
   18.0028   46.0817  -11.6291 H   0  0  0  0  0  0
   19.2180   42.5851   -9.4662 H   0  0  0  0  0  0
   18.0156   42.4912  -10.6954 H   0  0  0  0  0  0
   19.6557   42.5161  -12.4538 H   0  0  0  0  0  0
   20.9297   43.0738  -11.4095 H   0  0  0  0  0  0
   19.6890   40.2788  -11.3460 H   0  0  0  0  0  0
   21.2615   40.7256  -11.9629 H   0  0  0  0  0  0
   21.6776   41.7017   -9.5463 H   0  0  0  0  0  0
   20.3090   40.7227   -9.0877 H   0  0  0  0  0  0
   21.5430   38.6580   -9.8416 H   0  0  0  0  0  0
   22.8659   39.6773  -10.3621 H   0  0  0  0  0  0
   23.5507   38.9502   -8.1805 H   0  0  0  0  0  0
   23.0200   40.5760   -7.9651 H   0  0  0  0  0  0
   20.6568   39.4321   -7.3467 H   0  0  0  0  0  0
   21.6034   37.9860   -7.1987 H   0  0  0  0  0  0
   22.2554   38.7050   -5.1634 H   0  0  0  0  0  0
   20.0513   47.3010   -5.8391 H   0  0  0  0  0  0
   19.1137   47.8274   -7.2307 H   0  0  0  0  0  0
   17.2606   47.7580   -6.0064 H   0  0  0  0  0  0
  1  2  1  0  0  0
  1 30  1  0  0  0
  1 31  1  0  0  0
  1 32  1  0  0  0
  2  3  1  0  0  0
  3  8  1  0  0  0
  3  4  2  0  0  0
  4  5  1  0  0  0
  4 33  1  0  0  0
  5 22  1  0  0  0
  5  6  2  0  0  0
  6  7  1  0  0  0
  6 34  1  0  0  0
  7  8  2  0  0  0
  7  9  1  0  0  0
  8 35  1  0  0  0
  9 26  1  0  0  0
  9 10  2  0  0  0
 10 11  1  0  0  0
 11 27  1  0  0  0
 11 12  1  0  0  0
 11 23  1  0  0  0
 12 13  1  0  0  0
 12 36  1  0  0  0
 12 37  1  0  0  0
 13 28  1  0  0  0
 13 14  1  0  0  0
 13 15  1  0  0  0
 14 38  1  0  0  0
 14 39  1  0  0  0
 14 40  1  0  0  0
 15 16  1  0  0  0
 15 41  1  0  0  0
 15 42  1  0  0  0
 16 17  1  0  0  0
 16 43  1  0  0  0
 16 44  1  0  0  0
 17 18  1  0  0  0
 17 45  1  0  0  0
 17 46  1  0  0  0
 18 19  1  0  0  0
 18 47  1  0  0  0
 18 48  1  0  0  0
 19 20  1  0  0  0
 19 49  1  0  0  0
 19 50  1  0  0  0
 20 21  1  0  0  0
 20 51  1  0  0  0
 20 52  1  0  0  0
 21 22  1  0  0  0
 21 53  1  0  0  0
 21 54  1  0  0  0
 22 55  1  0  0  0
 23 29  1  0  0  0
 23 24  1  0  0  0
 23 26  1  0  0  0
 24 25  1  0  0  0
 24 56  1  0  0  0
 24 57  1  0  0  0
 25 58  1  0  0  0
M  END
> <s_m_source_file>
BACE_142.smi

> <i_m_source_file_index>
1

> <i_lp_mmshare_version>
42013

> <i_f3d_flags>
0

> <s_epik_input>
W0NIM11PYyhbY0hdYzEyKVtjSF1jKFtjSF0xKUMzPU5bQ0BIXShbQ0BASF0oTzMpW0NIMl1bT0hdKVtDSDJdW0NASF0oW0NIM10pW0NIMl1bQ0gyXVtDSDJdW0NIMl1bQ0gyXVtDSDJdW0NIMl1bTkhdMg==

> <s_epik_cmdline>
J2VwaWtfcHl0aG9uJywgJy1waCcsICc3LjAnLCAnLXRuJywgJzgnLCAnLW1hJywgJzIwMCcsICctaW1hZScsICc8aW5maWxlLm1hZT4nLCAnLW9tYWUnLCAnPG91dGZpbGUubWFlPic=

> <r_epik_Ionization_Penalty>
  0.0005

> <r_epik_Ionization_Penalty_Charging>
  0.0000

> <r_epik_Ionization_Penalty_Neutral>
  0.0005

> <r_epik_State_Penalty>
  0.0003

> <r_epik_Charging_Adjusted_Penalty>
0.000337384

> <i_epik_Tot_Q>
0

> <i_epik_Tot_abs_Q>
0

> <s_epik_Chemistry_Notes>
This compound has an imine and may undergo hydrolysis.

> <s_lp_Force_Field>
OPLS_2005

> <r_lp_Energy>
31.3665

> <b_lp_Chiralities_Consistent>
1

> <s_lp_Variant>
BACE_142.smi:1-1

> <chiral flag>
1

> <version>
0

> <s_i_glide_gridfile>
second_dock_grid_2

> <i_i_glide_lignum>
291

> <i_i_glide_rotatable_bonds>
3

> <r_i_docking_score>
-4.86595

> <r_i_glide_ligand_efficiency>
-0.187152

> <r_i_glide_ligand_efficiency_sa>
-0.554437

> <r_i_glide_ligand_efficiency_ln>
-1.14275

> <r_glide_XP_GScore>
-4.86625

> <r_i_glide_gscore>
-4.86625

> <r_i_glide_evdw>
-31.1071

> <r_i_glide_ecoul>
-4.41845

> <r_i_glide_energy>
-35.5255

> <r_i_glide_einternal>
1.97644

> <r_i_glide_emodel>
-42.7016

> <r_glide_XP_HBond>
-1.145

> <i_i_glide_confnum>
1

> <i_i_glide_posenum>
12

> <r_i_glide_eff_state_penalty>
0.0003

> <i_glide_XP_PoseRank>
1

$$$$
BACE_143.smi:1
                    3D
 Structure written by MMmdl.
 61 61  0  0  1  0            999 V2000
   15.3232   38.3241   -9.2287 C   0  0  0  0  0  0
   16.1004   39.5585   -8.7803 C   0  0  2  0  0  0
   16.9624   39.1624   -7.5641 C   0  0  0  0  0  0
   18.1000   38.1740   -7.8915 C   0  0  0  0  0  0
   19.2190   38.8062   -8.7403 C   0  0  0  0  0  0
   20.4961   37.9479   -8.8275 C   0  0  0  0  0  0
   21.6205   38.5727   -9.6882 C   0  0  0  0  0  0
   22.0108   40.0235   -9.3260 C   0  0  0  0  0  0
   22.6000   40.1985   -7.9070 C   0  0  0  0  0  0
   22.4392   41.6303   -7.3386 C   0  0  0  0  0  0
   21.0097   41.9508   -6.8825 C   0  0  0  0  0  0
   20.5222   41.3237   -5.9565 O   0  0  0  0  0  0
   20.3685   42.9241   -7.5451 N   0  0  0  0  0  0
   21.0685   43.5636   -8.6409 C   0  0  0  0  0  0
   18.9520   43.2678   -7.2860 C   0  0  1  0  0  0
   18.8133   44.7874   -7.3022 C   0  0  0  0  0  0
   18.0041   42.7078   -8.3724 C   0  0  0  0  0  0
   18.3896   42.4714   -9.5055 O   0  0  0  0  0  0
   16.7250   42.5570   -7.9993 N   0  0  0  0  0  0
   15.6111   42.1246   -8.8483 C   0  0  1  0  0  0
   15.1069   40.7081   -8.4943 C   0  0  0  0  0  0
   14.4643   43.1116   -8.6499 C   0  0  2  0  0  0
   13.4207   42.8420   -9.5688 O   0  0  0  0  0  0
   14.8897   44.5842   -8.8341 C   0  0  0  0  0  0
   14.5232   45.3495   -7.7045 O   0  0  0  0  0  0
   16.7258   39.8297   -9.6309 H   0  0  0  0  0  0
   18.6154   42.9501   -6.2992 H   0  0  0  0  0  0
   15.8547   42.1760   -9.9095 H   0  0  0  0  0  0
   14.0661   42.9967   -7.6407 H   0  0  0  0  0  0
   15.9852   37.4831   -9.4334 H   0  0  0  0  0  0
   14.7646   38.5065  -10.1460 H   0  0  0  0  0  0
   14.6114   38.0009   -8.4682 H   0  0  0  0  0  0
   17.3896   40.0494   -7.0964 H   0  0  0  0  0  0
   16.3154   38.7210   -6.8060 H   0  0  0  0  0  0
   17.7040   37.2874   -8.3867 H   0  0  0  0  0  0
   18.5258   37.8256   -6.9506 H   0  0  0  0  0  0
   18.8270   38.9660   -9.7447 H   0  0  0  0  0  0
   19.4716   39.7933   -8.3533 H   0  0  0  0  0  0
   20.2442   36.9699   -9.2375 H   0  0  0  0  0  0
   20.8684   37.7500   -7.8223 H   0  0  0  0  0  0
   22.5044   37.9368   -9.6400 H   0  0  0  0  0  0
   21.3071   38.5537  -10.7320 H   0  0  0  0  0  0
   21.1341   40.6642   -9.4205 H   0  0  0  0  0  0
   22.7024   40.4002  -10.0795 H   0  0  0  0  0  0
   22.1592   39.4889   -7.2069 H   0  0  0  0  0  0
   23.6576   39.9367   -7.9377 H   0  0  0  0  0  0
   22.7938   42.3665   -8.0601 H   0  0  0  0  0  0
   23.0796   41.7527   -6.4651 H   0  0  0  0  0  0
   20.5461   44.4283   -9.0456 H   0  0  0  0  0  0
   21.2270   42.8686   -9.4663 H   0  0  0  0  0  0
   22.0353   43.9504   -8.3159 H   0  0  0  0  0  0
   17.7654   45.0901   -7.2836 H   0  0  0  0  0  0
   19.2678   45.2301   -8.1892 H   0  0  0  0  0  0
   19.2909   45.2369   -6.4309 H   0  0  0  0  0  0
   16.4984   42.7967   -7.0447 H   0  0  0  0  0  0
   14.7569   40.6733   -7.4627 H   0  0  0  0  0  0
   14.2143   40.5337   -9.0952 H   0  0  0  0  0  0
   12.9743   42.0560   -9.2933 H   0  0  0  0  0  0
   15.9730   44.6612   -8.9304 H   0  0  0  0  0  0
   14.4557   45.0257   -9.7319 H   0  0  0  0  0  0
   14.9629   44.9951   -6.9468 H   0  0  0  0  0  0
  1  2  1  0  0  0
  1 30  1  0  0  0
  1 31  1  0  0  0
  1 32  1  0  0  0
  2 26  1  0  0  0
  2 21  1  0  0  0
  2  3  1  0  0  0
  3  4  1  0  0  0
  3 33  1  0  0  0
  3 34  1  0  0  0
  4  5  1  0  0  0
  4 35  1  0  0  0
  4 36  1  0  0  0
  5  6  1  0  0  0
  5 37  1  0  0  0
  5 38  1  0  0  0
  6  7  1  0  0  0
  6 39  1  0  0  0
  6 40  1  0  0  0
  7  8  1  0  0  0
  7 41  1  0  0  0
  7 42  1  0  0  0
  8  9  1  0  0  0
  8 43  1  0  0  0
  8 44  1  0  0  0
  9 10  1  0  0  0
  9 45  1  0  0  0
  9 46  1  0  0  0
 10 11  1  0  0  0
 10 47  1  0  0  0
 10 48  1  0  0  0
 11 12  2  0  0  0
 11 13  1  0  0  0
 13 14  1  0  0  0
 13 15  1  0  0  0
 14 49  1  0  0  0
 14 50  1  0  0  0
 14 51  1  0  0  0
 15 27  1  0  0  0
 15 16  1  0  0  0
 15 17  1  0  0  0
 16 52  1  0  0  0
 16 53  1  0  0  0
 16 54  1  0  0  0
 17 18  2  0  0  0
 17 19  1  0  0  0
 19 20  1  0  0  0
 19 55  1  0  0  0
 20 28  1  0  0  0
 20 21  1  0  0  0
 20 22  1  0  0  0
 21 56  1  0  0  0
 21 57  1  0  0  0
 22 29  1  0  0  0
 22 23  1  0  0  0
 22 24  1  0  0  0
 23 58  1  0  0  0
 24 25  1  0  0  0
 24 59  1  0  0  0
 24 60  1  0  0  0
 25 61  1  0  0  0
M  END
> <s_m_source_file>
BACE_143.smi

> <i_m_source_file_index>
1

> <i_lp_mmshare_version>
42013

> <i_f3d_flags>
0

> <s_epik_input>
W0NIM11bQ0BASF0xW0NIMl1bQ0gyXVtDSDJdW0NIMl1bQ0gyXVtDSDJdW0NIMl1bQ0gyXUMoPU8pTihbQ0gzXSlbQ0BASF0oW0NIM10pQyg9TylbTkhdW0NAQEhdKFtDSDJdMSlbQ0BIXShbT0hdKVtDSDJdW09IXQ==

> <s_epik_cmdline>
J2VwaWtfcHl0aG9uJywgJy1waCcsICc3LjAnLCAnLXRuJywgJzgnLCAnLW1hJywgJzIwMCcsICctaW1hZScsICc8aW5maWxlLm1hZT4nLCAnLW9tYWUnLCAnPG91dGZpbGUubWFlPic=

> <r_lp_tautomer_probability>
1

> <r_epik_Ionization_Penalty>
  0.0000

> <r_epik_Ionization_Penalty_Charging>
  0.0000

> <r_epik_Ionization_Penalty_Neutral>
  0.0000

> <r_epik_State_Penalty>
 -0.0000

> <r_epik_Charging_Adjusted_Penalty>
0

> <i_epik_Tot_Q>
0

> <i_epik_Tot_abs_Q>
0

> <s_lp_Force_Field>
OPLS_2005

> <r_lp_Energy>
36.4339

> <b_lp_Chiralities_Consistent>
1

> <s_lp_Variant>
BACE_143.smi:1-1

> <chiral flag>
1

> <version>
0

> <s_i_glide_gridfile>
second_dock_grid_2

> <i_i_glide_lignum>
292

> <i_i_glide_rotatable_bonds>
4

> <r_i_docking_score>
-4.34653

> <r_i_glide_ligand_efficiency>
-0.173861

> <r_i_glide_ligand_efficiency_sa>
-0.508373

> <r_i_glide_ligand_efficiency_ln>
-1.03026

> <r_glide_XP_GScore>
-4.34653

> <r_i_glide_gscore>
-4.34653

> <r_i_glide_evdw>
-23.4155

> <r_i_glide_ecoul>
-9.07635

> <r_i_glide_energy>
-32.4919

> <r_i_glide_einternal>
5.53978

> <r_i_glide_emodel>
-42.0726

> <r_glide_XP_HBond>
-1.23859

> <i_i_glide_confnum>
1

> <i_i_glide_posenum>
9

> <r_i_glide_eff_state_penalty>
-0

> <i_glide_XP_PoseRank>
1

$$$$
BACE_144.smi:1
                    3D
 Structure written by MMmdl.
 88 92  0  0  1  0            999 V2000
   12.0600   48.8840  -13.5790 C   0  0  0  0  0  0
   13.3633   48.4581  -13.2401 O   0  0  0  0  0  0
   13.4942   47.0490  -13.1765 C   0  0  0  0  0  0
   14.9131   46.6276  -12.8406 C   0  0  0  0  0  0
   16.0005   47.4707  -13.1573 C   0  0  0  0  0  0
   17.3252   47.0562  -12.9184 C   0  0  0  0  0  0
   17.5604   45.7639  -12.4027 C   0  0  0  0  0  0
   16.4831   44.9117  -12.0841 C   0  0  0  0  0  0
   15.1564   45.3578  -12.2795 C   0  0  0  0  0  0
   16.7800   43.5598  -11.5615 C   0  0  0  0  0  0
   17.7869   42.9264  -11.8740 O   0  0  0  0  0  0
   15.8294   43.1377  -10.7008 O   0  0  0  0  0  0
   16.0558   42.1640   -9.6783 C   0  0  1  0  0  0
   16.5715   40.7802  -10.1403 C   0  0  0  0  0  0
   16.5277   39.8747   -8.9965 N   0  0  0  0  0  0
   17.4382   38.7403   -9.0143 C   0  0  0  0  0  0
   16.9844   37.4440   -9.6398 C   0  0  0  0  0  0
   16.9740   37.6045   -8.1426 C   0  0  0  0  0  0
   18.8930   39.1257   -8.9496 C   0  0  0  0  0  0
   19.5937   39.4792  -10.1236 C   0  0  0  0  0  0
   20.9210   39.9598  -10.0670 C   0  0  0  0  0  0
   21.5825   39.9882   -8.8205 C   0  0  0  0  0  0
   20.9122   39.5936   -7.6478 C   0  0  0  0  0  0
   19.5673   39.1836   -7.7104 C   0  0  0  0  0  0
   21.6419   40.5090  -11.2984 C   0  0  0  0  0  0
   21.0593   40.0342  -12.6427 C   0  0  0  0  0  0
   21.6841   42.0444  -11.2563 C   0  0  0  0  0  0
   16.8486   42.7997   -8.4988 C   0  0  1  0  0  0
   16.4599   42.1499   -7.2400 N   0  3  0  0  0  0
   18.3928   42.8058   -8.6204 C   0  0  0  0  0  0
   19.0254   43.9243   -7.8150 C   0  0  0  0  0  0
   19.1331   45.2084   -8.3870 C   0  0  0  0  0  0
   19.7075   46.2695   -7.6563 C   0  0  0  0  0  0
   20.1504   46.0476   -6.3372 C   0  0  0  0  0  0
   20.0626   44.7612   -5.7689 C   0  0  0  0  0  0
   19.5070   43.6988   -6.5090 C   0  0  0  0  0  0
   19.8131   47.5205   -8.2061 O   0  0  0  0  0  0
   20.7299   47.6092   -9.2910 C   0  0  0  0  0  0
   20.4323   48.8768  -10.1044 C   0  0  0  0  0  0
   19.2100   48.7429  -11.0303 C   0  0  0  0  0  0
   19.5271   48.0027  -12.3433 C   0  0  0  0  0  0
   18.3712   47.9351  -13.2299 N   0  0  0  0  0  0
   15.0447   41.9915   -9.3056 H   0  0  0  0  0  0
   16.5116   43.8338   -8.4117 H   0  0  0  0  0  0
   12.0602   49.9712  -13.6314 H   0  0  0  0  0  0
   11.3410   48.5735  -12.8196 H   0  0  0  0  0  0
   11.7488   48.4953  -14.5488 H   0  0  0  0  0  0
   13.2241   46.6093  -14.1382 H   0  0  0  0  0  0
   12.8068   46.6463  -12.4317 H   0  0  0  0  0  0
   15.8186   48.4428  -13.5914 H   0  0  0  0  0  0
   18.5707   45.4134  -12.2522 H   0  0  0  0  0  0
   14.3214   44.7080  -12.0559 H   0  0  0  0  0  0
   17.5801   40.8882  -10.5213 H   0  0  0  0  0  0
   15.9616   40.3747  -10.9489 H   0  0  0  0  0  0
   15.5857   39.5542   -8.8089 H   0  0  0  0  0  0
   16.0099   37.4028  -10.1200 H   0  0  0  0  0  0
   17.7449   36.7785  -10.0401 H   0  0  0  0  0  0
   17.7080   37.0217   -7.5897 H   0  0  0  0  0  0
   16.0165   37.7500   -7.6433 H   0  0  0  0  0  0
   19.0706   39.4248  -11.0659 H   0  0  0  0  0  0
   22.6029   40.3384   -8.7568 H   0  0  0  0  0  0
   21.4206   39.6289   -6.6954 H   0  0  0  0  0  0
   19.0509   38.9192   -6.7996 H   0  0  0  0  0  0
   22.6706   40.1515  -11.2399 H   0  0  0  0  0  0
   21.0454   38.9488  -12.7048 H   0  0  0  0  0  0
   21.6605   40.3990  -13.4734 H   0  0  0  0  0  0
   20.0442   40.3980  -12.8032 H   0  0  0  0  0  0
   22.1746   42.4045  -10.3526 H   0  0  0  0  0  0
   20.6801   42.4686  -11.2837 H   0  0  0  0  0  0
   22.2379   42.4432  -12.1071 H   0  0  0  0  0  0
   15.5427   42.4410   -6.9165 H   0  0  0  0  0  0
   16.4703   41.1456   -7.3774 H   0  0  0  0  0  0
   18.8110   41.8500   -8.3070 H   0  0  0  0  0  0
   18.7263   42.9357   -9.6436 H   0  0  0  0  0  0
   18.7699   45.3851   -9.3889 H   0  0  0  0  0  0
   20.5819   46.8590   -5.7695 H   0  0  0  0  0  0
   20.4258   44.5852   -4.7671 H   0  0  0  0  0  0
   19.4487   42.7145   -6.0658 H   0  0  0  0  0  0
   21.7366   47.6704   -8.8737 H   0  0  0  0  0  0
   20.7104   46.7301   -9.9368 H   0  0  0  0  0  0
   20.2765   49.7064   -9.4139 H   0  0  0  0  0  0
   21.3059   49.1442  -10.6999 H   0  0  0  0  0  0
   18.3960   48.2501  -10.4968 H   0  0  0  0  0  0
   18.8499   49.7425  -11.2764 H   0  0  0  0  0  0
   20.3140   48.5370  -12.8760 H   0  0  0  0  0  0
   19.9318   47.0123  -12.1462 H   0  0  0  0  0  0
   18.1115   48.8064  -13.6710 H   0  0  0  0  0  0
   17.1198   42.3618   -6.5015 H   0  0  0  0  0  0
  1  2  1  0  0  0
  1 45  1  0  0  0
  1 46  1  0  0  0
  1 47  1  0  0  0
  2  3  1  0  0  0
  3  4  1  0  0  0
  3 48  1  0  0  0
  3 49  1  0  0  0
  4  9  1  0  0  0
  4  5  2  0  0  0
  5  6  1  0  0  0
  5 50  1  0  0  0
  6 42  1  0  0  0
  6  7  2  0  0  0
  7  8  1  0  0  0
  7 51  1  0  0  0
  8  9  2  0  0  0
  8 10  1  0  0  0
  9 52  1  0  0  0
 10 11  2  0  0  0
 10 12  1  0  0  0
 12 13  1  0  0  0
 13 43  1  0  0  0
 13 14  1  0  0  0
 13 28  1  0  0  0
 14 15  1  0  0  0
 14 53  1  0  0  0
 14 54  1  0  0  0
 15 16  1  0  0  0
 15 55  1  0  0  0
 16 18  1  0  0  0
 16 17  1  0  0  0
 16 19  1  0  0  0
 17 18  1  0  0  0
 17 56  1  0  0  0
 17 57  1  0  0  0
 18 58  1  0  0  0
 18 59  1  0  0  0
 19 24  1  0  0  0
 19 20  2  0  0  0
 20 21  1  0  0  0
 20 60  1  0  0  0
 21 22  2  0  0  0
 21 25  1  0  0  0
 22 23  1  0  0  0
 22 61  1  0  0  0
 23 24  2  0  0  0
 23 62  1  0  0  0
 24 63  1  0  0  0
 25 26  1  0  0  0
 25 27  1  0  0  0
 25 64  1  0  0  0
 26 65  1  0  0  0
 26 66  1  0  0  0
 26 67  1  0  0  0
 27 68  1  0  0  0
 27 69  1  0  0  0
 27 70  1  0  0  0
 28 44  1  0  0  0
 28 29  1  0  0  0
 28 30  1  0  0  0
 29 71  1  0  0  0
 29 72  1  0  0  0
 29 88  1  0  0  0
 30 31  1  0  0  0
 30 73  1  0  0  0
 30 74  1  0  0  0
 31 36  1  0  0  0
 31 32  2  0  0  0
 32 33  1  0  0  0
 32 75  1  0  0  0
 33 34  2  0  0  0
 33 37  1  0  0  0
 34 35  1  0  0  0
 34 76  1  0  0  0
 35 36  2  0  0  0
 35 77  1  0  0  0
 36 78  1  0  0  0
 37 38  1  0  0  0
 38 39  1  0  0  0
 38 79  1  0  0  0
 38 80  1  0  0  0
 39 40  1  0  0  0
 39 81  1  0  0  0
 39 82  1  0  0  0
 40 41  1  0  0  0
 40 83  1  0  0  0
 40 84  1  0  0  0
 41 42  1  0  0  0
 41 85  1  0  0  0
 41 86  1  0  0  0
 42 87  1  0  0  0
M  CHG  1  29   1
M  END
> <s_m_source_file>
BACE_144.smi

> <i_m_source_file_index>
1

> <i_lp_mmshare_version>
42013

> <i_f3d_flags>
0

> <s_epik_input>
W2NIXTFbY0hdW2NIXWMoW0NIXShbQ0gzXSlbQ0gzXSlbY0hdYzFDMihbQ0gyXVtDSDJdMilbTkhdW0NIMl1bQ0BIXShPQyg9TyljKFtjSF0zKVtjSF1jKFtjSF1jMzQpW0NIMl1PW0NIM10pW0NAQEhdKFtOSDJdKVtDSDJdYzVbY0hdYyhbY0hdW2NIXVtjSF01KU9bQ0gyXVtDSDJdW0NIMl1bQ0gyXVtOSF00

> <s_epik_cmdline>
J2VwaWtfcHl0aG9uJywgJy1waCcsICc3LjAnLCAnLXRuJywgJzgnLCAnLW1hJywgJzIwMCcsICctaW1hZScsICc8aW5maWxlLm1hZT4nLCAnLW9tYWUnLCAnPG91dGZpbGUubWFlPic=

> <r_lp_tautomer_probability>
1

> <r_epik_Ionization_Penalty>
  0.0450

> <r_epik_Ionization_Penalty_Charging>
  0.0151

> <r_epik_Ionization_Penalty_Neutral>
  0.0299

> <r_epik_State_Penalty>
  0.0357

> <r_epik_Charging_Adjusted_Penalty>
0.0508324

> <i_epik_Tot_Q>
1

> <i_epik_Tot_abs_Q>
1

> <s_epik_Chemistry_Notes>
This compound has an ester and may undergo hydrolysis at high or low pH.

> <s_lp_Force_Field>
OPLS_2005

> <r_lp_Energy>
38.2212

> <b_lp_Chiralities_Consistent>
1

> <s_lp_Variant>
BACE_144.smi:1-1

> <chiral flag>
1

> <version>
0

> <s_i_glide_gridfile>
second_dock_grid_2

> <i_i_glide_lignum>
293

> <i_i_glide_rotatable_bonds>
7

> <r_i_docking_score>
-3.98773

> <r_i_glide_ligand_efficiency>
-0.094946

> <r_i_glide_ligand_efficiency_sa>
-0.330035

> <r_i_glide_ligand_efficiency_ln>
-0.841707

> <r_glide_XP_GScore>
-4.02343

> <r_i_glide_gscore>
-4.02343

> <r_i_glide_evdw>
-39.1766

> <r_i_glide_ecoul>
-11.9991

> <r_i_glide_energy>
-51.1757

> <r_i_glide_einternal>
1.70593

> <r_i_glide_emodel>
-69.7118

> <r_glide_XP_HBond>
-0.35

> <i_i_glide_confnum>
1

> <i_i_glide_posenum>
2

> <r_i_glide_eff_state_penalty>
0.0357

> <i_glide_XP_PoseRank>
1

$$$$
BACE_144.smi:1
                    3D
 Structure written by MMmdl.
 89 93  0  0  1  0            999 V2000
   24.5887   41.3681   -9.8666 C   0  0  0  0  0  0
   23.6223   42.3992   -9.7578 O   0  0  0  0  0  0
   22.3587   42.0658  -10.3169 C   0  0  0  0  0  0
   21.3193   43.1155   -9.9692 C   0  0  0  0  0  0
   21.6654   44.4782  -10.0617 C   0  0  0  0  0  0
   20.7451   45.4826   -9.7109 C   0  0  0  0  0  0
   19.4628   45.1054   -9.2523 C   0  0  0  0  0  0
   19.0918   43.7441   -9.1682 C   0  0  0  0  0  0
   20.0239   42.7475   -9.5418 C   0  0  0  0  0  0
   17.7346   43.4147   -8.6620 C   0  0  0  0  0  0
   17.1181   44.1545   -7.8982 O   0  0  0  0  0  0
   17.2472   42.2591   -9.1691 O   0  0  0  0  0  0
   15.9127   41.7797   -8.9525 C   0  0  1  0  0  0
   15.5136   41.5021   -7.4683 C   0  0  0  0  0  0
   15.7242   40.1183   -6.9632 N   0  3  0  0  0  0
   15.9325   39.0523   -7.9735 C   0  0  0  0  0  0
   15.1526   37.8130   -7.7240 C   0  0  0  0  0  0
   14.6914   38.7386   -8.8054 C   0  0  0  0  0  0
   17.3421   38.9671   -8.4978 C   0  0  0  0  0  0
   18.4191   38.9255   -7.5883 C   0  0  0  0  0  0
   19.7575   38.9342   -8.0366 C   0  0  0  0  0  0
   20.0099   38.9179   -9.4293 C   0  0  0  0  0  0
   18.9449   38.9158  -10.3464 C   0  0  0  0  0  0
   17.6197   38.9458   -9.8832 C   0  0  0  0  0  0
   20.8831   38.9539   -7.0016 C   0  0  0  0  0  0
   22.2888   38.9876   -7.6149 C   0  0  0  0  0  0
   20.7312   40.1214   -6.0088 C   0  0  0  0  0  0
   14.8246   42.4097   -9.8669 C   0  0  1  0  0  0
   13.6601   41.5062  -10.0401 N   0  3  0  0  0  0
   14.3408   43.8318   -9.5261 C   0  0  0  0  0  0
   14.4221   44.7530  -10.7318 C   0  0  0  0  0  0
   15.5697   45.5508  -10.9381 C   0  0  0  0  0  0
   15.6170   46.4597  -12.0171 C   0  0  0  0  0  0
   14.5167   46.5564  -12.8895 C   0  0  0  0  0  0
   13.3791   45.7488  -12.7037 C   0  0  0  0  0  0
   13.3348   44.8412  -11.6296 C   0  0  0  0  0  0
   16.7165   47.2402  -12.2658 O   0  0  0  0  0  0
   17.0893   48.1263  -11.2191 C   0  0  0  0  0  0
   18.4034   48.8139  -11.6146 C   0  0  0  0  0  0
   19.6217   47.8921  -11.4582 C   0  0  0  0  0  0
   20.1687   47.8763  -10.0200 C   0  0  0  0  0  0
   21.1517   46.8214   -9.8191 N   0  0  0  0  0  0
   15.9898   40.8322   -9.4621 H   0  0  0  0  0  0
   15.2884   42.4482  -10.8528 H   0  0  0  0  0  0
   25.5691   41.7561   -9.5915 H   0  0  0  0  0  0
   24.6575   40.9763  -10.8777 H   0  0  0  0  0  0
   24.3591   40.5458   -9.1931 H   0  0  0  0  0  0
   22.0261   41.0908   -9.9667 H   0  0  0  0  0  0
   22.4458   42.0023  -11.4026 H   0  0  0  0  0  0
   22.6577   44.7472  -10.3968 H   0  0  0  0  0  0
   18.7471   45.8554   -8.9548 H   0  0  0  0  0  0
   19.7655   41.7016   -9.4656 H   0  0  0  0  0  0
   14.4600   41.7333   -7.3186 H   0  0  0  0  0  0
   16.0592   42.1498   -6.7886 H   0  0  0  0  0  0
   14.9540   39.8706   -6.3506 H   0  0  0  0  0  0
   15.6600   36.9014   -8.0400 H   0  0  0  0  0  0
   14.5056   37.7498   -6.8475 H   0  0  0  0  0  0
   13.7451   39.2319   -8.5882 H   0  0  0  0  0  0
   14.8012   38.3677   -9.8217 H   0  0  0  0  0  0
   18.2152   38.9057   -6.5287 H   0  0  0  0  0  0
   21.0149   38.9066   -9.8233 H   0  0  0  0  0  0
   19.1460   38.8996  -11.4081 H   0  0  0  0  0  0
   16.8224   38.9561  -10.6105 H   0  0  0  0  0  0
   20.7946   38.0234   -6.4405 H   0  0  0  0  0  0
   22.4600   38.1499   -8.2893 H   0  0  0  0  0  0
   23.0487   38.9501   -6.8400 H   0  0  0  0  0  0
   22.4475   39.9103   -8.1646 H   0  0  0  0  0  0
   19.8021   40.0605   -5.4425 H   0  0  0  0  0  0
   20.7429   41.0839   -6.5229 H   0  0  0  0  0  0
   21.5427   40.1232   -5.2803 H   0  0  0  0  0  0
   13.1391   41.3750   -9.1702 H   0  0  0  0  0  0
   13.0190   41.8928  -10.7163 H   0  0  0  0  0  0
   14.8940   44.2758   -8.7061 H   0  0  0  0  0  0
   13.3115   43.8139   -9.1641 H   0  0  0  0  0  0
   16.4103   45.4762  -10.2649 H   0  0  0  0  0  0
   14.5515   47.2521  -13.7160 H   0  0  0  0  0  0
   12.5431   45.8249  -13.3848 H   0  0  0  0  0  0
   12.4552   44.2309  -11.4870 H   0  0  0  0  0  0
   16.3074   48.8769  -11.1037 H   0  0  0  0  0  0
   17.1952   47.6185  -10.2595 H   0  0  0  0  0  0
   18.5480   49.7140  -11.0161 H   0  0  0  0  0  0
   18.3271   49.1493  -12.6497 H   0  0  0  0  0  0
   20.4165   48.2266  -12.1265 H   0  0  0  0  0  0
   19.3582   46.8853  -11.7871 H   0  0  0  0  0  0
   19.3650   47.7995   -9.2918 H   0  0  0  0  0  0
   20.6520   48.8311   -9.8112 H   0  0  0  0  0  0
   22.0869   46.9959  -10.1637 H   0  0  0  0  0  0
   13.9435   40.5916  -10.3640 H   0  0  0  0  0  0
   16.5510   40.1325   -6.3793 H   0  0  0  0  0  0
  1  2  1  0  0  0
  1 45  1  0  0  0
  1 46  1  0  0  0
  1 47  1  0  0  0
  2  3  1  0  0  0
  3  4  1  0  0  0
  3 48  1  0  0  0
  3 49  1  0  0  0
  4  9  1  0  0  0
  4  5  2  0  0  0
  5  6  1  0  0  0
  5 50  1  0  0  0
  6 42  1  0  0  0
  6  7  2  0  0  0
  7  8  1  0  0  0
  7 51  1  0  0  0
  8  9  2  0  0  0
  8 10  1  0  0  0
  9 52  1  0  0  0
 10 11  2  0  0  0
 10 12  1  0  0  0
 12 13  1  0  0  0
 13 43  1  0  0  0
 13 14  1  0  0  0
 13 28  1  0  0  0
 14 15  1  0  0  0
 14 53  1  0  0  0
 14 54  1  0  0  0
 15 16  1  0  0  0
 15 55  1  0  0  0
 15 89  1  0  0  0
 16 18  1  0  0  0
 16 17  1  0  0  0
 16 19  1  0  0  0
 17 18  1  0  0  0
 17 56  1  0  0  0
 17 57  1  0  0  0
 18 58  1  0  0  0
 18 59  1  0  0  0
 19 24  1  0  0  0
 19 20  2  0  0  0
 20 21  1  0  0  0
 20 60  1  0  0  0
 21 22  2  0  0  0
 21 25  1  0  0  0
 22 23  1  0  0  0
 22 61  1  0  0  0
 23 24  2  0  0  0
 23 62  1  0  0  0
 24 63  1  0  0  0
 25 26  1  0  0  0
 25 27  1  0  0  0
 25 64  1  0  0  0
 26 65  1  0  0  0
 26 66  1  0  0  0
 26 67  1  0  0  0
 27 68  1  0  0  0
 27 69  1  0  0  0
 27 70  1  0  0  0
 28 44  1  0  0  0
 28 29  1  0  0  0
 28 30  1  0  0  0
 29 71  1  0  0  0
 29 72  1  0  0  0
 29 88  1  0  0  0
 30 31  1  0  0  0
 30 73  1  0  0  0
 30 74  1  0  0  0
 31 36  1  0  0  0
 31 32  2  0  0  0
 32 33  1  0  0  0
 32 75  1  0  0  0
 33 34  2  0  0  0
 33 37  1  0  0  0
 34 35  1  0  0  0
 34 76  1  0  0  0
 35 36  2  0  0  0
 35 77  1  0  0  0
 36 78  1  0  0  0
 37 38  1  0  0  0
 38 39  1  0  0  0
 38 79  1  0  0  0
 38 80  1  0  0  0
 39 40  1  0  0  0
 39 81  1  0  0  0
 39 82  1  0  0  0
 40 41  1  0  0  0
 40 83  1  0  0  0
 40 84  1  0  0  0
 41 42  1  0  0  0
 41 85  1  0  0  0
 41 86  1  0  0  0
 42 87  1  0  0  0
M  CHG  2  15   1  29   1
M  END
> <s_m_source_file>
BACE_144.smi

> <i_m_source_file_index>
1

> <i_lp_mmshare_version>
42013

> <i_f3d_flags>
0

> <s_epik_input>
W2NIXTFbY0hdW2NIXWMoW0NIXShbQ0gzXSlbQ0gzXSlbY0hdYzFDMihbQ0gyXVtDSDJdMilbTkhdW0NIMl1bQ0BIXShPQyg9TyljKFtjSF0zKVtjSF1jKFtjSF1jMzQpW0NIMl1PW0NIM10pW0NAQEhdKFtOSDJdKVtDSDJdYzVbY0hdYyhbY0hdW2NIXVtjSF01KU9bQ0gyXVtDSDJdW0NIMl1bQ0gyXVtOSF00

> <s_epik_cmdline>
J2VwaWtfcHl0aG9uJywgJy1waCcsICc3LjAnLCAnLXRuJywgJzgnLCAnLW1hJywgJzIwMCcsICctaW1hZScsICc8aW5maWxlLm1hZT4nLCAnLW9tYWUnLCAnPG91dGZpbGUubWFlPic=

> <r_lp_tautomer_probability>
1

> <r_epik_Ionization_Penalty>
  1.9371

> <r_epik_Ionization_Penalty_Charging>
  1.9369

> <r_epik_Ionization_Penalty_Neutral>
  0.0002

> <r_epik_State_Penalty>
  1.9145

> <r_epik_Charging_Adjusted_Penalty>
3.85135

> <i_epik_Tot_Q>
2

> <i_epik_Tot_abs_Q>
2

> <s_epik_Chemistry_Notes>
This compound has an ester and may undergo hydrolysis at high or low pH.

> <s_lp_Force_Field>
OPLS_2005

> <r_lp_Energy>
46.1328

> <b_lp_Chiralities_Consistent>
1

> <s_lp_Variant>
BACE_144.smi:1-2

> <chiral flag>
1

> <version>
0

> <s_i_glide_gridfile>
second_dock_grid_2

> <i_i_glide_lignum>
294

> <i_i_glide_rotatable_bonds>
7

> <r_i_docking_score>
-2.95691

> <r_i_glide_ligand_efficiency>
-0.0704027

> <r_i_glide_ligand_efficiency_sa>
-0.244721

> <r_i_glide_ligand_efficiency_ln>
-0.624128

> <r_glide_XP_GScore>
-4.87141

> <r_i_glide_gscore>
-4.87141

> <r_i_glide_evdw>
-34.2676

> <r_i_glide_ecoul>
-18.0514

> <r_i_glide_energy>
-52.319

> <r_i_glide_einternal>
4.78135

> <r_i_glide_emodel>
-70.1009

> <r_glide_XP_HBond>
0

> <i_i_glide_confnum>
1

> <i_i_glide_posenum>
2

> <r_i_glide_eff_state_penalty>
1.9145

> <i_glide_XP_PoseRank>
1

$$$$
