BACE_111.smi:1
                    3D
 Structure written by MMmdl.
 88 92  0  0  1  0            999 V2000
   30.5063   41.7497  -14.0630 C   0  0  0  0  0  0
   29.9722   42.2097  -12.6966 C   0  0  0  0  0  0
   31.0918   42.7731  -11.8054 C   0  0  0  0  0  0
   28.8370   43.2144  -12.8551 C   0  0  0  0  0  0
   27.5689   42.9520  -12.2939 C   0  0  0  0  0  0
   26.5053   43.8654  -12.4649 C   0  0  0  0  0  0
   26.7116   45.0537  -13.2128 C   0  0  0  0  0  0
   27.9809   45.3141  -13.7643 C   0  0  0  0  0  0
   29.0397   44.4078  -13.5775 C   0  0  0  0  0  0
   25.7120   45.9655  -13.4703 O   0  0  0  0  0  0
   24.5455   45.9388  -12.6485 C   0  0  0  0  0  0
   23.4765   46.7300  -13.4187 C   0  0  0  0  0  0
   24.8582   46.6590  -11.3196 C   0  0  0  0  0  0
   24.0667   44.4853  -12.4486 C   0  0  0  0  0  0
   25.1433   43.5481  -11.8707 C   0  0  2  0  0  0
   25.2103   43.5417  -10.4015 N   0  0  0  0  0  0
   24.0038   43.1454   -9.6700 C   0  0  0  0  0  0
   23.6341   41.6582   -9.8640 C   0  0  1  0  0  0
   24.6894   40.9502   -9.2494 O   0  0  0  0  0  0
   22.2719   41.2578   -9.2166 C   0  0  2  0  0  0
   22.0664   39.7187   -9.1205 C   0  0  0  0  0  0
   20.7169   39.2744   -8.5480 C   0  0  0  0  0  0
   19.7310   38.6857   -9.3750 C   0  0  0  0  0  0
   18.4951   38.2456   -8.8433 C   0  0  0  0  0  0
   18.2564   38.3955   -7.4567 C   0  0  0  0  0  0
   19.2347   38.9779   -6.6289 C   0  0  0  0  0  0
   20.4603   39.4130   -7.1703 C   0  0  0  0  0  0
   17.5931   37.6957   -9.7324 O   0  0  0  0  0  0
   16.2916   37.2886   -9.3034 C   0  0  0  0  0  0
   15.2800   38.4313   -9.0454 C   0  0  0  0  0  0
   15.0699   39.4408  -10.1933 C   0  0  0  0  0  0
   16.2736   40.3616  -10.3476 C   0  0  0  0  0  0
   16.0742   41.4496  -11.2408 O   0  0  0  0  0  0
   17.1220   42.3491  -11.2958 C   0  0  0  0  0  0
   18.3438   42.1665  -10.6034 C   0  0  0  0  0  0
   19.3143   43.1769  -10.6290 C   0  0  0  0  0  0
   19.0418   44.3435  -11.3664 C   0  0  0  0  0  0
   17.8137   44.4272  -12.0542 C   0  0  0  0  0  0
   17.4796   45.6760  -12.8371 C   0  0  0  0  0  0
   16.8742   43.4524  -12.0393 N   0  0  0  0  0  0
   20.5650   43.0122   -9.8229 C   0  0  0  0  0  0
   20.9716   43.9077   -9.0862 O   0  0  0  0  0  0
   21.1529   41.8131   -9.9744 N   0  0  0  0  0  0
   24.8851   42.5490  -12.2089 H   0  0  0  0  0  0
   23.6282   41.3940  -10.9206 H   0  0  0  0  0  0
   22.2401   41.6576   -8.2012 H   0  0  0  0  0  0
   29.6978   41.3500  -14.6794 H   0  0  0  0  0  0
   31.2532   40.9647  -13.9560 H   0  0  0  0  0  0
   30.9679   42.5658  -14.6177 H   0  0  0  0  0  0
   29.5673   41.3255  -12.1947 H   0  0  0  0  0  0
   30.7085   43.0420  -10.8210 H   0  0  0  0  0  0
   31.5400   43.6662  -12.2413 H   0  0  0  0  0  0
   31.8875   42.0423  -11.6650 H   0  0  0  0  0  0
   27.4004   42.0387  -11.7419 H   0  0  0  0  0  0
   28.1418   46.2163  -14.3344 H   0  0  0  0  0  0
   30.0040   44.6274  -14.0071 H   0  0  0  0  0  0
   22.5358   46.7668  -12.8674 H   0  0  0  0  0  0
   23.2691   46.2835  -14.3929 H   0  0  0  0  0  0
   23.7955   47.7564  -13.5972 H   0  0  0  0  0  0
   23.9958   46.6553  -10.6578 H   0  0  0  0  0  0
   25.1397   47.6963  -11.4939 H   0  0  0  0  0  0
   25.6826   46.1887  -10.7846 H   0  0  0  0  0  0
   23.8321   44.0915  -13.4382 H   0  0  0  0  0  0
   23.1196   44.4460  -11.9119 H   0  0  0  0  0  0
   25.9626   42.9188  -10.1134 H   0  0  0  0  0  0
   24.1508   43.3320   -8.6045 H   0  0  0  0  0  0
   23.1846   43.7932   -9.9567 H   0  0  0  0  0  0
   24.6437   40.0340   -9.5092 H   0  0  0  0  0  0
   22.8426   39.2750   -8.4948 H   0  0  0  0  0  0
   22.1979   39.2701  -10.1058 H   0  0  0  0  0  0
   19.9155   38.5681  -10.4330 H   0  0  0  0  0  0
   17.3324   38.0705   -7.0018 H   0  0  0  0  0  0
   19.0362   39.0938   -5.5712 H   0  0  0  0  0  0
   21.2012   39.8512   -6.5191 H   0  0  0  0  0  0
   15.8942   36.6562  -10.0947 H   0  0  0  0  0  0
   16.3626   36.6302   -8.4398 H   0  0  0  0  0  0
   15.5475   38.9671   -8.1353 H   0  0  0  0  0  0
   14.3135   37.9789   -8.8219 H   0  0  0  0  0  0
   14.1925   40.0453   -9.9658 H   0  0  0  0  0  0
   14.8617   38.9506  -11.1408 H   0  0  0  0  0  0
   16.5276   40.7408   -9.3576 H   0  0  0  0  0  0
   17.1091   39.7816  -10.7347 H   0  0  0  0  0  0
   18.5465   41.2909  -10.0050 H   0  0  0  0  0  0
   19.7507   45.1592  -11.3888 H   0  0  0  0  0  0
   17.5499   46.5524  -12.1926 H   0  0  0  0  0  0
   16.4675   45.6361  -13.2387 H   0  0  0  0  0  0
   18.1825   45.8020  -13.6636 H   0  0  0  0  0  0
   20.7089   41.1832  -10.6255 H   0  0  0  0  0  0
  1  2  1  0  0  0
  1 47  1  0  0  0
  1 48  1  0  0  0
  1 49  1  0  0  0
  2  3  1  0  0  0
  2  4  1  0  0  0
  2 50  1  0  0  0
  3 51  1  0  0  0
  3 52  1  0  0  0
  3 53  1  0  0  0
  4  9  1  0  0  0
  4  5  2  0  0  0
  5  6  1  0  0  0
  5 54  1  0  0  0
  6 15  1  0  0  0
  6  7  2  0  0  0
  7  8  1  0  0  0
  7 10  1  0  0  0
  8  9  2  0  0  0
  8 55  1  0  0  0
  9 56  1  0  0  0
 10 11  1  0  0  0
 11 12  1  0  0  0
 11 13  1  0  0  0
 11 14  1  0  0  0
 12 57  1  0  0  0
 12 58  1  0  0  0
 12 59  1  0  0  0
 13 60  1  0  0  0
 13 61  1  0  0  0
 13 62  1  0  0  0
 14 15  1  0  0  0
 14 63  1  0  0  0
 14 64  1  0  0  0
 15 44  1  0  0  0
 15 16  1  0  0  0
 16 17  1  0  0  0
 16 65  1  0  0  0
 17 18  1  0  0  0
 17 66  1  0  0  0
 17 67  1  0  0  0
 18 45  1  0  0  0
 18 19  1  0  0  0
 18 20  1  0  0  0
 19 68  1  0  0  0
 20 46  1  0  0  0
 20 43  1  0  0  0
 20 21  1  0  0  0
 21 22  1  0  0  0
 21 69  1  0  0  0
 21 70  1  0  0  0
 22 27  1  0  0  0
 22 23  2  0  0  0
 23 24  1  0  0  0
 23 71  1  0  0  0
 24 25  2  0  0  0
 24 28  1  0  0  0
 25 26  1  0  0  0
 25 72  1  0  0  0
 26 27  2  0  0  0
 26 73  1  0  0  0
 27 74  1  0  0  0
 28 29  1  0  0  0
 29 30  1  0  0  0
 29 75  1  0  0  0
 29 76  1  0  0  0
 30 31  1  0  0  0
 30 77  1  0  0  0
 30 78  1  0  0  0
 31 32  1  0  0  0
 31 79  1  0  0  0
 31 80  1  0  0  0
 32 33  1  0  0  0
 32 81  1  0  0  0
 32 82  1  0  0  0
 33 34  1  0  0  0
 34 40  1  0  0  0
 34 35  2  0  0  0
 35 36  1  0  0  0
 35 83  1  0  0  0
 36 37  2  0  0  0
 36 41  1  0  0  0
 37 38  1  0  0  0
 37 84  1  0  0  0
 38 39  1  0  0  0
 38 40  2  0  0  0
 39 85  1  0  0  0
 39 86  1  0  0  0
 39 87  1  0  0  0
 41 42  2  0  0  0
 41 43  1  0  0  0
 43 88  1  0  0  0
M  END
> <s_m_source_file>
BACE_111.smi

> <i_m_source_file_index>
1

> <i_lp_mmshare_version>
42013

> <i_f3d_flags>
0

> <s_epik_input>
W0NIM11bQ0hdKFtDSDNdKWMoW2NIXTEpW2NIXVtjSF1jKGMxMilPQyhbQ0gzXSkoW0NIM10pW0NIMl1bQ0BASF0yW05IXVtDSDJdW0NAQEhdKFtPSF0pW0NASF0oW0NIMl0zKVtOSF1DKD1PKWMoW2NIXWMobjQpW0NIM10pW2NIXWM0T1tDSDJdW0NIMl1bQ0gyXVtDSDJdT2MoW2NIXWMzNSlbY0hdW2NIXVtjSF01

> <s_epik_cmdline>
J2VwaWtfcHl0aG9uJywgJy1waCcsICc3LjAnLCAnLXRuJywgJzgnLCAnLW1hJywgJzIwMCcsICctaW1hZScsICc8aW5maWxlLm1hZT4nLCAnLW9tYWUnLCAnPG91dGZpbGUubWFlPic=

> <r_lp_tautomer_probability>
1

> <r_epik_Ionization_Penalty>
  1.9980

> <r_epik_Ionization_Penalty_Charging>
  0.0000

> <r_epik_Ionization_Penalty_Neutral>
  1.9980

> <r_epik_State_Penalty>
  2.1266

> <r_epik_Charging_Adjusted_Penalty>
2.12657

> <i_epik_Tot_Q>
0

> <i_epik_Tot_abs_Q>
0

> <s_lp_Force_Field>
OPLS_2005

> <r_lp_Energy>
33.5995

> <b_lp_Chiralities_Consistent>
1

> <s_lp_Variant>
BACE_111.smi:1-2

> <chiral flag>
1

> <version>
0

> <s_i_glide_gridfile>
second_dock_grid_2

> <i_i_glide_lignum>
227

> <i_i_glide_rotatable_bonds>
6

> <r_i_docking_score>
-0.750936

> <r_i_glide_ligand_efficiency>
-0.0174636

> <r_i_glide_ligand_efficiency_sa>
-0.061182

> <r_i_glide_ligand_efficiency_ln>
-0.15772

> <r_glide_XP_GScore>
-2.87754

> <r_i_glide_gscore>
-2.87754

> <r_i_glide_evdw>
-42.7299

> <r_i_glide_ecoul>
-10.638

> <r_i_glide_energy>
-53.3679

> <r_i_glide_einternal>
2.53572

> <r_i_glide_emodel>
-70.7728

> <r_glide_XP_HBond>
-1.33

> <i_i_glide_confnum>
1

> <i_i_glide_posenum>
3

> <r_i_glide_eff_state_penalty>
2.1266

> <i_glide_XP_PoseRank>
1

$$$$
BACE_112.smi:1
                    3D
 Structure written by MMmdl.
 85 90  0  0  1  0            999 V2000
   20.8836   40.0170  -12.6602 C   0  0  0  0  0  0
   21.4700   40.6031  -11.3648 C   0  0  0  0  0  0
   21.2961   42.1255  -11.3110 C   0  0  0  0  0  0
   20.9120   39.9389  -10.1132 C   0  0  0  0  0  0
   19.5203   39.8829   -9.8831 C   0  0  0  0  0  0
   19.0048   39.2696   -8.7220 C   0  0  0  0  0  0
   19.8969   38.7366   -7.7687 C   0  0  0  0  0  0
   21.2860   38.7932   -7.9866 C   0  0  0  0  0  0
   21.7920   39.3851   -9.1591 C   0  0  0  0  0  0
   17.5263   39.1720   -8.5173 C   0  0  0  0  0  0
   16.7088   38.4880   -9.6031 C   0  0  0  0  0  0
   16.9024   37.8152   -8.2691 C   0  0  0  0  0  0
   17.0231   40.3377   -7.7625 N   0  0  0  0  0  0
   15.5875   40.6262   -7.8271 C   0  0  0  0  0  0
   15.2107   41.4200   -9.1035 C   0  0  1  0  0  0
   14.0600   40.8034   -9.6401 O   0  0  0  0  0  0
   14.9886   42.9467   -8.8453 C   0  0  2  0  0  0
   13.5916   43.5356   -9.1970 C   0  0  0  0  0  0
   13.2447   43.7080  -10.6786 C   0  0  0  0  0  0
   13.6964   44.8251  -11.4151 C   0  0  0  0  0  0
   13.2788   45.0405  -12.7547 C   0  0  0  0  0  0
   12.4601   44.0708  -13.3687 C   0  0  0  0  0  0
   12.0134   42.9500  -12.6485 C   0  0  0  0  0  0
   12.3855   42.7837  -11.3029 C   0  0  0  0  0  0
   13.6182   46.1502  -13.5072 O   0  0  0  0  0  0
   14.6708   46.9878  -13.0402 C   0  0  0  0  0  0
   14.8550   48.2556  -13.8635 C   0  0  0  0  0  0
   13.7346   48.8105  -14.5201 C   0  0  0  0  0  0
   13.8582   49.9962  -15.2671 C   0  0  0  0  0  0
   15.1027   50.6434  -15.3577 C   0  0  0  0  0  0
   16.2209   50.1086  -14.6936 C   0  0  0  0  0  0
   16.1088   48.9246  -13.9340 C   0  0  0  0  0  0
   17.3483   48.3873  -13.2312 C   0  0  0  0  0  0
   17.0831   48.1114  -11.8618 O   0  0  0  0  0  0
   17.8230   47.1163  -11.2713 C   0  0  0  0  0  0
   17.1688   46.2598  -10.3731 C   0  0  0  0  0  0
   17.8778   45.1698   -9.8321 C   0  0  0  0  0  0
   19.2481   45.0454  -10.1363 C   0  0  0  0  0  0
   19.8245   45.9762  -11.0268 C   0  0  0  0  0  0
   21.2896   45.8806  -11.3912 C   0  0  0  0  0  0
   19.1258   46.9780  -11.6080 N   0  0  0  0  0  0
   17.1699   44.1745   -8.9686 C   0  0  0  0  0  0
   17.6275   43.8174   -7.8862 O   0  0  0  0  0  0
   16.0146   43.7464   -9.5005 N   0  0  0  0  0  0
   15.9818   41.2874   -9.8642 H   0  0  0  0  0  0
   15.0961   43.1137   -7.7738 H   0  0  0  0  0  0
   21.0810   38.9497  -12.7276 H   0  0  0  0  0  0
   21.3387   40.4820  -13.5351 H   0  0  0  0  0  0
   19.8051   40.1612  -12.7302 H   0  0  0  0  0  0
   22.5411   40.4032  -11.3830 H   0  0  0  0  0  0
   21.7497   42.5408  -10.4098 H   0  0  0  0  0  0
   20.2426   42.4077  -11.3189 H   0  0  0  0  0  0
   21.7809   42.5966  -12.1652 H   0  0  0  0  0  0
   18.8355   40.3059  -10.6031 H   0  0  0  0  0  0
   19.5142   38.2703   -6.8722 H   0  0  0  0  0  0
   21.9631   38.3761   -7.2565 H   0  0  0  0  0  0
   22.8605   39.4185   -9.3162 H   0  0  0  0  0  0
   15.6927   38.7940   -9.8278 H   0  0  0  0  0  0
   17.2475   38.0549  -10.4401 H   0  0  0  0  0  0
   17.5599   36.9485   -8.2272 H   0  0  0  0  0  0
   16.0184   37.7500   -7.6404 H   0  0  0  0  0  0
   17.2626   40.2107   -6.7809 H   0  0  0  0  0  0
   15.0126   39.7030   -7.7509 H   0  0  0  0  0  0
   15.2964   41.1849   -6.9358 H   0  0  0  0  0  0
   13.3761   40.7698   -8.9747 H   0  0  0  0  0  0
   12.8115   42.9503   -8.7170 H   0  0  0  0  0  0
   13.5121   44.5211   -8.7382 H   0  0  0  0  0  0
   14.3376   45.5272  -10.9124 H   0  0  0  0  0  0
   12.1522   44.2008  -14.3960 H   0  0  0  0  0  0
   11.3654   42.2293  -13.1271 H   0  0  0  0  0  0
   12.0092   41.9407  -10.7421 H   0  0  0  0  0  0
   15.5870   46.3971  -13.0256 H   0  0  0  0  0  0
   14.4628   47.3402  -12.0356 H   0  0  0  0  0  0
   12.7702   48.3257  -14.4604 H   0  0  0  0  0  0
   12.9986   50.4078  -15.7746 H   0  0  0  0  0  0
   15.2005   51.5511  -15.9350 H   0  0  0  0  0  0
   17.1710   50.6181  -14.7679 H   0  0  0  0  0  0
   18.1677   49.1054  -13.2938 H   0  0  0  0  0  0
   17.6650   47.4906  -13.7672 H   0  0  0  0  0  0
   16.1317   46.4289  -10.1325 H   0  0  0  0  0  0
   19.8344   44.2420   -9.7118 H   0  0  0  0  0  0
   21.6283   46.7748  -11.9172 H   0  0  0  0  0  0
   21.4624   45.0196  -12.0362 H   0  0  0  0  0  0
   21.8967   45.7647  -10.4931 H   0  0  0  0  0  0
   15.7938   44.0743  -10.4277 H   0  0  0  0  0  0
  1  2  1  0  0  0
  1 47  1  0  0  0
  1 48  1  0  0  0
  1 49  1  0  0  0
  2  3  1  0  0  0
  2  4  1  0  0  0
  2 50  1  0  0  0
  3 51  1  0  0  0
  3 52  1  0  0  0
  3 53  1  0  0  0
  4  9  1  0  0  0
  4  5  2  0  0  0
  5  6  1  0  0  0
  5 54  1  0  0  0
  6  7  2  0  0  0
  6 10  1  0  0  0
  7  8  1  0  0  0
  7 55  1  0  0  0
  8  9  2  0  0  0
  8 56  1  0  0  0
  9 57  1  0  0  0
 10 12  1  0  0  0
 10 11  1  0  0  0
 10 13  1  0  0  0
 11 12  1  0  0  0
 11 58  1  0  0  0
 11 59  1  0  0  0
 12 60  1  0  0  0
 12 61  1  0  0  0
 13 14  1  0  0  0
 13 62  1  0  0  0
 14 15  1  0  0  0
 14 63  1  0  0  0
 14 64  1  0  0  0
 15 45  1  0  0  0
 15 16  1  0  0  0
 15 17  1  0  0  0
 16 65  1  0  0  0
 17 46  1  0  0  0
 17 44  1  0  0  0
 17 18  1  0  0  0
 18 19  1  0  0  0
 18 66  1  0  0  0
 18 67  1  0  0  0
 19 24  1  0  0  0
 19 20  2  0  0  0
 20 21  1  0  0  0
 20 68  1  0  0  0
 21 22  2  0  0  0
 21 25  1  0  0  0
 22 23  1  0  0  0
 22 69  1  0  0  0
 23 24  2  0  0  0
 23 70  1  0  0  0
 24 71  1  0  0  0
 25 26  1  0  0  0
 26 27  1  0  0  0
 26 72  1  0  0  0
 26 73  1  0  0  0
 27 32  2  0  0  0
 27 28  1  0  0  0
 28 29  2  0  0  0
 28 74  1  0  0  0
 29 30  1  0  0  0
 29 75  1  0  0  0
 30 31  2  0  0  0
 30 76  1  0  0  0
 31 32  1  0  0  0
 31 77  1  0  0  0
 32 33  1  0  0  0
 33 34  1  0  0  0
 33 78  1  0  0  0
 33 79  1  0  0  0
 34 35  1  0  0  0
 35 41  1  0  0  0
 35 36  2  0  0  0
 36 37  1  0  0  0
 36 80  1  0  0  0
 37 38  2  0  0  0
 37 42  1  0  0  0
 38 39  1  0  0  0
 38 81  1  0  0  0
 39 40  1  0  0  0
 39 41  2  0  0  0
 40 82  1  0  0  0
 40 83  1  0  0  0
 40 84  1  0  0  0
 42 43  2  0  0  0
 42 44  1  0  0  0
 44 85  1  0  0  0
M  END
> <s_m_source_file>
BACE_112.smi

> <i_m_source_file_index>
1

> <i_lp_mmshare_version>
42013

> <i_f3d_flags>
0

> <s_epik_input>
W0NIM11bQ0hdKFtDSDNdKWMxW2NIXWMoW2NIXVtjSF1bY0hdMSlDMihbQ0gyXVtDSDJdMilbTkhdW0NIMl1bQ0BASF0oW09IXSlbQ0BIXShbQ0gyXTMpW05IXUMoPU8pYyhbY0hdYyhuNClbQ0gzXSlbY0hdYzRPW0NIMl1jKFtjSF1bY0hdW2NIXVtjSF01KWM1W0NIMl1PYyhbY0hdYzM2KVtjSF1bY0hdW2NIXTY=

> <s_epik_cmdline>
J2VwaWtfcHl0aG9uJywgJy1waCcsICc3LjAnLCAnLXRuJywgJzgnLCAnLW1hJywgJzIwMCcsICctaW1hZScsICc8aW5maWxlLm1hZT4nLCAnLW9tYWUnLCAnPG91dGZpbGUubWFlPic=

> <r_lp_tautomer_probability>
1

> <r_epik_Ionization_Penalty>
  0.3110

> <r_epik_Ionization_Penalty_Charging>
  0.0000

> <r_epik_Ionization_Penalty_Neutral>
  0.3110

> <r_epik_State_Penalty>
  0.3051

> <r_epik_Charging_Adjusted_Penalty>
0.30506

> <i_epik_Tot_Q>
0

> <i_epik_Tot_abs_Q>
0

> <s_lp_Force_Field>
OPLS_2005

> <r_lp_Energy>
59.022

> <b_lp_Chiralities_Consistent>
1

> <s_lp_Variant>
BACE_112.smi:1-1

> <chiral flag>
1

> <version>
0

> <s_i_glide_gridfile>
second_dock_grid_2

> <i_i_glide_lignum>
228

> <i_i_glide_rotatable_bonds>
7

> <r_i_docking_score>
-3.53971

> <r_i_glide_ligand_efficiency>
-0.080448

> <r_i_glide_ligand_efficiency_sa>
-0.28401

> <r_i_glide_ligand_efficiency_ln>
-0.739877

> <r_glide_XP_GScore>
-3.84481

> <r_i_glide_gscore>
-3.84481

> <r_i_glide_evdw>
-38.227

> <r_i_glide_ecoul>
-10.5178

> <r_i_glide_energy>
-48.7448

> <r_i_glide_einternal>
16.0448

> <r_i_glide_emodel>
-67.1103

> <r_glide_XP_HBond>
-1.45736

> <i_i_glide_confnum>
1

> <i_i_glide_posenum>
1

> <r_i_glide_eff_state_penalty>
0.3051

> <i_glide_XP_PoseRank>
1

$$$$
BACE_112.smi:1
                    3D
 Structure written by MMmdl.
 86 91  0  0  1  0            999 V2000
   20.0949   39.0853  -11.6551 C   0  0  0  0  0  0
   20.9290   39.0803  -10.3699 C   0  0  0  0  0  0
   21.9620   40.2197  -10.3794 C   0  0  0  0  0  0
   20.0918   39.1000   -9.0949 C   0  0  0  0  0  0
   18.7009   39.3857   -9.0823 C   0  0  0  0  0  0
   17.9973   39.5428   -7.8644 C   0  0  0  0  0  0
   18.6851   39.2624   -6.6687 C   0  0  0  0  0  0
   20.0535   38.9500   -6.6694 C   0  0  0  0  0  0
   20.7568   38.8703   -7.8765 C   0  0  0  0  0  0
   16.5744   40.0657   -7.7945 C   0  0  0  0  0  0
   15.4791   39.1920   -7.2261 C   0  0  0  0  0  0
   15.4355   39.5950   -8.6777 C   0  0  0  0  0  0
   16.4604   41.4689   -7.2967 N   0  3  0  0  0  0
   16.4527   42.6027   -8.2832 C   0  0  0  0  0  0
   17.2576   42.3828   -9.6011 C   0  0  1  0  0  0
   16.4508   41.7418  -10.5778 O   0  0  0  0  0  0
   17.9549   43.5832  -10.3064 C   0  0  2  0  0  0
   19.4379   43.7415   -9.9002 C   0  0  0  0  0  0
   19.6677   43.8640   -8.4048 C   0  0  0  0  0  0
   19.3803   45.0748   -7.7444 C   0  0  0  0  0  0
   19.5556   45.1882   -6.3459 C   0  0  0  0  0  0
   20.0590   44.0855   -5.6286 C   0  0  0  0  0  0
   20.3692   42.8814   -6.2851 C   0  0  0  0  0  0
   20.1686   42.7681   -7.6728 C   0  0  0  0  0  0
   19.2596   46.3224   -5.6244 O   0  0  0  0  0  0
   18.6053   47.4150   -6.2555 C   0  0  0  0  0  0
   19.5158   48.3035   -7.1000 C   0  0  0  0  0  0
   20.9169   48.1174   -7.0593 C   0  0  0  0  0  0
   21.7736   48.9210   -7.8324 C   0  0  0  0  0  0
   21.2383   49.9342   -8.6460 C   0  0  0  0  0  0
   19.8472   50.1445   -8.6781 C   0  0  0  0  0  0
   18.9777   49.3342   -7.9133 C   0  0  0  0  0  0
   17.4852   49.6447   -7.9409 C   0  0  0  0  0  0
   17.0277   50.0768   -9.2120 O   0  0  0  0  0  0
   16.9349   49.1608  -10.2386 C   0  0  0  0  0  0
   16.8561   47.7527  -10.0730 C   0  0  0  0  0  0
   16.6682   46.9440  -11.2211 C   0  0  0  0  0  0
   16.5794   47.5799  -12.4771 C   0  0  0  0  0  0
   16.6965   48.9794  -12.5388 C   0  0  0  0  0  0
   16.6278   49.6972  -13.8686 C   0  0  0  0  0  0
   16.8601   49.7523  -11.4470 N   0  0  0  0  0  0
   16.5729   45.4443  -11.1442 C   0  0  0  0  0  0
   16.0004   44.7991  -12.0240 O   0  0  0  0  0  0
   17.2898   44.8764  -10.1611 N   0  0  0  0  0  0
   18.0820   41.7213   -9.3866 H   0  0  0  0  0  0
   18.0137   43.3522  -11.3737 H   0  0  0  0  0  0
   19.3770   38.2670  -11.6391 H   0  0  0  0  0  0
   20.7292   38.9598  -12.5317 H   0  0  0  0  0  0
   19.5453   40.0187  -11.7832 H   0  0  0  0  0  0
   21.4937   38.1501  -10.3471 H   0  0  0  0  0  0
   22.6081   40.1895   -9.5003 H   0  0  0  0  0  0
   21.4813   41.1951  -10.4060 H   0  0  0  0  0  0
   22.6133   40.1569  -11.2492 H   0  0  0  0  0  0
   18.1742   39.5647  -10.0060 H   0  0  0  0  0  0
   18.1729   39.3483   -5.7230 H   0  0  0  0  0  0
   20.5765   38.8016   -5.7401 H   0  0  0  0  0  0
   21.8146   38.6465   -7.8619 H   0  0  0  0  0  0
   15.7058   38.1502   -7.0375 H   0  0  0  0  0  0
   14.7326   39.6313   -6.5650 H   0  0  0  0  0  0
   14.6424   40.2886   -8.9490 H   0  0  0  0  0  0
   15.6371   38.8098   -9.4052 H   0  0  0  0  0  0
   15.6169   41.5419   -6.7399 H   0  0  0  0  0  0
   15.4157   42.8503   -8.5231 H   0  0  0  0  0  0
   16.8451   43.4683   -7.7480 H   0  0  0  0  0  0
   16.2045   40.8829  -10.2658 H   0  0  0  0  0  0
   20.0025   42.8862  -10.2715 H   0  0  0  0  0  0
   19.8750   44.6090  -10.3968 H   0  0  0  0  0  0
   19.0283   45.9090   -8.3302 H   0  0  0  0  0  0
   20.2055   44.1560   -4.5600 H   0  0  0  0  0  0
   20.7485   42.0424   -5.7223 H   0  0  0  0  0  0
   20.4003   41.8355   -8.1658 H   0  0  0  0  0  0
   17.7646   47.0360   -6.8367 H   0  0  0  0  0  0
   18.1751   48.0336   -5.4673 H   0  0  0  0  0  0
   21.3518   47.3485   -6.4389 H   0  0  0  0  0  0
   22.8410   48.7555   -7.8021 H   0  0  0  0  0  0
   21.8927   50.5490   -9.2451 H   0  0  0  0  0  0
   19.4479   50.9350   -9.2966 H   0  0  0  0  0  0
   16.8597   48.8383   -7.5720 H   0  0  0  0  0  0
   17.3215   50.4655   -7.2444 H   0  0  0  0  0  0
   16.8997   47.3007   -9.0972 H   0  0  0  0  0  0
   16.4474   47.0040  -13.3818 H   0  0  0  0  0  0
   16.6362   50.7802  -13.7411 H   0  0  0  0  0  0
   15.7171   49.4217  -14.4011 H   0  0  0  0  0  0
   17.4834   49.4222  -14.4849 H   0  0  0  0  0  0
   17.6957   45.5033   -9.4861 H   0  0  0  0  0  0
   17.2284   41.5969   -6.6449 H   0  0  0  0  0  0
  1  2  1  0  0  0
  1 47  1  0  0  0
  1 48  1  0  0  0
  1 49  1  0  0  0
  2  3  1  0  0  0
  2  4  1  0  0  0
  2 50  1  0  0  0
  3 51  1  0  0  0
  3 52  1  0  0  0
  3 53  1  0  0  0
  4  9  1  0  0  0
  4  5  2  0  0  0
  5  6  1  0  0  0
  5 54  1  0  0  0
  6  7  2  0  0  0
  6 10  1  0  0  0
  7  8  1  0  0  0
  7 55  1  0  0  0
  8  9  2  0  0  0
  8 56  1  0  0  0
  9 57  1  0  0  0
 10 12  1  0  0  0
 10 11  1  0  0  0
 10 13  1  0  0  0
 11 12  1  0  0  0
 11 58  1  0  0  0
 11 59  1  0  0  0
 12 60  1  0  0  0
 12 61  1  0  0  0
 13 14  1  0  0  0
 13 62  1  0  0  0
 13 86  1  0  0  0
 14 15  1  0  0  0
 14 63  1  0  0  0
 14 64  1  0  0  0
 15 45  1  0  0  0
 15 16  1  0  0  0
 15 17  1  0  0  0
 16 65  1  0  0  0
 17 46  1  0  0  0
 17 44  1  0  0  0
 17 18  1  0  0  0
 18 19  1  0  0  0
 18 66  1  0  0  0
 18 67  1  0  0  0
 19 24  1  0  0  0
 19 20  2  0  0  0
 20 21  1  0  0  0
 20 68  1  0  0  0
 21 22  2  0  0  0
 21 25  1  0  0  0
 22 23  1  0  0  0
 22 69  1  0  0  0
 23 24  2  0  0  0
 23 70  1  0  0  0
 24 71  1  0  0  0
 25 26  1  0  0  0
 26 27  1  0  0  0
 26 72  1  0  0  0
 26 73  1  0  0  0
 27 32  2  0  0  0
 27 28  1  0  0  0
 28 29  2  0  0  0
 28 74  1  0  0  0
 29 30  1  0  0  0
 29 75  1  0  0  0
 30 31  2  0  0  0
 30 76  1  0  0  0
 31 32  1  0  0  0
 31 77  1  0  0  0
 32 33  1  0  0  0
 33 34  1  0  0  0
 33 78  1  0  0  0
 33 79  1  0  0  0
 34 35  1  0  0  0
 35 41  1  0  0  0
 35 36  2  0  0  0
 36 37  1  0  0  0
 36 80  1  0  0  0
 37 38  2  0  0  0
 37 42  1  0  0  0
 38 39  1  0  0  0
 38 81  1  0  0  0
 39 40  1  0  0  0
 39 41  2  0  0  0
 40 82  1  0  0  0
 40 83  1  0  0  0
 40 84  1  0  0  0
 42 43  2  0  0  0
 42 44  1  0  0  0
 44 85  1  0  0  0
M  CHG  1  13   1
M  END
> <s_m_source_file>
BACE_112.smi

> <i_m_source_file_index>
1

> <i_lp_mmshare_version>
42013

> <i_f3d_flags>
0

> <s_epik_input>
W0NIM11bQ0hdKFtDSDNdKWMxW2NIXWMoW2NIXVtjSF1bY0hdMSlDMihbQ0gyXVtDSDJdMilbTkhdW0NIMl1bQ0BASF0oW09IXSlbQ0BIXShbQ0gyXTMpW05IXUMoPU8pYyhbY0hdYyhuNClbQ0gzXSlbY0hdYzRPW0NIMl1jKFtjSF1bY0hdW2NIXVtjSF01KWM1W0NIMl1PYyhbY0hdYzM2KVtjSF1bY0hdW2NIXTY=

> <s_epik_cmdline>
J2VwaWtfcHl0aG9uJywgJy1waCcsICc3LjAnLCAnLXRuJywgJzgnLCAnLW1hJywgJzIwMCcsICctaW1hZScsICc8aW5maWxlLm1hZT4nLCAnLW9tYWUnLCAnPG91dGZpbGUubWFlPic=

> <r_lp_tautomer_probability>
1

> <r_epik_Ionization_Penalty>
  0.5306

> <r_epik_Ionization_Penalty_Charging>
  0.5305

> <r_epik_Ionization_Penalty_Neutral>
  0.0000

> <r_epik_State_Penalty>
  0.5393

> <r_epik_Charging_Adjusted_Penalty>
1.06985

> <i_epik_Tot_Q>
1

> <i_epik_Tot_abs_Q>
1

> <s_lp_Force_Field>
OPLS_2005

> <r_lp_Energy>
46.8418

> <b_lp_Chiralities_Consistent>
1

> <s_lp_Variant>
BACE_112.smi:1-2

> <chiral flag>
1

> <version>
0

> <s_i_glide_gridfile>
second_dock_grid_2

> <i_i_glide_lignum>
229

> <i_i_glide_rotatable_bonds>
7

> <r_i_docking_score>
-4.44581

> <r_i_glide_ligand_efficiency>
-0.101041

> <r_i_glide_ligand_efficiency_sa>
-0.356711

> <r_i_glide_ligand_efficiency_ln>
-0.929272

> <r_glide_XP_GScore>
-4.98511

> <r_i_glide_gscore>
-4.98511

> <r_i_glide_evdw>
-39.1708

> <r_i_glide_ecoul>
-14.2268

> <r_i_glide_energy>
-53.3976

> <r_i_glide_einternal>
8.25094

> <r_i_glide_emodel>
-73.4141

> <r_glide_XP_HBond>
-1.18

> <i_i_glide_confnum>
1

> <i_i_glide_posenum>
78

> <r_i_glide_eff_state_penalty>
0.5393

> <i_glide_XP_PoseRank>
1

$$$$
BACE_113.smi:1
                    3D
 Structure written by MMmdl.
 79 82  0  0  1  0            999 V2000
   20.8588   39.8953   -6.9637 C   0  0  0  0  0  0
   20.5230   38.5512   -7.6408 C   0  0  0  0  0  0
   21.4927   38.3510   -8.8233 C   0  0  0  0  0  0
   19.0364   38.4178   -8.0151 C   0  0  0  0  0  0
   18.6220   37.7780   -9.2086 C   0  0  0  0  0  0
   17.2552   37.6753   -9.5317 C   0  0  0  0  0  0
   16.2791   38.2373   -8.6917 C   0  0  0  0  0  0
   16.6731   38.8803   -7.5031 C   0  0  0  0  0  0
   15.6456   39.6059   -6.6473 C   0  0  0  0  0  0
   15.2595   40.9147   -7.2397 N   0  3  0  0  0  0
   16.3740   41.7831   -7.7091 C   0  0  0  0  0  0
   15.9553   42.8842   -8.7162 C   0  0  1  0  0  0
   15.5810   44.0701   -8.0400 O   0  0  0  0  0  0
   17.0102   43.2297   -9.8189 C   0  0  2  0  0  0
   18.5162   43.1249   -9.4243 C   0  0  0  0  0  0
   18.9922   44.0040   -8.2711 C   0  0  0  0  0  0
   19.2729   43.4370   -7.0097 C   0  0  0  0  0  0
   19.7611   44.2369   -5.9584 C   0  0  0  0  0  0
   19.9828   45.6128   -6.1602 C   0  0  0  0  0  0
   19.7238   46.1858   -7.4211 C   0  0  0  0  0  0
   19.9828   47.6590   -7.6625 C   0  0  0  0  0  0
   18.8088   48.5389   -7.1987 C   0  0  0  0  0  0
   18.8356   49.9654   -7.7858 C   0  0  0  0  0  0
   18.4870   50.0463   -9.2842 C   0  0  0  0  0  0
   17.0135   49.7220   -9.5917 C   0  0  0  0  0  0
   16.8600   48.7870  -10.7739 C   0  0  0  0  0  0
   16.8954   47.3934  -10.5798 C   0  0  0  0  0  0
   16.7665   46.5401  -11.7026 C   0  0  0  0  0  0
   16.5859   47.1492  -12.9638 C   0  0  0  0  0  0
   16.5784   48.5564  -13.0538 C   0  0  0  0  0  0
   16.4311   49.2535  -14.3883 C   0  0  0  0  0  0
   16.7161   49.3647  -11.9835 N   0  0  0  0  0  0
   16.8843   45.0415  -11.5749 C   0  0  0  0  0  0
   17.1003   44.3178  -12.5500 O   0  0  0  0  0  0
   16.7306   44.5709  -10.3317 N   0  0  0  0  0  0
   19.2352   45.3792   -8.4719 C   0  0  0  0  0  0
   18.0391   38.9208   -7.1490 C   0  0  0  0  0  0
   15.0615   42.5441   -9.2404 H   0  0  0  0  0  0
   16.8602   42.5167  -10.6329 H   0  0  0  0  0  0
   20.3361   40.0311   -6.0172 H   0  0  0  0  0  0
   20.6076   40.7320   -7.6161 H   0  0  0  0  0  0
   21.9233   39.9629   -6.7357 H   0  0  0  0  0  0
   20.7251   37.7636   -6.9139 H   0  0  0  0  0  0
   21.4298   37.3485   -9.2404 H   0  0  0  0  0  0
   22.5292   38.4892   -8.5113 H   0  0  0  0  0  0
   21.2991   39.0646   -9.6231 H   0  0  0  0  0  0
   19.3359   37.3500   -9.8944 H   0  0  0  0  0  0
   16.9555   37.1763  -10.4398 H   0  0  0  0  0  0
   15.2344   38.1816   -8.9640 H   0  0  0  0  0  0
   14.7555   38.9859   -6.5336 H   0  0  0  0  0  0
   16.0309   39.7517   -5.6410 H   0  0  0  0  0  0
   14.6569   40.7056   -8.0207 H   0  0  0  0  0  0
   16.8708   42.2072   -6.8407 H   0  0  0  0  0  0
   17.1063   41.1721   -8.2214 H   0  0  0  0  0  0
   15.6578   43.9272   -7.0956 H   0  0  0  0  0  0
   18.7904   42.0918   -9.2130 H   0  0  0  0  0  0
   19.1245   43.3814  -10.2922 H   0  0  0  0  0  0
   19.1292   42.3799   -6.8391 H   0  0  0  0  0  0
   19.9725   43.7890   -4.9985 H   0  0  0  0  0  0
   20.3731   46.2169   -5.3522 H   0  0  0  0  0  0
   20.8998   47.9566   -7.1545 H   0  0  0  0  0  0
   20.1742   47.7918   -8.7264 H   0  0  0  0  0  0
   17.8692   48.0540   -7.4630 H   0  0  0  0  0  0
   18.8150   48.5899   -6.1088 H   0  0  0  0  0  0
   18.1313   50.5921   -7.2402 H   0  0  0  0  0  0
   19.8214   50.4006   -7.6166 H   0  0  0  0  0  0
   18.7150   51.0430   -9.6636 H   0  0  0  0  0  0
   19.1421   49.3822   -9.8485 H   0  0  0  0  0  0
   16.5185   49.2629   -8.7367 H   0  0  0  0  0  0
   16.4671   50.6457   -9.7832 H   0  0  0  0  0  0
   17.0463   47.0093   -9.5827 H   0  0  0  0  0  0
   16.4826   46.5504  -13.8516 H   0  0  0  0  0  0
   16.1722   48.5508  -15.1800 H   0  0  0  0  0  0
   17.3688   49.7376  -14.6628 H   0  0  0  0  0  0
   15.6524   50.0140  -14.3342 H   0  0  0  0  0  0
   16.4599   45.2318   -9.6176 H   0  0  0  0  0  0
   19.0640   45.8172   -9.4441 H   0  0  0  0  0  0
   18.3130   39.3779   -6.2113 H   0  0  0  0  0  0
   14.7125   41.4051   -6.5352 H   0  0  0  0  0  0
  1  2  1  0  0  0
  1 40  1  0  0  0
  1 41  1  0  0  0
  1 42  1  0  0  0
  2  3  1  0  0  0
  2  4  1  0  0  0
  2 43  1  0  0  0
  3 44  1  0  0  0
  3 45  1  0  0  0
  3 46  1  0  0  0
  4 37  1  0  0  0
  4  5  2  0  0  0
  5  6  1  0  0  0
  5 47  1  0  0  0
  6  7  2  0  0  0
  6 48  1  0  0  0
  7  8  1  0  0  0
  7 49  1  0  0  0
  8  9  1  0  0  0
  8 37  2  0  0  0
  9 10  1  0  0  0
  9 50  1  0  0  0
  9 51  1  0  0  0
 10 11  1  0  0  0
 10 52  1  0  0  0
 10 79  1  0  0  0
 11 12  1  0  0  0
 11 53  1  0  0  0
 11 54  1  0  0  0
 12 38  1  0  0  0
 12 13  1  0  0  0
 12 14  1  0  0  0
 13 55  1  0  0  0
 14 39  1  0  0  0
 14 35  1  0  0  0
 14 15  1  0  0  0
 15 16  1  0  0  0
 15 56  1  0  0  0
 15 57  1  0  0  0
 16 36  1  0  0  0
 16 17  2  0  0  0
 17 18  1  0  0  0
 17 58  1  0  0  0
 18 19  2  0  0  0
 18 59  1  0  0  0
 19 20  1  0  0  0
 19 60  1  0  0  0
 20 21  1  0  0  0
 20 36  2  0  0  0
 21 22  1  0  0  0
 21 61  1  0  0  0
 21 62  1  0  0  0
 22 23  1  0  0  0
 22 63  1  0  0  0
 22 64  1  0  0  0
 23 24  1  0  0  0
 23 65  1  0  0  0
 23 66  1  0  0  0
 24 25  1  0  0  0
 24 67  1  0  0  0
 24 68  1  0  0  0
 25 26  1  0  0  0
 25 69  1  0  0  0
 25 70  1  0  0  0
 26 32  1  0  0  0
 26 27  2  0  0  0
 27 28  1  0  0  0
 27 71  1  0  0  0
 28 29  2  0  0  0
 28 33  1  0  0  0
 29 30  1  0  0  0
 29 72  1  0  0  0
 30 31  1  0  0  0
 30 32  2  0  0  0
 31 73  1  0  0  0
 31 74  1  0  0  0
 31 75  1  0  0  0
 33 34  2  0  0  0
 33 35  1  0  0  0
 35 76  1  0  0  0
 36 77  1  0  0  0
 37 78  1  0  0  0
M  CHG  1  10   1
M  END
> <s_m_source_file>
BACE_113.smi

> <i_m_source_file_index>
1

> <i_lp_mmshare_version>
42013

> <i_f3d_flags>
0

> <s_epik_input>
W0NIM11bQ0hdKFtDSDNdKWMxW2NIXVtjSF1bY0hdYyhbY0hdMSlbQ0gyXVtOSF1bQ0gyXVtDQEBIXShbT0hdKVtDQEhdKFtDSDJdMilbTkhdQyg9TyljKFtjSF1jKG4zKVtDSDNdKVtjSF1jM1tDSDJdW0NIMl1bQ0gyXVtDSDJdW0NIMl1jKFtjSF00KVtjSF1bY0hdW2NIXWMyNA==

> <s_epik_cmdline>
J2VwaWtfcHl0aG9uJywgJy1waCcsICc3LjAnLCAnLXRuJywgJzgnLCAnLW1hJywgJzIwMCcsICctaW1hZScsICc8aW5maWxlLm1hZT4nLCAnLW9tYWUnLCAnPG91dGZpbGUubWFlPic=

> <r_epik_Ionization_Penalty>
  0.0231

> <r_epik_Ionization_Penalty_Charging>
  0.0201

> <r_epik_Ionization_Penalty_Neutral>
  0.0030

> <r_epik_State_Penalty>
  0.0161

> <r_epik_Charging_Adjusted_Penalty>
0.0361071

> <i_epik_Tot_Q>
1

> <i_epik_Tot_abs_Q>
1

> <s_lp_Force_Field>
OPLS_2005

> <r_lp_Energy>
20.9815

> <b_lp_Chiralities_Consistent>
1

> <s_lp_Variant>
BACE_113.smi:1-1

> <chiral flag>
1

> <version>
0

> <s_i_glide_gridfile>
second_dock_grid_2

> <i_i_glide_lignum>
230

> <i_i_glide_rotatable_bonds>
7

> <r_i_docking_score>
-5.20362

> <r_i_glide_ligand_efficiency>
-0.140638

> <r_i_glide_ligand_efficiency_sa>
-0.468639

> <r_i_glide_ligand_efficiency_ln>
-1.12854

> <r_glide_XP_GScore>
-5.21972

> <r_i_glide_gscore>
-5.21972

> <r_i_glide_evdw>
-34.8024

> <r_i_glide_ecoul>
-17.3486

> <r_i_glide_energy>
-52.151

> <r_i_glide_einternal>
12.6776

> <r_i_glide_emodel>
-60.2464

> <r_glide_XP_HBond>
-0.7

> <i_i_glide_confnum>
1

> <i_i_glide_posenum>
12

> <r_i_glide_eff_state_penalty>
0.0161

> <i_glide_XP_PoseRank>
1

$$$$
BACE_113.smi:1
                    3D
 Structure written by MMmdl.
 78 81  0  0  1  0            999 V2000
   17.3683   36.9704   -8.8514 C   0  0  0  0  0  0
   17.7110   38.4691   -8.8646 C   0  0  0  0  0  0
   17.2702   39.1382  -10.1748 C   0  0  0  0  0  0
   19.1871   38.7204   -8.5843 C   0  0  0  0  0  0
   20.1656   38.2708   -9.4969 C   0  0  0  0  0  0
   21.5314   38.4997   -9.2451 C   0  0  0  0  0  0
   21.9277   39.1752   -8.0762 C   0  0  0  0  0  0
   20.9585   39.6301   -7.1567 C   0  0  0  0  0  0
   21.3823   40.3720   -5.9006 C   0  0  0  0  0  0
   20.4601   40.1511   -4.7916 N   0  0  0  0  0  0
   20.8154   40.8447   -3.5525 C   0  0  0  0  0  0
   20.9288   42.3705   -3.7630 C   0  0  1  0  0  0
   21.4091   42.9500   -2.5657 O   0  0  0  0  0  0
   21.8197   42.7825   -4.9671 C   0  0  2  0  0  0
   22.9163   43.8231   -4.6276 C   0  0  0  0  0  0
   23.6056   44.4357   -5.8450 C   0  0  0  0  0  0
   23.7231   45.8375   -5.9491 C   0  0  0  0  0  0
   24.3177   46.4172   -7.0851 C   0  0  0  0  0  0
   24.7889   45.5997   -8.1289 C   0  0  0  0  0  0
   24.6725   44.1965   -8.0421 C   0  0  0  0  0  0
   25.1569   43.3244   -9.1914 C   0  0  0  0  0  0
   24.3398   43.5184  -10.4841 C   0  0  0  0  0  0
   22.9717   42.8066  -10.4798 C   0  0  0  0  0  0
   21.9631   43.3931  -11.4923 C   0  0  0  0  0  0
   21.3829   44.7758  -11.1178 C   0  0  0  0  0  0
   20.3405   44.7203  -10.0131 C   0  0  0  0  0  0
   20.7358   44.5785   -8.6704 C   0  0  0  0  0  0
   19.7451   44.4406   -7.6775 C   0  0  0  0  0  0
   18.3920   44.5494   -8.0581 C   0  0  0  0  0  0
   18.0961   44.7188   -9.4285 C   0  0  0  0  0  0
   16.6638   44.8207   -9.9078 C   0  0  0  0  0  0
   19.0441   44.7782  -10.3915 N   0  0  0  0  0  0
   20.1412   44.1698   -6.2611 C   0  0  0  0  0  0
   19.6558   44.7984   -5.3216 O   0  0  0  0  0  0
   21.0487   43.1854   -6.1462 N   0  0  0  0  0  0
   24.1007   43.6181   -6.8883 C   0  0  0  0  0  0
   19.5920   39.3960   -7.4118 C   0  0  0  0  0  0
   19.9237   42.7659   -3.9107 H   0  0  0  0  0  0
   22.3454   41.8868   -5.2996 H   0  0  0  0  0  0
   17.6599   36.5092   -7.9083 H   0  0  0  0  0  0
   17.8725   36.4313   -9.6533 H   0  0  0  0  0  0
   16.2966   36.8139   -8.9754 H   0  0  0  0  0  0
   17.1391   38.9324   -8.0601 H   0  0  0  0  0  0
   17.4594   40.2118  -10.1479 H   0  0  0  0  0  0
   16.2030   38.9972  -10.3477 H   0  0  0  0  0  0
   17.8023   38.7274  -11.0334 H   0  0  0  0  0  0
   19.8749   37.7526  -10.3990 H   0  0  0  0  0  0
   22.2748   38.1593   -9.9505 H   0  0  0  0  0  0
   22.9775   39.3505   -7.8909 H   0  0  0  0  0  0
   22.3998   40.1015   -5.6158 H   0  0  0  0  0  0
   21.4031   41.4342   -6.1458 H   0  0  0  0  0  0
   19.5080   40.3726   -5.0653 H   0  0  0  0  0  0
   20.0589   40.6513   -2.7917 H   0  0  0  0  0  0
   21.7478   40.4453   -3.1527 H   0  0  0  0  0  0
   21.2583   43.8821   -2.6029 H   0  0  0  0  0  0
   22.4699   44.6270   -4.0408 H   0  0  0  0  0  0
   23.6765   43.3705   -3.9903 H   0  0  0  0  0  0
   23.3498   46.4761   -5.1620 H   0  0  0  0  0  0
   24.4032   47.4911   -7.1606 H   0  0  0  0  0  0
   25.2334   46.0545   -9.0019 H   0  0  0  0  0  0
   26.1978   43.5866   -9.3834 H   0  0  0  0  0  0
   25.1578   42.2738   -8.8985 H   0  0  0  0  0  0
   24.2304   44.5833  -10.6842 H   0  0  0  0  0  0
   24.9133   43.1276  -11.3251 H   0  0  0  0  0  0
   23.1371   41.7554  -10.7177 H   0  0  0  0  0  0
   22.5431   42.7959   -9.4806 H   0  0  0  0  0  0
   22.4609   43.4713  -12.4592 H   0  0  0  0  0  0
   21.1408   42.6922  -11.6396 H   0  0  0  0  0  0
   22.1709   45.4701  -10.8277 H   0  0  0  0  0  0
   20.9202   45.2124  -12.0042 H   0  0  0  0  0  0
   21.7829   44.5473   -8.4103 H   0  0  0  0  0  0
   17.6032   44.4722   -7.3242 H   0  0  0  0  0  0
   15.9697   44.8950   -9.0704 H   0  0  0  0  0  0
   16.3998   43.9420  -10.4958 H   0  0  0  0  0  0
   16.5338   45.7036  -10.5339 H   0  0  0  0  0  0
   21.3113   42.7268   -7.0063 H   0  0  0  0  0  0
   24.0125   42.5439   -6.8195 H   0  0  0  0  0  0
   18.8516   39.7401   -6.7049 H   0  0  0  0  0  0
  1  2  1  0  0  0
  1 40  1  0  0  0
  1 41  1  0  0  0
  1 42  1  0  0  0
  2  3  1  0  0  0
  2  4  1  0  0  0
  2 43  1  0  0  0
  3 44  1  0  0  0
  3 45  1  0  0  0
  3 46  1  0  0  0
  4 37  1  0  0  0
  4  5  2  0  0  0
  5  6  1  0  0  0
  5 47  1  0  0  0
  6  7  2  0  0  0
  6 48  1  0  0  0
  7  8  1  0  0  0
  7 49  1  0  0  0
  8  9  1  0  0  0
  8 37  2  0  0  0
  9 10  1  0  0  0
  9 50  1  0  0  0
  9 51  1  0  0  0
 10 11  1  0  0  0
 10 52  1  0  0  0
 11 12  1  0  0  0
 11 53  1  0  0  0
 11 54  1  0  0  0
 12 38  1  0  0  0
 12 13  1  0  0  0
 12 14  1  0  0  0
 13 55  1  0  0  0
 14 39  1  0  0  0
 14 35  1  0  0  0
 14 15  1  0  0  0
 15 16  1  0  0  0
 15 56  1  0  0  0
 15 57  1  0  0  0
 16 36  1  0  0  0
 16 17  2  0  0  0
 17 18  1  0  0  0
 17 58  1  0  0  0
 18 19  2  0  0  0
 18 59  1  0  0  0
 19 20  1  0  0  0
 19 60  1  0  0  0
 20 21  1  0  0  0
 20 36  2  0  0  0
 21 22  1  0  0  0
 21 61  1  0  0  0
 21 62  1  0  0  0
 22 23  1  0  0  0
 22 63  1  0  0  0
 22 64  1  0  0  0
 23 24  1  0  0  0
 23 65  1  0  0  0
 23 66  1  0  0  0
 24 25  1  0  0  0
 24 67  1  0  0  0
 24 68  1  0  0  0
 25 26  1  0  0  0
 25 69  1  0  0  0
 25 70  1  0  0  0
 26 32  1  0  0  0
 26 27  2  0  0  0
 27 28  1  0  0  0
 27 71  1  0  0  0
 28 29  2  0  0  0
 28 33  1  0  0  0
 29 30  1  0  0  0
 29 72  1  0  0  0
 30 31  1  0  0  0
 30 32  2  0  0  0
 31 73  1  0  0  0
 31 74  1  0  0  0
 31 75  1  0  0  0
 33 34  2  0  0  0
 33 35  1  0  0  0
 35 76  1  0  0  0
 36 77  1  0  0  0
 37 78  1  0  0  0
M  END
> <s_m_source_file>
BACE_113.smi

> <i_m_source_file_index>
1

> <i_lp_mmshare_version>
42013

> <i_f3d_flags>
0

> <s_epik_input>
W0NIM11bQ0hdKFtDSDNdKWMxW2NIXVtjSF1bY0hdYyhbY0hdMSlbQ0gyXVtOSF1bQ0gyXVtDQEBIXShbT0hdKVtDQEhdKFtDSDJdMilbTkhdQyg9TyljKFtjSF1jKG4zKVtDSDNdKVtjSF1jM1tDSDJdW0NIMl1bQ0gyXVtDSDJdW0NIMl1jKFtjSF00KVtjSF1bY0hdW2NIXWMyNA==

> <s_epik_cmdline>
J2VwaWtfcHl0aG9uJywgJy1waCcsICc3LjAnLCAnLXRuJywgJzgnLCAnLW1hJywgJzIwMCcsICctaW1hZScsICc8aW5maWxlLm1hZT4nLCAnLW9tYWUnLCAnPG91dGZpbGUubWFlPic=

> <r_epik_Ionization_Penalty>
  2.0202

> <r_epik_Ionization_Penalty_Charging>
  0.0000

> <r_epik_Ionization_Penalty_Neutral>
  2.0202

> <r_epik_State_Penalty>
  2.1460

> <r_epik_Charging_Adjusted_Penalty>
2.14597

> <i_epik_Tot_Q>
0

> <i_epik_Tot_abs_Q>
0

> <s_lp_Force_Field>
OPLS_2005

> <r_lp_Energy>
26.8588

> <b_lp_Chiralities_Consistent>
1

> <s_lp_Variant>
BACE_113.smi:1-2

> <chiral flag>
1

> <version>
0

> <s_i_glide_gridfile>
second_dock_grid_2

> <i_i_glide_lignum>
231

> <i_i_glide_rotatable_bonds>
7

> <r_i_docking_score>
-0.712702

> <r_i_glide_ligand_efficiency>
-0.0192622

> <r_i_glide_ligand_efficiency_sa>
-0.064186

> <r_i_glide_ligand_efficiency_ln>
-0.154568

> <r_glide_XP_GScore>
-2.8587

> <r_i_glide_gscore>
-2.8587

> <r_i_glide_evdw>
-36.2892

> <r_i_glide_ecoul>
-9.6383

> <r_i_glide_energy>
-45.9275

> <r_i_glide_einternal>
7.97788

> <r_i_glide_emodel>
-63.1353

> <r_glide_XP_HBond>
-1.79504

> <i_i_glide_confnum>
1

> <i_i_glide_posenum>
13

> <r_i_glide_eff_state_penalty>
2.146

> <i_glide_XP_PoseRank>
1

$$$$
BACE_114.smi:1
                    3D
 Structure written by MMmdl.
 82 85  0  0  1  0            999 V2000
   20.3312   46.1181  -11.5292 C   0  0  0  0  0  0
   21.4851   46.0378  -10.5181 C   0  0  0  0  0  0
   21.9510   47.4368  -10.0847 C   0  0  0  0  0  0
   22.6436   45.2041  -11.0541 C   0  0  0  0  0  0
   23.0333   44.0248  -10.3842 C   0  0  0  0  0  0
   24.1028   43.2211  -10.8583 C   0  0  0  0  0  0
   24.7717   43.6320  -12.0382 C   0  0  0  0  0  0
   24.3971   44.8135  -12.7048 C   0  0  0  0  0  0
   23.3391   45.6012  -12.2143 C   0  0  0  0  0  0
   24.5144   41.9435  -10.0977 C   0  0  0  0  0  0
   25.9372   41.4593  -10.4624 C   0  0  0  0  0  0
   24.5484   42.2065   -8.5708 C   0  0  0  0  0  0
   23.5953   40.8231  -10.4396 N   0  3  0  0  0  0
   22.2097   40.8982   -9.9139 C   0  0  0  0  0  0
   21.4061   39.5820  -10.0299 C   0  0  1  0  0  0
   22.0605   38.5744   -9.2743 O   0  0  0  0  0  0
   19.9351   39.6648   -9.4843 C   0  0  2  0  0  0
   18.9210   38.9998  -10.4432 C   0  0  0  0  0  0
   17.4657   39.2005  -10.0400 C   0  0  0  0  0  0
   16.6653   40.1495  -10.7140 C   0  0  0  0  0  0
   15.3159   40.3447  -10.3559 C   0  0  0  0  0  0
   14.7615   39.5518   -9.3211 C   0  0  0  0  0  0
   15.5595   38.6126   -8.6390 C   0  0  0  0  0  0
   16.9090   38.4398   -8.9921 C   0  0  0  0  0  0
   14.5968   41.2914  -11.0534 O   0  0  0  0  0  0
   13.6836   42.0920  -10.3040 C   0  0  0  0  0  0
   14.0629   43.5733  -10.4492 C   0  0  0  0  0  0
   15.5155   43.8494  -10.0351 C   0  0  0  0  0  0
   15.8244   45.3434   -9.8447 C   0  0  0  0  0  0
   17.2454   45.6601   -9.7145 N   0  0  0  0  0  0
   17.9456   44.9938   -8.6972 C   0  0  0  0  0  0
   18.4483   43.6882   -8.8905 C   0  0  0  0  0  0
   19.1449   43.0476   -7.8406 C   0  0  0  0  0  0
   19.3139   43.7701   -6.6365 C   0  0  0  0  0  0
   18.8611   45.0285   -6.4482 N   0  0  0  0  0  0
   18.1886   45.6169   -7.4558 C   0  0  0  0  0  0
   19.7070   41.6589   -7.9781 C   0  0  0  0  0  0
   20.3663   41.1560   -7.0705 O   0  0  0  0  0  0
   19.4930   41.0259   -9.1497 N   0  0  0  0  0  0
   21.3954   39.2647  -11.0751 H   0  0  0  0  0  0
   19.8711   39.0969   -8.5512 H   0  0  0  0  0  0
   19.9710   45.1242  -11.7947 H   0  0  0  0  0  0
   20.6334   46.6237  -12.4459 H   0  0  0  0  0  0
   19.4915   46.6741  -11.1139 H   0  0  0  0  0  0
   21.0942   45.5415   -9.6285 H   0  0  0  0  0  0
   22.7335   47.3672   -9.3270 H   0  0  0  0  0  0
   21.1263   48.0091   -9.6570 H   0  0  0  0  0  0
   22.3487   48.0032  -10.9270 H   0  0  0  0  0  0
   22.4810   43.7412   -9.5011 H   0  0  0  0  0  0
   25.5817   43.0603  -12.4561 H   0  0  0  0  0  0
   24.9209   45.1115  -13.6008 H   0  0  0  0  0  0
   23.0580   46.5015  -12.7372 H   0  0  0  0  0  0
   26.6847   42.2335  -10.2746 H   0  0  0  0  0  0
   26.0267   41.1661  -11.5094 H   0  0  0  0  0  0
   26.2246   40.5806   -9.8814 H   0  0  0  0  0  0
   25.3016   42.9543   -8.3263 H   0  0  0  0  0  0
   24.8001   41.2938   -8.0400 H   0  0  0  0  0  0
   23.6228   42.5744   -8.1373 H   0  0  0  0  0  0
   23.5849   40.7287  -11.4520 H   0  0  0  0  0  0
   22.2321   41.1645   -8.8601 H   0  0  0  0  0  0
   21.6839   41.6891  -10.4494 H   0  0  0  0  0  0
   22.9097   38.3550   -9.6406 H   0  0  0  0  0  0
   19.0544   39.3915  -11.4535 H   0  0  0  0  0  0
   19.1213   37.9286  -10.5079 H   0  0  0  0  0  0
   17.0878   40.7354  -11.5179 H   0  0  0  0  0  0
   13.7220   39.6518   -9.0428 H   0  0  0  0  0  0
   15.1346   38.0237   -7.8357 H   0  0  0  0  0  0
   17.5108   37.7185   -8.4580 H   0  0  0  0  0  0
   12.6737   41.9210  -10.6779 H   0  0  0  0  0  0
   13.6629   41.8573   -9.2442 H   0  0  0  0  0  0
   13.9055   43.8995  -11.4764 H   0  0  0  0  0  0
   13.3866   44.1646   -9.8295 H   0  0  0  0  0  0
   15.7205   43.3190   -9.1038 H   0  0  0  0  0  0
   16.1771   43.4264  -10.7914 H   0  0  0  0  0  0
   15.4517   45.9034  -10.7044 H   0  0  0  0  0  0
   15.2951   45.7258   -8.9719 H   0  0  0  0  0  0
   17.3774   46.6615   -9.6787 H   0  0  0  0  0  0
   18.2953   43.1984   -9.8416 H   0  0  0  0  0  0
   19.8298   43.3371   -5.7952 H   0  0  0  0  0  0
   17.8314   46.6183   -7.2697 H   0  0  0  0  0  0
   18.9090   41.4855   -9.8316 H   0  0  0  0  0  0
   24.0179   39.9866  -10.0510 H   0  0  0  0  0  0
  1  2  1  0  0  0
  1 42  1  0  0  0
  1 43  1  0  0  0
  1 44  1  0  0  0
  2  3  1  0  0  0
  2  4  1  0  0  0
  2 45  1  0  0  0
  3 46  1  0  0  0
  3 47  1  0  0  0
  3 48  1  0  0  0
  4  9  1  0  0  0
  4  5  2  0  0  0
  5  6  1  0  0  0
  5 49  1  0  0  0
  6  7  2  0  0  0
  6 10  1  0  0  0
  7  8  1  0  0  0
  7 50  1  0  0  0
  8  9  2  0  0  0
  8 51  1  0  0  0
  9 52  1  0  0  0
 10 11  1  0  0  0
 10 12  1  0  0  0
 10 13  1  0  0  0
 11 53  1  0  0  0
 11 54  1  0  0  0
 11 55  1  0  0  0
 12 56  1  0  0  0
 12 57  1  0  0  0
 12 58  1  0  0  0
 13 14  1  0  0  0
 13 59  1  0  0  0
 13 82  1  0  0  0
 14 15  1  0  0  0
 14 60  1  0  0  0
 14 61  1  0  0  0
 15 40  1  0  0  0
 15 16  1  0  0  0
 15 17  1  0  0  0
 16 62  1  0  0  0
 17 41  1  0  0  0
 17 39  1  0  0  0
 17 18  1  0  0  0
 18 19  1  0  0  0
 18 63  1  0  0  0
 18 64  1  0  0  0
 19 24  1  0  0  0
 19 20  2  0  0  0
 20 21  1  0  0  0
 20 65  1  0  0  0
 21 22  2  0  0  0
 21 25  1  0  0  0
 22 23  1  0  0  0
 22 66  1  0  0  0
 23 24  2  0  0  0
 23 67  1  0  0  0
 24 68  1  0  0  0
 25 26  1  0  0  0
 26 27  1  0  0  0
 26 69  1  0  0  0
 26 70  1  0  0  0
 27 28  1  0  0  0
 27 71  1  0  0  0
 27 72  1  0  0  0
 28 29  1  0  0  0
 28 73  1  0  0  0
 28 74  1  0  0  0
 29 30  1  0  0  0
 29 75  1  0  0  0
 29 76  1  0  0  0
 30 31  1  0  0  0
 30 77  1  0  0  0
 31 36  1  0  0  0
 31 32  2  0  0  0
 32 33  1  0  0  0
 32 78  1  0  0  0
 33 34  2  0  0  0
 33 37  1  0  0  0
 34 35  1  0  0  0
 34 79  1  0  0  0
 35 36  2  0  0  0
 36 80  1  0  0  0
 37 38  2  0  0  0
 37 39  1  0  0  0
 39 81  1  0  0  0
M  CHG  1  13   1
M  END
> <s_m_source_file>
BACE_114.smi

> <i_m_source_file_index>
1

> <i_lp_mmshare_version>
42013

> <i_f3d_flags>
0

> <s_epik_input>
W0NIM11bQ0hdKFtDSDNdKWMxW2NIXWMoW2NIXVtjSF1bY0hdMSlDKFtDSDNdKShbQ0gzXSlbTkhdW0NIMl1bQ0BASF0oW09IXSlbQ0BIXShbQ0gyXTIpW05IXUMoPU8pYyhbY0hdbltjSF0zKVtjSF1jM1tOSF1bQ0gyXVtDSDJdW0NIMl1bQ0gyXU9jKFtjSF1jMjQpW2NIXVtjSF1bY0hdNA==

> <s_epik_cmdline>
J2VwaWtfcHl0aG9uJywgJy1waCcsICc3LjAnLCAnLXRuJywgJzgnLCAnLW1hJywgJzIwMCcsICctaW1hZScsICc8aW5maWxlLm1hZT4nLCAnLW9tYWUnLCAnPG91dGZpbGUubWFlPic=

> <r_lp_tautomer_probability>
1

> <r_epik_Ionization_Penalty>
  0.0215

> <r_epik_Ionization_Penalty_Charging>
  0.0201

> <r_epik_Ionization_Penalty_Neutral>
  0.0015

> <r_epik_State_Penalty>
  0.0161

> <r_epik_Charging_Adjusted_Penalty>
0.0361071

> <i_epik_Tot_Q>
1

> <i_epik_Tot_abs_Q>
1

> <s_lp_Force_Field>
OPLS_2005

> <r_lp_Energy>
40.1949

> <b_lp_Chiralities_Consistent>
1

> <s_lp_Variant>
BACE_114.smi:1-1

> <chiral flag>
1

> <version>
0

> <s_i_glide_gridfile>
second_dock_grid_2

> <i_i_glide_lignum>
232

> <i_i_glide_rotatable_bonds>
7

> <r_i_docking_score>
-3.94748

> <r_i_glide_ligand_efficiency>
-0.101217

> <r_i_glide_ligand_efficiency_sa>
-0.343249

> <r_i_glide_ligand_efficiency_ln>
-0.846451

> <r_glide_XP_GScore>
-3.96358

> <r_i_glide_gscore>
-3.96358

> <r_i_glide_evdw>
-38.0244

> <r_i_glide_ecoul>
-13.3272

> <r_i_glide_energy>
-51.3516

> <r_i_glide_einternal>
6.67829

> <r_i_glide_emodel>
-68.521

> <r_glide_XP_HBond>
-0.710266

> <i_i_glide_confnum>
1

> <i_i_glide_posenum>
10

> <r_i_glide_eff_state_penalty>
0.0161

> <i_glide_XP_PoseRank>
1

$$$$
BACE_114.smi:1
                    3D
 Structure written by MMmdl.
 81 84  0  0  1  0            999 V2000
   15.1316   38.2972   -7.9489 C   0  0  0  0  0  0
   16.0972   39.4051   -7.5018 C   0  0  0  0  0  0
   15.3881   40.7594   -7.3961 C   0  0  0  0  0  0
   17.3296   39.5033   -8.3924 C   0  0  0  0  0  0
   18.6044   39.6720   -7.8099 C   0  0  0  0  0  0
   19.7722   39.7486   -8.6074 C   0  0  0  0  0  0
   19.6332   39.6194  -10.0112 C   0  0  0  0  0  0
   18.3657   39.4729  -10.6002 C   0  0  0  0  0  0
   17.2153   39.4246   -9.7965 C   0  0  0  0  0  0
   21.1567   39.8989   -7.9496 C   0  0  0  0  0  0
   21.1474   40.9544   -6.8181 C   0  0  0  0  0  0
   21.5297   38.5370   -7.3462 C   0  0  0  0  0  0
   22.1967   40.2313   -8.9403 N   0  0  0  0  0  0
   22.2959   41.6138   -9.4256 C   0  0  0  0  0  0
   23.0393   41.6657  -10.7760 C   0  0  1  0  0  0
   22.0600   41.4704  -11.7784 O   0  0  0  0  0  0
   23.8358   42.9863  -11.0205 C   0  0  2  0  0  0
   23.3296   43.8703  -12.1919 C   0  0  0  0  0  0
   24.1118   45.1648  -12.3771 C   0  0  0  0  0  0
   24.9595   45.3443  -13.4924 C   0  0  0  0  0  0
   25.7020   46.5331  -13.6555 C   0  0  0  0  0  0
   25.5553   47.5683  -12.7029 C   0  0  0  0  0  0
   24.7065   47.3983  -11.5925 C   0  0  0  0  0  0
   23.9897   46.1990  -11.4273 C   0  0  0  0  0  0
   26.5234   46.6460  -14.7572 O   0  0  0  0  0  0
   27.7945   47.2713  -14.5660 C   0  0  0  0  0  0
   28.9013   46.3040  -15.0171 C   0  0  0  0  0  0
   28.8225   44.9787  -14.2494 C   0  0  0  0  0  0
   29.9106   43.9455  -14.6068 C   0  0  0  0  0  0
   29.6599   42.6005  -14.0853 N   0  0  0  0  0  0
   29.2922   42.5161  -12.7355 C   0  0  0  0  0  0
   27.9567   42.7276  -12.3302 C   0  0  0  0  0  0
   27.6477   42.7561  -10.9558 C   0  0  0  0  0  0
   28.7052   42.5500  -10.0487 C   0  0  0  0  0  0
   29.9748   42.2696  -10.4194 N   0  0  0  0  0  0
   30.2547   42.2554  -11.7384 C   0  0  0  0  0  0
   26.2721   43.0917  -10.4604 C   0  0  0  0  0  0
   26.1206   43.6972   -9.4010 O   0  0  0  0  0  0
   25.2526   42.6758  -11.2275 N   0  0  0  0  0  0
   23.7239   40.8159  -10.8382 H   0  0  0  0  0  0
   23.7375   43.5983  -10.1230 H   0  0  0  0  0  0
   15.6593   37.3499   -8.0489 H   0  0  0  0  0  0
   14.6438   38.5205   -8.8968 H   0  0  0  0  0  0
   14.3481   38.1512   -7.2039 H   0  0  0  0  0  0
   16.4336   39.1309   -6.5001 H   0  0  0  0  0  0
   16.0073   41.4900   -6.8731 H   0  0  0  0  0  0
   14.4602   40.6591   -6.8394 H   0  0  0  0  0  0
   15.1339   41.1582   -8.3784 H   0  0  0  0  0  0
   18.6750   39.7319   -6.7342 H   0  0  0  0  0  0
   20.4950   39.6280  -10.6603 H   0  0  0  0  0  0
   18.2782   39.3853  -11.6724 H   0  0  0  0  0  0
   16.2506   39.3079  -10.2668 H   0  0  0  0  0  0
   20.5251   40.6502   -5.9770 H   0  0  0  0  0  0
   20.7696   41.9167   -7.1652 H   0  0  0  0  0  0
   22.1495   41.1141   -6.4193 H   0  0  0  0  0  0
   20.7759   38.1928   -6.6374 H   0  0  0  0  0  0
   22.4755   38.5816   -6.8100 H   0  0  0  0  0  0
   21.6193   37.7757   -8.1219 H   0  0  0  0  0  0
   23.0960   39.8037   -8.7399 H   0  0  0  0  0  0
   21.3103   42.0718   -9.5216 H   0  0  0  0  0  0
   22.8362   42.2007   -8.6819 H   0  0  0  0  0  0
   22.5360   41.1395  -12.5336 H   0  0  0  0  0  0
   23.3658   43.3048  -13.1244 H   0  0  0  0  0  0
   22.2823   44.1306  -12.0337 H   0  0  0  0  0  0
   25.0574   44.5556  -14.2226 H   0  0  0  0  0  0
   26.0841   48.5025  -12.8190 H   0  0  0  0  0  0
   24.6048   48.1902  -10.8653 H   0  0  0  0  0  0
   23.3439   46.0756  -10.5700 H   0  0  0  0  0  0
   27.8305   48.1896  -15.1523 H   0  0  0  0  0  0
   27.9912   47.5479  -13.5298 H   0  0  0  0  0  0
   28.8181   46.1208  -16.0871 H   0  0  0  0  0  0
   29.8758   46.7659  -14.8574 H   0  0  0  0  0  0
   28.8624   45.1958  -13.1808 H   0  0  0  0  0  0
   27.8414   44.5500  -14.4407 H   0  0  0  0  0  0
   29.9885   43.8590  -15.6907 H   0  0  0  0  0  0
   30.8835   44.2909  -14.2558 H   0  0  0  0  0  0
   30.3905   41.9514  -14.3520 H   0  0  0  0  0  0
   27.1901   42.9133  -13.0681 H   0  0  0  0  0  0
   28.5199   42.5922   -8.9868 H   0  0  0  0  0  0
   31.2858   42.0706  -12.0031 H   0  0  0  0  0  0
   25.4648   42.1190  -12.0415 H   0  0  0  0  0  0
  1  2  1  0  0  0
  1 42  1  0  0  0
  1 43  1  0  0  0
  1 44  1  0  0  0
  2  3  1  0  0  0
  2  4  1  0  0  0
  2 45  1  0  0  0
  3 46  1  0  0  0
  3 47  1  0  0  0
  3 48  1  0  0  0
  4  9  1  0  0  0
  4  5  2  0  0  0
  5  6  1  0  0  0
  5 49  1  0  0  0
  6  7  2  0  0  0
  6 10  1  0  0  0
  7  8  1  0  0  0
  7 50  1  0  0  0
  8  9  2  0  0  0
  8 51  1  0  0  0
  9 52  1  0  0  0
 10 11  1  0  0  0
 10 12  1  0  0  0
 10 13  1  0  0  0
 11 53  1  0  0  0
 11 54  1  0  0  0
 11 55  1  0  0  0
 12 56  1  0  0  0
 12 57  1  0  0  0
 12 58  1  0  0  0
 13 14  1  0  0  0
 13 59  1  0  0  0
 14 15  1  0  0  0
 14 60  1  0  0  0
 14 61  1  0  0  0
 15 40  1  0  0  0
 15 16  1  0  0  0
 15 17  1  0  0  0
 16 62  1  0  0  0
 17 41  1  0  0  0
 17 39  1  0  0  0
 17 18  1  0  0  0
 18 19  1  0  0  0
 18 63  1  0  0  0
 18 64  1  0  0  0
 19 24  1  0  0  0
 19 20  2  0  0  0
 20 21  1  0  0  0
 20 65  1  0  0  0
 21 22  2  0  0  0
 21 25  1  0  0  0
 22 23  1  0  0  0
 22 66  1  0  0  0
 23 24  2  0  0  0
 23 67  1  0  0  0
 24 68  1  0  0  0
 25 26  1  0  0  0
 26 27  1  0  0  0
 26 69  1  0  0  0
 26 70  1  0  0  0
 27 28  1  0  0  0
 27 71  1  0  0  0
 27 72  1  0  0  0
 28 29  1  0  0  0
 28 73  1  0  0  0
 28 74  1  0  0  0
 29 30  1  0  0  0
 29 75  1  0  0  0
 29 76  1  0  0  0
 30 31  1  0  0  0
 30 77  1  0  0  0
 31 36  1  0  0  0
 31 32  2  0  0  0
 32 33  1  0  0  0
 32 78  1  0  0  0
 33 34  2  0  0  0
 33 37  1  0  0  0
 34 35  1  0  0  0
 34 79  1  0  0  0
 35 36  2  0  0  0
 36 80  1  0  0  0
 37 38  2  0  0  0
 37 39  1  0  0  0
 39 81  1  0  0  0
M  END
> <s_m_source_file>
BACE_114.smi

> <i_m_source_file_index>
1

> <i_lp_mmshare_version>
42013

> <i_f3d_flags>
0

> <s_epik_input>
W0NIM11bQ0hdKFtDSDNdKWMxW2NIXWMoW2NIXVtjSF1bY0hdMSlDKFtDSDNdKShbQ0gzXSlbTkhdW0NIMl1bQ0BASF0oW09IXSlbQ0BIXShbQ0gyXTIpW05IXUMoPU8pYyhbY0hdbltjSF0zKVtjSF1jM1tOSF1bQ0gyXVtDSDJdW0NIMl1bQ0gyXU9jKFtjSF1jMjQpW2NIXVtjSF1bY0hdNA==

> <s_epik_cmdline>
J2VwaWtfcHl0aG9uJywgJy1waCcsICc3LjAnLCAnLXRuJywgJzgnLCAnLW1hJywgJzIwMCcsICctaW1hZScsICc8aW5maWxlLm1hZT4nLCAnLW9tYWUnLCAnPG91dGZpbGUubWFlPic=

> <r_lp_tautomer_probability>
1

> <r_epik_Ionization_Penalty>
  2.0179

> <r_epik_Ionization_Penalty_Charging>
  0.0000

> <r_epik_Ionization_Penalty_Neutral>
  2.0179

> <r_epik_State_Penalty>
  2.1460

> <r_epik_Charging_Adjusted_Penalty>
2.14597

> <i_epik_Tot_Q>
0

> <i_epik_Tot_abs_Q>
0

> <s_lp_Force_Field>
OPLS_2005

> <r_lp_Energy>
48.3405

> <b_lp_Chiralities_Consistent>
1

> <s_lp_Variant>
BACE_114.smi:1-2

> <chiral flag>
1

> <version>
0

> <s_i_glide_gridfile>
second_dock_grid_2

> <i_i_glide_lignum>
233

> <i_i_glide_rotatable_bonds>
7

> <r_i_docking_score>
-1.84743

> <r_i_glide_ligand_efficiency>
-0.0473701

> <r_i_glide_ligand_efficiency_sa>
-0.160642

> <r_i_glide_ligand_efficiency_ln>
-0.396142

> <r_glide_XP_GScore>
-3.99343

> <r_i_glide_gscore>
-3.99343

> <r_i_glide_evdw>
-39.0884

> <r_i_glide_ecoul>
-8.919

> <r_i_glide_energy>
-48.0074

> <r_i_glide_einternal>
6.95517

> <r_i_glide_emodel>
-56.0512

> <r_glide_XP_HBond>
-1.12291

> <i_i_glide_confnum>
1

> <i_i_glide_posenum>
8

> <r_i_glide_eff_state_penalty>
2.146

> <i_glide_XP_PoseRank>
1

$$$$
BACE_115.smi:1
                    3D
 Structure written by MMmdl.
 82 85  0  0  1  0            999 V2000
   20.7172   40.6062   -6.4869 C   0  0  0  0  0  0
   20.6709   39.1643   -7.0069 C   0  0  0  0  0  0
   22.0496   38.7921   -7.5737 C   0  0  0  0  0  0
   19.5199   38.9710   -7.9954 C   0  0  0  0  0  0
   19.7332   38.5384   -9.3232 C   0  0  0  0  0  0
   18.6630   38.4944  -10.2294 C   0  0  0  0  0  0
   17.3892   38.9481   -9.8467 C   0  0  0  0  0  0
   17.1500   39.3932   -8.5256 C   0  0  0  0  0  0
   18.2086   39.2993   -7.5901 C   0  0  0  0  0  0
   15.7978   40.0033   -8.1038 C   0  0  0  0  0  0
   14.9269   40.3964   -9.3179 C   0  0  0  0  0  0
   15.0157   38.9504   -7.2950 C   0  0  0  0  0  0
   15.9635   41.2113   -7.2400 N   0  3  0  0  0  0
   17.0206   42.2256   -7.5209 C   0  0  0  0  0  0
   16.6738   43.3268   -8.5428 C   0  0  1  0  0  0
   15.5592   44.0375   -8.0407 O   0  0  0  0  0  0
   17.8228   44.3507   -8.8418 C   0  0  2  0  0  0
   18.1759   44.4266  -10.3473 C   0  0  0  0  0  0
   19.1018   43.3309  -10.8673 C   0  0  0  0  0  0
   18.5616   42.1607  -11.4431 C   0  0  0  0  0  0
   19.4123   41.1801  -11.9860 C   0  0  0  0  0  0
   20.8100   41.3498  -11.9419 C   0  0  0  0  0  0
   21.3620   42.5146  -11.3694 C   0  0  0  0  0  0
   22.8674   42.7324  -11.4129 C   0  0  0  0  0  0
   23.6773   41.7688  -10.5244 C   0  0  0  0  0  0
   23.5321   42.0052   -9.0134 C   0  0  0  0  0  0
   24.1532   43.3311   -8.5363 C   0  0  0  0  0  0
   24.1462   43.4629   -7.0848 N   0  0  0  0  0  0
   22.9468   43.5802   -6.3679 C   0  0  0  0  0  0
   22.9491   43.2248   -5.0040 C   0  0  0  0  0  0
   21.7666   43.3038   -4.2442 C   0  0  0  0  0  0
   20.5725   43.7502   -4.8412 C   0  0  0  0  0  0
   20.5561   44.1195   -6.2032 C   0  0  0  0  0  0
   21.7474   44.0385   -6.9590 C   0  0  0  0  0  0
   19.2884   44.6088   -6.8324 C   0  0  0  0  0  0
   18.5204   45.3501   -6.2193 O   0  0  0  0  0  0
   19.0365   44.1179   -8.0559 N   0  0  0  0  0  0
   20.5046   43.5010  -10.8338 C   0  0  0  0  0  0
   16.3663   42.8701   -9.4796 H   0  0  0  0  0  0
   17.4552   45.3472   -8.5863 H   0  0  0  0  0  0
   19.8096   40.8746   -5.9510 H   0  0  0  0  0  0
   20.8313   41.3133   -7.3065 H   0  0  0  0  0  0
   21.5502   40.7483   -5.7986 H   0  0  0  0  0  0
   20.4683   38.5149   -6.1580 H   0  0  0  0  0  0
   22.0600   37.7500   -7.8798 H   0  0  0  0  0  0
   22.8352   38.9452   -6.8355 H   0  0  0  0  0  0
   22.3065   39.3970   -8.4439 H   0  0  0  0  0  0
   20.7112   38.2506   -9.6797 H   0  0  0  0  0  0
   18.8334   38.1545  -11.2407 H   0  0  0  0  0  0
   16.6112   38.9498  -10.5941 H   0  0  0  0  0  0
   18.0394   39.5971   -6.5661 H   0  0  0  0  0  0
   14.5496   39.5208   -9.8465 H   0  0  0  0  0  0
   15.4682   40.9996  -10.0434 H   0  0  0  0  0  0
   14.0595   40.9717   -9.0039 H   0  0  0  0  0  0
   14.7763   38.0830   -7.9098 H   0  0  0  0  0  0
   14.0712   39.3459   -6.9153 H   0  0  0  0  0  0
   15.5806   38.5684   -6.4406 H   0  0  0  0  0  0
   15.0742   41.6731   -7.1041 H   0  0  0  0  0  0
   17.2008   42.7180   -6.5691 H   0  0  0  0  0  0
   17.9640   41.7655   -7.7982 H   0  0  0  0  0  0
   15.6585   44.1261   -7.0958 H   0  0  0  0  0  0
   17.2669   44.4540  -10.9494 H   0  0  0  0  0  0
   18.6691   45.3801  -10.5393 H   0  0  0  0  0  0
   17.4922   42.0160  -11.4880 H   0  0  0  0  0  0
   18.9939   40.2938  -12.4411 H   0  0  0  0  0  0
   21.4582   40.5977  -12.3715 H   0  0  0  0  0  0
   23.1790   42.5948  -12.4497 H   0  0  0  0  0  0
   23.1040   43.7691  -11.1734 H   0  0  0  0  0  0
   23.4018   40.7398  -10.7599 H   0  0  0  0  0  0
   24.7320   41.8499  -10.7878 H   0  0  0  0  0  0
   22.4792   41.9547   -8.7436 H   0  0  0  0  0  0
   24.0211   41.1816   -8.4907 H   0  0  0  0  0  0
   25.1944   43.3745   -8.8601 H   0  0  0  0  0  0
   23.6613   44.1893   -8.9920 H   0  0  0  0  0  0
   24.9633   43.1271   -6.5928 H   0  0  0  0  0  0
   23.8594   42.8852   -4.5300 H   0  0  0  0  0  0
   21.7775   43.0266   -3.2005 H   0  0  0  0  0  0
   19.6704   43.7960   -4.2477 H   0  0  0  0  0  0
   21.7348   44.3344   -7.9959 H   0  0  0  0  0  0
   19.7273   43.5026   -8.4636 H   0  0  0  0  0  0
   20.9235   44.4053  -10.4191 H   0  0  0  0  0  0
   16.2192   40.8437   -6.3315 H   0  0  0  0  0  0
  1  2  1  0  0  0
  1 41  1  0  0  0
  1 42  1  0  0  0
  1 43  1  0  0  0
  2  3  1  0  0  0
  2  4  1  0  0  0
  2 44  1  0  0  0
  3 45  1  0  0  0
  3 46  1  0  0  0
  3 47  1  0  0  0
  4  9  1  0  0  0
  4  5  2  0  0  0
  5  6  1  0  0  0
  5 48  1  0  0  0
  6  7  2  0  0  0
  6 49  1  0  0  0
  7  8  1  0  0  0
  7 50  1  0  0  0
  8  9  2  0  0  0
  8 10  1  0  0  0
  9 51  1  0  0  0
 10 11  1  0  0  0
 10 12  1  0  0  0
 10 13  1  0  0  0
 11 52  1  0  0  0
 11 53  1  0  0  0
 11 54  1  0  0  0
 12 55  1  0  0  0
 12 56  1  0  0  0
 12 57  1  0  0  0
 13 14  1  0  0  0
 13 58  1  0  0  0
 13 82  1  0  0  0
 14 15  1  0  0  0
 14 59  1  0  0  0
 14 60  1  0  0  0
 15 39  1  0  0  0
 15 16  1  0  0  0
 15 17  1  0  0  0
 16 61  1  0  0  0
 17 40  1  0  0  0
 17 37  1  0  0  0
 17 18  1  0  0  0
 18 19  1  0  0  0
 18 62  1  0  0  0
 18 63  1  0  0  0
 19 38  1  0  0  0
 19 20  2  0  0  0
 20 21  1  0  0  0
 20 64  1  0  0  0
 21 22  2  0  0  0
 21 65  1  0  0  0
 22 23  1  0  0  0
 22 66  1  0  0  0
 23 24  1  0  0  0
 23 38  2  0  0  0
 24 25  1  0  0  0
 24 67  1  0  0  0
 24 68  1  0  0  0
 25 26  1  0  0  0
 25 69  1  0  0  0
 25 70  1  0  0  0
 26 27  1  0  0  0
 26 71  1  0  0  0
 26 72  1  0  0  0
 27 28  1  0  0  0
 27 73  1  0  0  0
 27 74  1  0  0  0
 28 29  1  0  0  0
 28 75  1  0  0  0
 29 34  1  0  0  0
 29 30  2  0  0  0
 30 31  1  0  0  0
 30 76  1  0  0  0
 31 32  2  0  0  0
 31 77  1  0  0  0
 32 33  1  0  0  0
 32 78  1  0  0  0
 33 34  2  0  0  0
 33 35  1  0  0  0
 34 79  1  0  0  0
 35 36  2  0  0  0
 35 37  1  0  0  0
 37 80  1  0  0  0
 38 81  1  0  0  0
M  CHG  1  13   1
M  END
> <s_m_source_file>
BACE_115.smi

> <i_m_source_file_index>
1

> <i_lp_mmshare_version>
42013

> <i_f3d_flags>
0

> <s_epik_input>
W0NIM11bQ0hdKFtDSDNdKWMxW2NIXVtjSF1bY0hdYyhbY0hdMSlDKFtDSDNdKShbQ0gzXSlbTkhdW0NIMl1bQ0BASF0oW09IXSlbQ0BIXShbQ0gyXTIpW05IXUMoPU8pYyhbY0hdMylbY0hdW2NIXVtjSF1jM1tOSF1bQ0gyXVtDSDJdW0NIMl1bQ0gyXWMoW2NIXTQpW2NIXVtjSF1bY0hdYzI0

> <s_epik_cmdline>
J2VwaWtfcHl0aG9uJywgJy1waCcsICc3LjAnLCAnLXRuJywgJzgnLCAnLW1hJywgJzIwMCcsICctaW1hZScsICc8aW5maWxlLm1hZT4nLCAnLW9tYWUnLCAnPG91dGZpbGUubWFlPic=

> <r_epik_Ionization_Penalty>
  0.0197

> <r_epik_Ionization_Penalty_Charging>
  0.0191

> <r_epik_Ionization_Penalty_Neutral>
  0.0006

> <r_epik_State_Penalty>
  0.0153

> <r_epik_Charging_Adjusted_Penalty>
0.0343718

> <i_epik_Tot_Q>
1

> <i_epik_Tot_abs_Q>
1

> <s_lp_Force_Field>
OPLS_2005

> <r_lp_Energy>
33.0906

> <b_lp_Chiralities_Consistent>
1

> <s_lp_Variant>
BACE_115.smi:1-1

> <chiral flag>
1

> <version>
0

> <s_i_glide_gridfile>
second_dock_grid_2

> <i_i_glide_lignum>
234

> <i_i_glide_rotatable_bonds>
7

> <r_i_docking_score>
-6.16131

> <r_i_glide_ligand_efficiency>
-0.16214

> <r_i_glide_ligand_efficiency_sa>
-0.54511

> <r_i_glide_ligand_efficiency_ln>
-1.32856

> <r_glide_XP_GScore>
-6.17661

> <r_i_glide_gscore>
-6.17661

> <r_i_glide_evdw>
-38.6649

> <r_i_glide_ecoul>
-16.9065

> <r_i_glide_energy>
-55.5714

> <r_i_glide_einternal>
12.6532

> <r_i_glide_emodel>
-70.044

> <r_glide_XP_HBond>
-0.48

> <i_i_glide_confnum>
1

> <i_i_glide_posenum>
11

> <r_i_glide_eff_state_penalty>
0.0153

> <i_glide_XP_PoseRank>
1

$$$$
BACE_115.smi:1
                    3D
 Structure written by MMmdl.
 81 84  0  0  1  0            999 V2000
   22.2687   50.5917   -2.9096 C   0  0  0  0  0  0
   23.5506   50.1750   -2.1591 C   0  0  0  0  0  0
   24.3045   51.4370   -1.6918 C   0  0  0  0  0  0
   24.4416   49.1883   -2.9275 C   0  0  0  0  0  0
   25.7950   49.0287   -2.5587 C   0  0  0  0  0  0
   26.6230   48.1198   -3.2398 C   0  0  0  0  0  0
   26.1064   47.3518   -4.2962 C   0  0  0  0  0  0
   24.7610   47.4945   -4.7103 C   0  0  0  0  0  0
   23.9357   48.4032   -3.9963 C   0  0  0  0  0  0
   24.2230   46.6642   -5.8970 C   0  0  0  0  0  0
   22.9849   47.3288   -6.5446 C   0  0  0  0  0  0
   25.3055   46.5850   -7.0043 C   0  0  0  0  0  0
   23.8833   45.3191   -5.3705 N   0  0  0  0  0  0
   23.7469   44.1715   -6.2865 C   0  0  0  0  0  0
   22.3564   44.0231   -6.9536 C   0  0  1  0  0  0
   22.5247   43.3598   -8.1893 O   0  0  0  0  0  0
   21.2917   43.2721   -6.1094 C   0  0  2  0  0  0
   21.6191   41.7976   -5.7316 C   0  0  0  0  0  0
   21.3155   40.7306   -6.7780 C   0  0  0  0  0  0
   22.3299   40.2746   -7.6464 C   0  0  0  0  0  0
   22.0597   39.2525   -8.5771 C   0  0  0  0  0  0
   20.7849   38.6574   -8.6273 C   0  0  0  0  0  0
   19.7664   39.0907   -7.7525 C   0  0  0  0  0  0
   18.4024   38.4131   -7.7517 C   0  0  0  0  0  0
   17.6051   38.5775   -9.0567 C   0  0  0  0  0  0
   17.1124   40.0036   -9.3353 C   0  0  0  0  0  0
   15.9906   40.4627   -8.3863 C   0  0  0  0  0  0
   15.4295   41.7453   -8.7873 N   0  0  0  0  0  0
   16.0826   42.9583   -8.5141 C   0  0  0  0  0  0
   15.5082   44.1419   -9.0213 C   0  0  0  0  0  0
   16.1093   45.3920   -8.7843 C   0  0  0  0  0  0
   17.2998   45.4668   -8.0351 C   0  0  0  0  0  0
   17.8975   44.2950   -7.5221 C   0  0  0  0  0  0
   17.2766   43.0433   -7.7572 C   0  0  0  0  0  0
   19.1358   44.3996   -6.6775 C   0  0  0  0  0  0
   19.3320   45.3978   -5.9784 O   0  0  0  0  0  0
   19.9908   43.3700   -6.7682 N   0  0  0  0  0  0
   20.0384   40.1311   -6.8401 C   0  0  0  0  0  0
   21.9618   45.0059   -7.1979 H   0  0  0  0  0  0
   21.2325   43.8192   -5.1644 H   0  0  0  0  0  0
   21.6007   49.7516   -3.1012 H   0  0  0  0  0  0
   22.5024   51.0523   -3.8687 H   0  0  0  0  0  0
   21.6897   51.3114   -2.3293 H   0  0  0  0  0  0
   23.2406   49.6543   -1.2534 H   0  0  0  0  0  0
   25.0623   51.2129   -0.9426 H   0  0  0  0  0  0
   23.6199   52.1499   -1.2358 H   0  0  0  0  0  0
   24.7970   51.9412   -2.5217 H   0  0  0  0  0  0
   26.2248   49.5841   -1.7386 H   0  0  0  0  0  0
   27.6559   48.0083   -2.9471 H   0  0  0  0  0  0
   26.7723   46.6536   -4.7805 H   0  0  0  0  0  0
   22.9025   48.5010   -4.2770 H   0  0  0  0  0  0
   23.1775   48.3798   -6.7620 H   0  0  0  0  0  0
   22.1031   47.2650   -5.9048 H   0  0  0  0  0  0
   22.7382   46.8722   -7.5039 H   0  0  0  0  0  0
   25.6666   47.5815   -7.2675 H   0  0  0  0  0  0
   24.9200   46.1455   -7.9253 H   0  0  0  0  0  0
   26.1691   45.9846   -6.7149 H   0  0  0  0  0  0
   24.5075   45.0874   -4.5973 H   0  0  0  0  0  0
   24.5253   44.2022   -7.0507 H   0  0  0  0  0  0
   23.9780   43.2638   -5.7324 H   0  0  0  0  0  0
   22.6164   42.4332   -8.0303 H   0  0  0  0  0  0
   22.6459   41.6888   -5.3916 H   0  0  0  0  0  0
   21.0228   41.5489   -4.8521 H   0  0  0  0  0  0
   23.3268   40.6916   -7.6006 H   0  0  0  0  0  0
   22.8473   38.9161   -9.2374 H   0  0  0  0  0  0
   20.5940   37.8561   -9.3255 H   0  0  0  0  0  0
   18.5657   37.3511   -7.5708 H   0  0  0  0  0  0
   17.8147   38.7596   -6.9017 H   0  0  0  0  0  0
   18.2126   38.2345   -9.8941 H   0  0  0  0  0  0
   16.7433   37.9113   -9.0252 H   0  0  0  0  0  0
   17.9498   40.7017   -9.3035 H   0  0  0  0  0  0
   16.7366   40.0387  -10.3578 H   0  0  0  0  0  0
   15.1768   39.7351   -8.4041 H   0  0  0  0  0  0
   16.3264   40.5016   -7.3494 H   0  0  0  0  0  0
   14.4580   41.7609   -9.0579 H   0  0  0  0  0  0
   14.6001   44.0925   -9.6033 H   0  0  0  0  0  0
   15.6614   46.2922   -9.1774 H   0  0  0  0  0  0
   17.7505   46.4304   -7.8499 H   0  0  0  0  0  0
   17.7139   42.1520   -7.3323 H   0  0  0  0  0  0
   19.7386   42.6040   -7.3741 H   0  0  0  0  0  0
   19.2602   40.4490   -6.1654 H   0  0  0  0  0  0
  1  2  1  0  0  0
  1 41  1  0  0  0
  1 42  1  0  0  0
  1 43  1  0  0  0
  2  3  1  0  0  0
  2  4  1  0  0  0
  2 44  1  0  0  0
  3 45  1  0  0  0
  3 46  1  0  0  0
  3 47  1  0  0  0
  4  9  1  0  0  0
  4  5  2  0  0  0
  5  6  1  0  0  0
  5 48  1  0  0  0
  6  7  2  0  0  0
  6 49  1  0  0  0
  7  8  1  0  0  0
  7 50  1  0  0  0
  8  9  2  0  0  0
  8 10  1  0  0  0
  9 51  1  0  0  0
 10 11  1  0  0  0
 10 12  1  0  0  0
 10 13  1  0  0  0
 11 52  1  0  0  0
 11 53  1  0  0  0
 11 54  1  0  0  0
 12 55  1  0  0  0
 12 56  1  0  0  0
 12 57  1  0  0  0
 13 14  1  0  0  0
 13 58  1  0  0  0
 14 15  1  0  0  0
 14 59  1  0  0  0
 14 60  1  0  0  0
 15 39  1  0  0  0
 15 16  1  0  0  0
 15 17  1  0  0  0
 16 61  1  0  0  0
 17 40  1  0  0  0
 17 37  1  0  0  0
 17 18  1  0  0  0
 18 19  1  0  0  0
 18 62  1  0  0  0
 18 63  1  0  0  0
 19 38  1  0  0  0
 19 20  2  0  0  0
 20 21  1  0  0  0
 20 64  1  0  0  0
 21 22  2  0  0  0
 21 65  1  0  0  0
 22 23  1  0  0  0
 22 66  1  0  0  0
 23 24  1  0  0  0
 23 38  2  0  0  0
 24 25  1  0  0  0
 24 67  1  0  0  0
 24 68  1  0  0  0
 25 26  1  0  0  0
 25 69  1  0  0  0
 25 70  1  0  0  0
 26 27  1  0  0  0
 26 71  1  0  0  0
 26 72  1  0  0  0
 27 28  1  0  0  0
 27 73  1  0  0  0
 27 74  1  0  0  0
 28 29  1  0  0  0
 28 75  1  0  0  0
 29 34  1  0  0  0
 29 30  2  0  0  0
 30 31  1  0  0  0
 30 76  1  0  0  0
 31 32  2  0  0  0
 31 77  1  0  0  0
 32 33  1  0  0  0
 32 78  1  0  0  0
 33 34  2  0  0  0
 33 35  1  0  0  0
 34 79  1  0  0  0
 35 36  2  0  0  0
 35 37  1  0  0  0
 37 80  1  0  0  0
 38 81  1  0  0  0
M  END
> <s_m_source_file>
BACE_115.smi

> <i_m_source_file_index>
1

> <i_lp_mmshare_version>
42013

> <i_f3d_flags>
0

> <s_epik_input>
W0NIM11bQ0hdKFtDSDNdKWMxW2NIXVtjSF1bY0hdYyhbY0hdMSlDKFtDSDNdKShbQ0gzXSlbTkhdW0NIMl1bQ0BASF0oW09IXSlbQ0BIXShbQ0gyXTIpW05IXUMoPU8pYyhbY0hdMylbY0hdW2NIXVtjSF1jM1tOSF1bQ0gyXVtDSDJdW0NIMl1bQ0gyXWMoW2NIXTQpW2NIXVtjSF1bY0hdYzI0

> <s_epik_cmdline>
J2VwaWtfcHl0aG9uJywgJy1waCcsICc3LjAnLCAnLXRuJywgJzgnLCAnLW1hJywgJzIwMCcsICctaW1hZScsICc8aW5maWxlLm1hZT4nLCAnLW9tYWUnLCAnPG91dGZpbGUubWFlPic=

> <r_epik_Ionization_Penalty>
  2.0446

> <r_epik_Ionization_Penalty_Charging>
  0.0000

> <r_epik_Ionization_Penalty_Neutral>
  2.0446

> <r_epik_State_Penalty>
  2.1759

> <r_epik_Charging_Adjusted_Penalty>
2.17586

> <i_epik_Tot_Q>
0

> <i_epik_Tot_abs_Q>
0

> <s_lp_Force_Field>
OPLS_2005

> <r_lp_Energy>
37.9725

> <b_lp_Chiralities_Consistent>
1

> <s_lp_Variant>
BACE_115.smi:1-2

> <chiral flag>
1

> <version>
0

> <s_i_glide_gridfile>
second_dock_grid_2

> <i_i_glide_lignum>
235

> <i_i_glide_rotatable_bonds>
7

> <r_i_docking_score>
-1.87556

> <r_i_glide_ligand_efficiency>
-0.0493567

> <r_i_glide_ligand_efficiency_sa>
-0.165936

> <r_i_glide_ligand_efficiency_ln>
-0.404425

> <r_glide_XP_GScore>
-4.05146

> <r_i_glide_gscore>
-4.05146

> <r_i_glide_evdw>
-39.0613

> <r_i_glide_ecoul>
-8.14664

> <r_i_glide_energy>
-47.2079

> <r_i_glide_einternal>
3.06519

> <r_i_glide_emodel>
-63.2488

> <r_glide_XP_HBond>
0

> <i_i_glide_confnum>
1

> <i_i_glide_posenum>
5

> <r_i_glide_eff_state_penalty>
2.1759

> <i_glide_XP_PoseRank>
2

$$$$
BACE_116.smi:1
                    3D
 Structure written by MMmdl.
 84 87  0  0  1  0            999 V2000
   15.6629   44.9367   -8.4250 C   0  0  0  0  0  0
   14.6114   44.1082   -9.1799 C   0  0  0  0  0  0
   13.2827   43.9973   -8.4082 C   0  0  0  0  0  0
   15.1781   42.7561   -9.5925 C   0  0  0  0  0  0
   15.8150   42.6229  -10.8433 C   0  0  0  0  0  0
   16.3472   41.3818  -11.2389 C   0  0  0  0  0  0
   16.2400   40.2670  -10.3897 C   0  0  0  0  0  0
   15.6143   40.3795   -9.1242 C   0  0  0  0  0  0
   15.1005   41.6370   -8.7352 C   0  0  0  0  0  0
   15.5360   39.1960   -8.1414 C   0  0  0  0  0  0
   14.1084   38.9946   -7.6230 C   0  0  0  0  0  0
   15.9695   37.8456   -8.7717 C   0  0  0  0  0  0
   16.3735   39.4920   -6.9560 N   0  3  0  0  0  0
   17.7881   39.8409   -7.2417 C   0  0  0  0  0  0
   18.7469   39.1218   -6.2724 C   0  0  1  0  0  0
   18.4605   37.7500   -6.4380 O   0  0  0  0  0  0
   20.2869   39.3528   -6.4926 C   0  0  2  0  0  0
   21.0057   40.1882   -5.3851 C   0  0  0  0  0  0
   21.3632   41.6458   -5.7123 C   0  0  0  0  0  0
   20.5164   42.6810   -5.2825 C   0  0  0  0  0  0
   20.7875   44.0240   -5.5852 C   0  0  0  0  0  0
   19.9001   44.9896   -5.2401 F   0  0  0  0  0  0
   21.9850   44.3668   -6.2380 C   0  0  0  0  0  0
   22.2441   45.7124   -6.4975 N   0  0  0  0  0  0
   22.9006   43.3504   -6.6038 C   0  0  0  0  0  0
   24.2540   43.7195   -7.2034 C   0  0  0  0  0  0
   24.1850   44.0123   -8.7082 C   0  0  0  0  0  0
   24.4977   42.7845   -9.5746 C   0  0  0  0  0  0
   24.0929   42.9753  -11.0460 C   0  0  0  0  0  0
   22.6532   43.1074  -11.2580 N   0  0  0  0  0  0
   21.9566   41.8945  -11.3026 C   0  0  0  0  0  0
   21.5765   41.3501  -12.5437 C   0  0  0  0  0  0
   20.8600   40.1487  -12.6178 C   0  0  0  0  0  0
   20.5321   39.4602  -11.4395 C   0  0  0  0  0  0
   20.9289   39.9724  -10.1858 C   0  0  0  0  0  0
   21.6249   41.2015  -10.1242 C   0  0  0  0  0  0
   20.6492   39.1848   -8.9463 C   0  0  0  0  0  0
   20.4241   37.9790   -9.0086 O   0  0  0  0  0  0
   20.5853   39.8964   -7.8119 N   0  0  0  0  0  0
   22.5622   41.9924   -6.3781 C   0  0  0  0  0  0
   18.4937   39.3359   -5.2374 H   0  0  0  0  0  0
   20.7628   38.3710   -6.4403 H   0  0  0  0  0  0
   16.5321   45.1257   -9.0562 H   0  0  0  0  0  0
   16.0191   44.4158   -7.5365 H   0  0  0  0  0  0
   15.2643   45.9019   -8.1139 H   0  0  0  0  0  0
   14.3847   44.6475  -10.1012 H   0  0  0  0  0  0
   12.5479   43.4317   -8.9825 H   0  0  0  0  0  0
   12.8600   44.9780   -8.2105 H   0  0  0  0  0  0
   13.3959   43.5035   -7.4443 H   0  0  0  0  0  0
   15.9033   43.4774  -11.4959 H   0  0  0  0  0  0
   16.8461   41.2817  -12.1926 H   0  0  0  0  0  0
   16.6684   39.3374  -10.7322 H   0  0  0  0  0  0
   14.6483   41.7390   -7.7597 H   0  0  0  0  0  0
   13.3864   38.9459   -8.4401 H   0  0  0  0  0  0
   13.7945   39.7765   -6.9370 H   0  0  0  0  0  0
   14.0595   38.0734   -7.0462 H   0  0  0  0  0  0
   15.3235   37.5747   -9.6071 H   0  0  0  0  0  0
   15.9072   37.0420   -8.0407 H   0  0  0  0  0  0
   16.9943   37.8379   -9.1369 H   0  0  0  0  0  0
   15.9548   40.2551   -6.4403 H   0  0  0  0  0  0
   18.0313   39.5455   -8.2578 H   0  0  0  0  0  0
   17.9136   40.9253   -7.2328 H   0  0  0  0  0  0
   17.6367   37.4909   -6.0402 H   0  0  0  0  0  0
   20.4424   40.1533   -4.4516 H   0  0  0  0  0  0
   21.9490   39.6920   -5.1488 H   0  0  0  0  0  0
   19.6599   42.4467   -4.6872 H   0  0  0  0  0  0
   22.9840   45.9703   -7.1370 H   0  0  0  0  0  0
   21.4953   46.3833   -6.3953 H   0  0  0  0  0  0
   24.6295   44.5986   -6.6814 H   0  0  0  0  0  0
   24.9942   42.9480   -6.9935 H   0  0  0  0  0  0
   23.2128   44.4392   -8.9584 H   0  0  0  0  0  0
   24.9173   44.7818   -8.9541 H   0  0  0  0  0  0
   25.5703   42.5953   -9.5313 H   0  0  0  0  0  0
   24.0437   41.8866   -9.1606 H   0  0  0  0  0  0
   24.5749   43.8698  -11.4386 H   0  0  0  0  0  0
   24.4772   42.1498  -11.6403 H   0  0  0  0  0  0
   22.4607   43.6917  -12.0565 H   0  0  0  0  0  0
   21.8807   41.8269  -13.4620 H   0  0  0  0  0  0
   20.5848   39.7509  -13.5823 H   0  0  0  0  0  0
   19.9945   38.5254  -11.5047 H   0  0  0  0  0  0
   21.9132   41.6239   -9.1745 H   0  0  0  0  0  0
   20.7697   40.8878   -7.8637 H   0  0  0  0  0  0
   23.2503   41.2158   -6.6869 H   0  0  0  0  0  0
   16.3309   38.6715   -6.3662 H   0  0  0  0  0  0
  1  2  1  0  0  0
  1 43  1  0  0  0
  1 44  1  0  0  0
  1 45  1  0  0  0
  2  3  1  0  0  0
  2  4  1  0  0  0
  2 46  1  0  0  0
  3 47  1  0  0  0
  3 48  1  0  0  0
  3 49  1  0  0  0
  4  9  1  0  0  0
  4  5  2  0  0  0
  5  6  1  0  0  0
  5 50  1  0  0  0
  6  7  2  0  0  0
  6 51  1  0  0  0
  7  8  1  0  0  0
  7 52  1  0  0  0
  8  9  2  0  0  0
  8 10  1  0  0  0
  9 53  1  0  0  0
 10 11  1  0  0  0
 10 12  1  0  0  0
 10 13  1  0  0  0
 11 54  1  0  0  0
 11 55  1  0  0  0
 11 56  1  0  0  0
 12 57  1  0  0  0
 12 58  1  0  0  0
 12 59  1  0  0  0
 13 14  1  0  0  0
 13 60  1  0  0  0
 13 84  1  0  0  0
 14 15  1  0  0  0
 14 61  1  0  0  0
 14 62  1  0  0  0
 15 41  1  0  0  0
 15 16  1  0  0  0
 15 17  1  0  0  0
 16 63  1  0  0  0
 17 42  1  0  0  0
 17 39  1  0  0  0
 17 18  1  0  0  0
 18 19  1  0  0  0
 18 64  1  0  0  0
 18 65  1  0  0  0
 19 40  1  0  0  0
 19 20  2  0  0  0
 20 21  1  0  0  0
 20 66  1  0  0  0
 21 22  1  0  0  0
 21 23  2  0  0  0
 23 24  1  0  0  0
 23 25  1  0  0  0
 24 67  1  0  0  0
 24 68  1  0  0  0
 25 26  1  0  0  0
 25 40  2  0  0  0
 26 27  1  0  0  0
 26 69  1  0  0  0
 26 70  1  0  0  0
 27 28  1  0  0  0
 27 71  1  0  0  0
 27 72  1  0  0  0
 28 29  1  0  0  0
 28 73  1  0  0  0
 28 74  1  0  0  0
 29 30  1  0  0  0
 29 75  1  0  0  0
 29 76  1  0  0  0
 30 31  1  0  0  0
 30 77  1  0  0  0
 31 36  1  0  0  0
 31 32  2  0  0  0
 32 33  1  0  0  0
 32 78  1  0  0  0
 33 34  2  0  0  0
 33 79  1  0  0  0
 34 35  1  0  0  0
 34 80  1  0  0  0
 35 36  2  0  0  0
 35 37  1  0  0  0
 36 81  1  0  0  0
 37 38  2  0  0  0
 37 39  1  0  0  0
 39 82  1  0  0  0
 40 83  1  0  0  0
M  CHG  1  13   1
M  END
> <s_m_source_file>
BACE_116.smi

> <i_m_source_file_index>
1

> <i_lp_mmshare_version>
42013

> <i_f3d_flags>
0

> <s_epik_input>
W0NIM11bQ0hdKFtDSDNdKWMxW2NIXVtjSF1bY0hdYyhbY0hdMSlDKFtDSDNdKShbQ0gzXSlbTkhdW0NIMl1bQ0BASF0oW09IXSlbQ0BIXShbQ0gyXTIpW05IXUMoPU8pYyhbY0hdMylbY0hdW2NIXVtjSF1jM1tOSF1bQ0gyXVtDSDJdW0NIMl1bQ0gyXWMoW2NIXTQpYyhbTkgyXSljKEYpW2NIXWMyNA==

> <s_epik_cmdline>
J2VwaWtfcHl0aG9uJywgJy1waCcsICc3LjAnLCAnLXRuJywgJzgnLCAnLW1hJywgJzIwMCcsICctaW1hZScsICc8aW5maWxlLm1hZT4nLCAnLW9tYWUnLCAnPG91dGZpbGUubWFlPic=

> <r_epik_Ionization_Penalty>
  0.0210

> <r_epik_Ionization_Penalty_Charging>
  0.0191

> <r_epik_Ionization_Penalty_Neutral>
  0.0019

> <r_epik_State_Penalty>
  0.0153

> <r_epik_Charging_Adjusted_Penalty>
0.0343718

> <i_epik_Tot_Q>
1

> <i_epik_Tot_abs_Q>
1

> <s_lp_Force_Field>
OPLS_2005

> <r_lp_Energy>
36.8855

> <b_lp_Chiralities_Consistent>
1

> <s_lp_Variant>
BACE_116.smi:1-1

> <chiral flag>
1

> <version>
0

> <s_i_glide_gridfile>
second_dock_grid_2

> <i_i_glide_lignum>
236

> <i_i_glide_rotatable_bonds>
7

> <r_i_docking_score>
-5.25927

> <r_i_glide_ligand_efficiency>
-0.131482

> <r_i_glide_ligand_efficiency_sa>
-0.449661

> <r_i_glide_ligand_efficiency_ln>
-1.12165

> <r_glide_XP_GScore>
-5.27457

> <r_i_glide_gscore>
-5.27457

> <r_i_glide_evdw>
-40.3207

> <r_i_glide_ecoul>
-11.3642

> <r_i_glide_energy>
-51.6849

> <r_i_glide_einternal>
3.56518

> <r_i_glide_emodel>
-65.5932

> <r_glide_XP_HBond>
-0.507005

> <i_i_glide_confnum>
1

> <i_i_glide_posenum>
1

> <r_i_glide_eff_state_penalty>
0.0153

> <i_glide_XP_PoseRank>
1

$$$$
BACE_116.smi:1
                    3D
 Structure written by MMmdl.
 83 86  0  0  1  0            999 V2000
   15.2042   39.1130   -7.2208 C   0  0  0  0  0  0
   15.9480   40.0369   -8.1927 C   0  0  0  0  0  0
   15.1081   40.3225   -9.4493 C   0  0  0  0  0  0
   17.3312   39.4864   -8.5269 C   0  0  0  0  0  0
   17.4811   38.3939   -9.4055 C   0  0  0  0  0  0
   18.7622   37.8876   -9.6893 C   0  0  0  0  0  0
   19.9000   38.4562   -9.0896 C   0  0  0  0  0  0
   19.7739   39.5447   -8.1916 C   0  0  0  0  0  0
   18.4762   40.0491   -7.9247 C   0  0  0  0  0  0
   21.0296   40.1165   -7.5048 C   0  0  0  0  0  0
   20.7532   41.4446   -6.7585 C   0  0  0  0  0  0
   21.5299   39.1020   -6.4594 C   0  0  0  0  0  0
   22.1271   40.3382   -8.4630 N   0  0  0  0  0  0
   21.8638   41.2194   -9.6066 C   0  0  0  0  0  0
   23.1683   41.6355  -10.3087 C   0  0  1  0  0  0
   22.7678   42.2786  -11.4988 O   0  0  0  0  0  0
   24.0320   42.5976   -9.4400 C   0  0  2  0  0  0
   23.5384   44.0645   -9.3857 C   0  0  0  0  0  0
   24.1290   44.8385   -8.2179 C   0  0  0  0  0  0
   23.4058   44.9771   -7.0145 C   0  0  0  0  0  0
   23.9677   45.6809   -5.9299 C   0  0  0  0  0  0
   23.2577   45.8254   -4.7829 F   0  0  0  0  0  0
   25.2629   46.2305   -6.0310 C   0  0  0  0  0  0
   25.7992   46.9076   -4.9348 N   0  0  0  0  0  0
   26.0007   46.0767   -7.2288 C   0  0  0  0  0  0
   27.4260   46.5848   -7.3722 C   0  0  0  0  0  0
   28.4545   45.6136   -6.7603 C   0  0  0  0  0  0
   29.8977   45.8865   -7.2171 C   0  0  0  0  0  0
   30.1976   45.4558   -8.6659 C   0  0  0  0  0  0
   30.4652   44.0259   -8.7827 N   0  0  0  0  0  0
   29.7417   43.3064   -9.7404 C   0  0  0  0  0  0
   30.4370   42.4993  -10.6622 C   0  0  0  0  0  0
   29.7343   41.7643  -11.6350 C   0  0  0  0  0  0
   28.3299   41.8343  -11.6893 C   0  0  0  0  0  0
   27.6171   42.6194  -10.7634 C   0  0  0  0  0  0
   28.3312   43.3583   -9.7921 C   0  0  0  0  0  0
   26.1255   42.7029  -10.8517 C   0  0  0  0  0  0
   25.5748   42.9499  -11.9257 O   0  0  0  0  0  0
   25.4737   42.4956   -9.6970 N   0  0  0  0  0  0
   25.4129   45.4038   -8.3214 C   0  0  0  0  0  0
   23.7341   40.7388  -10.5692 H   0  0  0  0  0  0
   23.9542   42.2191   -8.4222 H   0  0  0  0  0  0
   15.7846   38.9528   -6.3116 H   0  0  0  0  0  0
   15.0087   38.1346   -7.6598 H   0  0  0  0  0  0
   14.2458   39.5386   -6.9194 H   0  0  0  0  0  0
   16.0890   40.9915   -7.6824 H   0  0  0  0  0  0
   15.6282   41.0045  -10.1214 H   0  0  0  0  0  0
   14.1513   40.7797   -9.1891 H   0  0  0  0  0  0
   14.8831   39.4102  -10.0042 H   0  0  0  0  0  0
   16.6178   37.9358   -9.8610 H   0  0  0  0  0  0
   18.8601   37.0549  -10.3679 H   0  0  0  0  0  0
   20.8725   38.0441   -9.3084 H   0  0  0  0  0  0
   18.3330   40.8710   -7.2403 H   0  0  0  0  0  0
   20.0672   41.2970   -5.9255 H   0  0  0  0  0  0
   20.3238   42.2088   -7.4041 H   0  0  0  0  0  0
   21.6688   41.8535   -6.3357 H   0  0  0  0  0  0
   20.7850   38.9493   -5.6794 H   0  0  0  0  0  0
   22.4441   39.4444   -5.9728 H   0  0  0  0  0  0
   21.7381   38.1304   -6.9091 H   0  0  0  0  0  0
   22.5574   39.4636   -8.7466 H   0  0  0  0  0  0
   21.2174   40.7042  -10.3170 H   0  0  0  0  0  0
   21.3250   42.1109   -9.2943 H   0  0  0  0  0  0
   23.3806   42.0150  -12.1809 H   0  0  0  0  0  0
   23.7693   44.5806  -10.3171 H   0  0  0  0  0  0
   22.4538   44.0903   -9.2951 H   0  0  0  0  0  0
   22.4221   44.5437   -6.9177 H   0  0  0  0  0  0
   26.7984   47.0399   -4.8996 H   0  0  0  0  0  0
   25.3921   46.6783   -4.0387 H   0  0  0  0  0  0
   27.6274   46.7307   -8.4328 H   0  0  0  0  0  0
   27.5208   47.5726   -6.9198 H   0  0  0  0  0  0
   28.3971   45.6802   -5.6733 H   0  0  0  0  0  0
   28.1970   44.5818   -7.0002 H   0  0  0  0  0  0
   30.0988   46.9533   -7.1104 H   0  0  0  0  0  0
   30.5968   45.3900   -6.5409 H   0  0  0  0  0  0
   29.4110   45.7755   -9.3487 H   0  0  0  0  0  0
   31.1007   45.9695   -8.9976 H   0  0  0  0  0  0
   31.4445   43.7893   -8.7139 H   0  0  0  0  0  0
   31.5173   42.4501  -10.6362 H   0  0  0  0  0  0
   30.2695   41.1572  -12.3463 H   0  0  0  0  0  0
   27.7972   41.2672  -12.4371 H   0  0  0  0  0  0
   27.7887   43.9677   -9.0893 H   0  0  0  0  0  0
   26.0472   42.2840   -8.8950 H   0  0  0  0  0  0
   25.9635   45.2995   -9.2455 H   0  0  0  0  0  0
  1  2  1  0  0  0
  1 43  1  0  0  0
  1 44  1  0  0  0
  1 45  1  0  0  0
  2  3  1  0  0  0
  2  4  1  0  0  0
  2 46  1  0  0  0
  3 47  1  0  0  0
  3 48  1  0  0  0
  3 49  1  0  0  0
  4  9  1  0  0  0
  4  5  2  0  0  0
  5  6  1  0  0  0
  5 50  1  0  0  0
  6  7  2  0  0  0
  6 51  1  0  0  0
  7  8  1  0  0  0
  7 52  1  0  0  0
  8  9  2  0  0  0
  8 10  1  0  0  0
  9 53  1  0  0  0
 10 11  1  0  0  0
 10 12  1  0  0  0
 10 13  1  0  0  0
 11 54  1  0  0  0
 11 55  1  0  0  0
 11 56  1  0  0  0
 12 57  1  0  0  0
 12 58  1  0  0  0
 12 59  1  0  0  0
 13 14  1  0  0  0
 13 60  1  0  0  0
 14 15  1  0  0  0
 14 61  1  0  0  0
 14 62  1  0  0  0
 15 41  1  0  0  0
 15 16  1  0  0  0
 15 17  1  0  0  0
 16 63  1  0  0  0
 17 42  1  0  0  0
 17 39  1  0  0  0
 17 18  1  0  0  0
 18 19  1  0  0  0
 18 64  1  0  0  0
 18 65  1  0  0  0
 19 40  1  0  0  0
 19 20  2  0  0  0
 20 21  1  0  0  0
 20 66  1  0  0  0
 21 22  1  0  0  0
 21 23  2  0  0  0
 23 24  1  0  0  0
 23 25  1  0  0  0
 24 67  1  0  0  0
 24 68  1  0  0  0
 25 26  1  0  0  0
 25 40  2  0  0  0
 26 27  1  0  0  0
 26 69  1  0  0  0
 26 70  1  0  0  0
 27 28  1  0  0  0
 27 71  1  0  0  0
 27 72  1  0  0  0
 28 29  1  0  0  0
 28 73  1  0  0  0
 28 74  1  0  0  0
 29 30  1  0  0  0
 29 75  1  0  0  0
 29 76  1  0  0  0
 30 31  1  0  0  0
 30 77  1  0  0  0
 31 36  1  0  0  0
 31 32  2  0  0  0
 32 33  1  0  0  0
 32 78  1  0  0  0
 33 34  2  0  0  0
 33 79  1  0  0  0
 34 35  1  0  0  0
 34 80  1  0  0  0
 35 36  2  0  0  0
 35 37  1  0  0  0
 36 81  1  0  0  0
 37 38  2  0  0  0
 37 39  1  0  0  0
 39 82  1  0  0  0
 40 83  1  0  0  0
M  END
> <s_m_source_file>
BACE_116.smi

> <i_m_source_file_index>
1

> <i_lp_mmshare_version>
42013

> <i_f3d_flags>
0

> <s_epik_input>
W0NIM11bQ0hdKFtDSDNdKWMxW2NIXVtjSF1bY0hdYyhbY0hdMSlDKFtDSDNdKShbQ0gzXSlbTkhdW0NIMl1bQ0BASF0oW09IXSlbQ0BIXShbQ0gyXTIpW05IXUMoPU8pYyhbY0hdMylbY0hdW2NIXVtjSF1jM1tOSF1bQ0gyXVtDSDJdW0NIMl1bQ0gyXWMoW2NIXTQpYyhbTkgyXSljKEYpW2NIXWMyNA==

> <s_epik_cmdline>
J2VwaWtfcHl0aG9uJywgJy1waCcsICc3LjAnLCAnLXRuJywgJzgnLCAnLW1hJywgJzIwMCcsICctaW1hZScsICc8aW5maWxlLm1hZT4nLCAnLW9tYWUnLCAnPG91dGZpbGUubWFlPic=

> <r_epik_Ionization_Penalty>
  2.0463

> <r_epik_Ionization_Penalty_Charging>
  0.0000

> <r_epik_Ionization_Penalty_Neutral>
  2.0463

> <r_epik_State_Penalty>
  2.1759

> <r_epik_Charging_Adjusted_Penalty>
2.17586

> <i_epik_Tot_Q>
0

> <i_epik_Tot_abs_Q>
0

> <s_lp_Force_Field>
OPLS_2005

> <r_lp_Energy>
44.0271

> <b_lp_Chiralities_Consistent>
1

> <s_lp_Variant>
BACE_116.smi:1-2

> <chiral flag>
1

> <version>
0

> <s_i_glide_gridfile>
second_dock_grid_2

> <i_i_glide_lignum>
237

> <i_i_glide_rotatable_bonds>
7

> <r_i_docking_score>
-2.16264

> <r_i_glide_ligand_efficiency>
-0.054066

> <r_i_glide_ligand_efficiency_sa>
-0.184903

> <r_i_glide_ligand_efficiency_ln>
-0.461227

> <r_glide_XP_GScore>
-4.33854

> <r_i_glide_gscore>
-4.33854

> <r_i_glide_evdw>
-40.4984

> <r_i_glide_ecoul>
-5.35787

> <r_i_glide_energy>
-45.8562

> <r_i_glide_einternal>
4.44781

> <r_i_glide_emodel>
-62.5967

> <r_glide_XP_HBond>
-1.64927

> <i_i_glide_confnum>
1

> <i_i_glide_posenum>
3

> <r_i_glide_eff_state_penalty>
2.1759

> <i_glide_XP_PoseRank>
1

$$$$
BACE_117.smi:1
                    3D
 Structure written by MMmdl.
 92 95  0  0  1  0            999 V2000
   20.0131   42.4362   -1.6263 C   0  0  0  0  0  0
   21.2517   42.1057   -2.2325 O   0  0  0  0  0  0
   21.1290   41.8022   -3.6137 C   0  0  0  0  0  0
   21.2484   43.0490   -4.4784 C   0  0  0  0  0  0
   22.4383   43.8033   -4.4595 C   0  0  0  0  0  0
   22.5657   44.9588   -5.2575 C   0  0  0  0  0  0
   21.4703   45.3629   -6.0553 C   0  0  0  0  0  0
   20.2885   44.5962   -6.1049 C   0  0  0  0  0  0
   20.1764   43.4376   -5.3051 C   0  0  0  0  0  0
   19.1743   45.0292   -7.0071 C   0  0  0  0  0  0
   18.8549   46.2040   -7.0864 O   0  0  0  0  0  0
   18.6451   44.0571   -7.7572 N   0  0  0  0  0  0
   17.6919   44.2494   -8.8430 C   0  0  1  0  0  0
   18.3658   44.1855  -10.2307 C   0  0  0  0  0  0
   19.4841   45.2008  -10.4283 C   0  0  0  0  0  0
   20.8362   44.8075  -10.3240 C   0  0  0  0  0  0
   21.8814   45.7407  -10.4868 C   0  0  0  0  0  0
   21.5532   47.0876  -10.7782 C   0  0  0  0  0  0
   20.2065   47.4839  -10.8907 C   0  0  0  0  0  0
   19.1731   46.5450  -10.7156 C   0  0  0  0  0  0
   23.1679   45.2611  -10.3542 O   0  0  0  0  0  0
   24.2595   46.1744  -10.2306 C   0  0  0  0  0  0
   24.2726   46.8764   -8.8586 C   0  0  0  0  0  0
   24.2962   45.8887   -7.6822 C   0  0  0  0  0  0
   24.1166   46.5883   -6.3213 C   0  0  0  0  0  0
   23.7872   45.6518   -5.2501 N   0  0  0  0  0  0
   16.6346   43.1528   -8.7518 C   0  0  2  0  0  0
   15.3843   43.7092   -8.3862 O   0  0  0  0  0  0
   16.9823   42.0402   -7.7382 C   0  0  0  0  0  0
   15.7696   41.2729   -7.3549 N   0  3  0  0  0  0
   15.5340   39.9316   -7.9668 C   0  0  0  0  0  0
   14.6787   39.0272   -7.0476 C   0  0  0  0  0  0
   14.8181   40.0878   -9.3307 C   0  0  0  0  0  0
   16.9013   39.2850   -8.1589 C   0  0  0  0  0  0
   18.2002   39.7917   -7.8509 C   0  0  0  0  0  0
   19.0529   38.7879   -8.2175 C   0  0  0  0  0  0
   20.5458   38.6450   -8.1562 C   0  0  0  0  0  0
   21.3902   39.9524   -8.2428 C   0  0  0  0  0  0
   21.5795   40.3172   -9.7314 C   0  0  0  0  0  0
   20.6498   41.1178   -7.5500 C   0  0  0  0  0  0
   22.7867   39.7866   -7.6000 C   0  0  0  0  0  0
   18.3468   37.7348   -8.7001 O   0  0  0  0  0  0
   16.9863   38.0569   -8.6584 N   0  0  0  0  0  0
   17.1591   45.1937   -8.7305 H   0  0  0  0  0  0
   16.5250   42.6923   -9.7353 H   0  0  0  0  0  0
   20.1716   42.6568   -0.5706 H   0  0  0  0  0  0
   19.3048   41.6091   -1.6917 H   0  0  0  0  0  0
   19.5666   43.3179   -2.0880 H   0  0  0  0  0  0
   20.1714   41.3126   -3.7989 H   0  0  0  0  0  0
   21.9105   41.1020   -3.9134 H   0  0  0  0  0  0
   23.2553   43.4758   -3.8337 H   0  0  0  0  0  0
   21.5269   46.2441   -6.6771 H   0  0  0  0  0  0
   19.2715   42.8481   -5.3161 H   0  0  0  0  0  0
   19.0045   43.1231   -7.6209 H   0  0  0  0  0  0
   18.7600   43.1836  -10.4008 H   0  0  0  0  0  0
   17.6141   44.3412  -11.0046 H   0  0  0  0  0  0
   21.0801   43.7790  -10.1024 H   0  0  0  0  0  0
   22.3148   47.8399  -10.9210 H   0  0  0  0  0  0
   19.9660   48.5135  -11.1110 H   0  0  0  0  0  0
   18.1441   46.8619  -10.8001 H   0  0  0  0  0  0
   25.1771   45.5960  -10.3385 H   0  0  0  0  0  0
   24.2750   46.8932  -11.0498 H   0  0  0  0  0  0
   25.1372   47.5368   -8.7921 H   0  0  0  0  0  0
   23.3979   47.5213   -8.7750 H   0  0  0  0  0  0
   23.5269   45.1284   -7.8171 H   0  0  0  0  0  0
   25.2469   45.3562   -7.7087 H   0  0  0  0  0  0
   25.0367   47.1108   -6.0596 H   0  0  0  0  0  0
   23.3494   47.3605   -6.3779 H   0  0  0  0  0  0
   24.5507   45.2768   -4.7056 H   0  0  0  0  0  0
   15.2862   43.6363   -7.4492 H   0  0  0  0  0  0
   17.6985   41.3586   -8.1957 H   0  0  0  0  0  0
   17.4616   42.4718   -6.8604 H   0  0  0  0  0  0
   15.7921   41.1481   -6.3529 H   0  0  0  0  0  0
   13.6570   39.3923   -6.9417 H   0  0  0  0  0  0
   15.1023   38.9478   -6.0455 H   0  0  0  0  0  0
   14.6064   38.0158   -7.4499 H   0  0  0  0  0  0
   13.8159   40.5031   -9.2283 H   0  0  0  0  0  0
   14.6951   39.1263   -9.8308 H   0  0  0  0  0  0
   15.3738   40.7423  -10.0040 H   0  0  0  0  0  0
   18.4754   40.7454   -7.4252 H   0  0  0  0  0  0
   20.7750   38.1446   -7.2143 H   0  0  0  0  0  0
   20.8689   37.9421   -8.9254 H   0  0  0  0  0  0
   22.1325   39.5459  -10.2691 H   0  0  0  0  0  0
   22.1325   41.2500   -9.8504 H   0  0  0  0  0  0
   20.6213   40.4430  -10.2373 H   0  0  0  0  0  0
   20.5121   40.9373   -6.4840 H   0  0  0  0  0  0
   19.6626   41.2829   -7.9834 H   0  0  0  0  0  0
   21.2027   42.0534   -7.6443 H   0  0  0  0  0  0
   22.7300   39.6184   -6.5242 H   0  0  0  0  0  0
   23.3986   40.6779   -7.7450 H   0  0  0  0  0  0
   23.3308   38.9485   -8.0376 H   0  0  0  0  0  0
   14.9707   41.8490   -7.5780 H   0  0  0  0  0  0
  1  2  1  0  0  0
  1 46  1  0  0  0
  1 47  1  0  0  0
  1 48  1  0  0  0
  2  3  1  0  0  0
  3  4  1  0  0  0
  3 49  1  0  0  0
  3 50  1  0  0  0
  4  9  1  0  0  0
  4  5  2  0  0  0
  5  6  1  0  0  0
  5 51  1  0  0  0
  6 26  1  0  0  0
  6  7  2  0  0  0
  7  8  1  0  0  0
  7 52  1  0  0  0
  8  9  2  0  0  0
  8 10  1  0  0  0
  9 53  1  0  0  0
 10 11  2  0  0  0
 10 12  1  0  0  0
 12 13  1  0  0  0
 12 54  1  0  0  0
 13 44  1  0  0  0
 13 14  1  0  0  0
 13 27  1  0  0  0
 14 15  1  0  0  0
 14 55  1  0  0  0
 14 56  1  0  0  0
 15 20  1  0  0  0
 15 16  2  0  0  0
 16 17  1  0  0  0
 16 57  1  0  0  0
 17 18  2  0  0  0
 17 21  1  0  0  0
 18 19  1  0  0  0
 18 58  1  0  0  0
 19 20  2  0  0  0
 19 59  1  0  0  0
 20 60  1  0  0  0
 21 22  1  0  0  0
 22 23  1  0  0  0
 22 61  1  0  0  0
 22 62  1  0  0  0
 23 24  1  0  0  0
 23 63  1  0  0  0
 23 64  1  0  0  0
 24 25  1  0  0  0
 24 65  1  0  0  0
 24 66  1  0  0  0
 25 26  1  0  0  0
 25 67  1  0  0  0
 25 68  1  0  0  0
 26 69  1  0  0  0
 27 45  1  0  0  0
 27 28  1  0  0  0
 27 29  1  0  0  0
 28 70  1  0  0  0
 29 30  1  0  0  0
 29 71  1  0  0  0
 29 72  1  0  0  0
 30 31  1  0  0  0
 30 73  1  0  0  0
 30 92  1  0  0  0
 31 32  1  0  0  0
 31 33  1  0  0  0
 31 34  1  0  0  0
 32 74  1  0  0  0
 32 75  1  0  0  0
 32 76  1  0  0  0
 33 77  1  0  0  0
 33 78  1  0  0  0
 33 79  1  0  0  0
 34 43  2  0  0  0
 34 35  1  0  0  0
 35 36  2  0  0  0
 35 80  1  0  0  0
 36 37  1  0  0  0
 36 42  1  0  0  0
 37 38  1  0  0  0
 37 81  1  0  0  0
 37 82  1  0  0  0
 38 39  1  0  0  0
 38 40  1  0  0  0
 38 41  1  0  0  0
 39 83  1  0  0  0
 39 84  1  0  0  0
 39 85  1  0  0  0
 40 86  1  0  0  0
 40 87  1  0  0  0
 40 88  1  0  0  0
 41 89  1  0  0  0
 41 90  1  0  0  0
 41 91  1  0  0  0
 42 43  1  0  0  0
M  CHG  1  30   1
M  END
> <s_m_source_file>
BACE_117.smi

> <i_m_source_file_index>
1

> <i_lp_mmshare_version>
42013

> <i_f3d_flags>
0

> <s_epik_input>
W0NIM11DKFtDSDNdKShbQ0gzXSlbQ0gyXWMob24xKVtjSF1jMUMoW0NIM10pKFtDSDNdKVtOSF1bQ0gyXVtDQEBIXShbT0hdKVtDQEBIXShbTkhdQyg9TyljKFtjSF0yKVtjSF1jKFtjSF1jMjMpW0NIMl1PW0NIM10pW0NIMl1jNFtjSF1jKFtjSF1bY0hdW2NIXTQpT1tDSDJdW0NIMl1bQ0gyXVtDSDJdW05IXTM=

> <s_epik_cmdline>
J2VwaWtfcHl0aG9uJywgJy1waCcsICc3LjAnLCAnLXRuJywgJzgnLCAnLW1hJywgJzIwMCcsICctaW1hZScsICc8aW5maWxlLm1hZT4nLCAnLW9tYWUnLCAnPG91dGZpbGUubWFlPic=

> <r_lp_tautomer_probability>
1

> <r_epik_Ionization_Penalty>
  0.2346

> <r_epik_Ionization_Penalty_Charging>
  0.2343

> <r_epik_Ionization_Penalty_Neutral>
  0.0003

> <r_epik_State_Penalty>
  0.2251

> <r_epik_Charging_Adjusted_Penalty>
0.459382

> <i_epik_Tot_Q>
1

> <i_epik_Tot_abs_Q>
1

> <s_lp_Force_Field>
OPLS_2005

> <r_lp_Energy>
36.2247

> <b_lp_Chiralities_Consistent>
1

> <s_lp_Variant>
BACE_117.smi:1-1

> <chiral flag>
1

> <version>
0

> <s_i_glide_gridfile>
second_dock_grid_2

> <i_i_glide_lignum>
238

> <i_i_glide_rotatable_bonds>
10

> <r_i_docking_score>
-6.40887

> <r_i_glide_ligand_efficiency>
-0.149044

> <r_i_glide_ligand_efficiency_sa>
-0.522159

> <r_i_glide_ligand_efficiency_ln>
-1.34606

> <r_glide_XP_GScore>
-6.63397

> <r_i_glide_gscore>
-6.63397

> <r_i_glide_evdw>
-40.9503

> <r_i_glide_ecoul>
-16.2976

> <r_i_glide_energy>
-57.2479

> <r_i_glide_einternal>
8.57044

> <r_i_glide_emodel>
-81.6987

> <r_glide_XP_HBond>
-0.852993

> <i_i_glide_confnum>
1

> <i_i_glide_posenum>
35

> <r_i_glide_eff_state_penalty>
0.2251

> <i_glide_XP_PoseRank>
1

$$$$
BACE_117.smi:1
                    3D
 Structure written by MMmdl.
 91 94  0  0  1  0            999 V2000
   17.3419   46.7593  -11.9641 C   0  0  0  0  0  0
   17.1050   45.6333  -12.7929 O   0  0  0  0  0  0
   18.0609   44.6000  -12.6102 C   0  0  0  0  0  0
   17.9191   43.9341  -11.2490 C   0  0  0  0  0  0
   16.6414   43.7647  -10.6813 C   0  0  0  0  0  0
   16.5016   43.1532   -9.4161 C   0  0  0  0  0  0
   17.6499   42.7244   -8.7235 C   0  0  0  0  0  0
   18.9297   42.8567   -9.3026 C   0  0  0  0  0  0
   19.0625   43.4767  -10.5656 C   0  0  0  0  0  0
   20.1219   42.3199   -8.5730 C   0  0  0  0  0  0
   20.2217   42.4393   -7.3630 O   0  0  0  0  0  0
   20.9715   41.6167   -9.3299 N   0  0  0  0  0  0
   21.9965   40.7112   -8.8244 C   0  0  1  0  0  0
   21.5621   39.2323   -8.9376 C   0  0  0  0  0  0
   20.1742   38.9546   -8.3732 C   0  0  0  0  0  0
   19.0650   38.8213   -9.2373 C   0  0  0  0  0  0
   17.7643   38.6221   -8.7299 C   0  0  0  0  0  0
   17.5881   38.5428   -7.3256 C   0  0  0  0  0  0
   18.6931   38.6588   -6.4601 C   0  0  0  0  0  0
   19.9840   38.8636   -6.9801 C   0  0  0  0  0  0
   16.7469   38.5169   -9.6569 O   0  0  0  0  0  0
   15.3908   38.4546   -9.2160 C   0  0  0  0  0  0
   14.8595   39.8478   -8.8324 C   0  0  0  0  0  0
   14.7339   40.7905  -10.0440 C   0  0  0  0  0  0
   14.2766   42.2167   -9.6771 C   0  0  0  0  0  0
   15.2442   42.9269   -8.8439 N   0  0  0  0  0  0
   23.2776   40.9279   -9.6246 C   0  0  2  0  0  0
   24.4003   40.5665   -8.8407 O   0  0  0  0  0  0
   23.4708   42.3913  -10.0801 C   0  0  0  0  0  0
   24.6296   42.5165  -10.9770 N   0  0  0  0  0  0
   25.0201   43.8637  -11.4554 C   0  0  0  0  0  0
   23.9935   44.4133  -12.4749 C   0  0  0  0  0  0
   25.1088   44.8410  -10.2571 C   0  0  0  0  0  0
   26.3734   43.7574  -12.1513 C   0  0  0  0  0  0
   27.4075   42.7874  -11.9826 C   0  0  0  0  0  0
   28.3950   43.1895  -12.8382 C   0  0  0  0  0  0
   29.7419   42.6218  -13.1798 C   0  0  0  0  0  0
   30.9928   43.4209  -12.7039 C   0  0  0  0  0  0
   31.7253   43.9725  -13.9466 C   0  0  0  0  0  0
   30.5648   44.6168  -11.8248 C   0  0  0  0  0  0
   31.9805   42.5361  -11.9086 C   0  0  0  0  0  0
   28.0118   44.3160  -13.4897 O   0  0  0  0  0  0
   26.7358   44.6742  -13.0425 N   0  0  0  0  0  0
   22.2405   40.9450   -7.7881 H   0  0  0  0  0  0
   23.2488   40.2838  -10.5055 H   0  0  0  0  0  0
   16.5793   47.5156  -12.1504 H   0  0  0  0  0  0
   18.3144   47.2080  -12.1709 H   0  0  0  0  0  0
   17.2961   46.4925  -10.9074 H   0  0  0  0  0  0
   19.0676   45.0065  -12.7213 H   0  0  0  0  0  0
   17.9369   43.8358  -13.3793 H   0  0  0  0  0  0
   15.7762   44.1122  -11.2264 H   0  0  0  0  0  0
   17.5560   42.2422   -7.7617 H   0  0  0  0  0  0
   20.0359   43.6041  -11.0159 H   0  0  0  0  0  0
   20.7724   41.5746  -10.3192 H   0  0  0  0  0  0
   21.5821   38.9272   -9.9838 H   0  0  0  0  0  0
   22.2884   38.5969   -8.4308 H   0  0  0  0  0  0
   19.2054   38.8930  -10.3057 H   0  0  0  0  0  0
   16.6160   38.3954   -6.8789 H   0  0  0  0  0  0
   18.5473   38.5973   -5.3917 H   0  0  0  0  0  0
   20.8217   38.9656   -6.3060 H   0  0  0  0  0  0
   14.7942   38.0592  -10.0381 H   0  0  0  0  0  0
   15.2618   37.7363   -8.4063 H   0  0  0  0  0  0
   13.8982   39.7497   -8.3282 H   0  0  0  0  0  0
   15.5360   40.2967   -8.1052 H   0  0  0  0  0  0
   15.6784   40.8247  -10.5870 H   0  0  0  0  0  0
   14.0136   40.3654  -10.7429 H   0  0  0  0  0  0
   14.1158   42.7925  -10.5886 H   0  0  0  0  0  0
   13.3086   42.1784   -9.1776 H   0  0  0  0  0  0
   15.2715   42.5969   -7.8897 H   0  0  0  0  0  0
   24.6239   39.6687   -9.0331 H   0  0  0  0  0  0
   22.5737   42.7122  -10.6085 H   0  0  0  0  0  0
   23.5659   43.0372   -9.2078 H   0  0  0  0  0  0
   24.4729   41.9192  -11.7826 H   0  0  0  0  0  0
   23.0197   44.6059  -12.0240 H   0  0  0  0  0  0
   23.8398   43.7245  -13.3069 H   0  0  0  0  0  0
   24.3300   45.3605  -12.8989 H   0  0  0  0  0  0
   24.1508   44.9745   -9.7554 H   0  0  0  0  0  0
   25.4212   45.8374  -10.5718 H   0  0  0  0  0  0
   25.8223   44.4929   -9.5087 H   0  0  0  0  0  0
   27.4307   41.9230  -11.3356 H   0  0  0  0  0  0
   29.7811   41.6224  -12.7440 H   0  0  0  0  0  0
   29.7956   42.4535  -14.2563 H   0  0  0  0  0  0
   32.0873   43.1704  -14.5912 H   0  0  0  0  0  0
   32.5905   44.5761  -13.6693 H   0  0  0  0  0  0
   31.0708   44.6037  -14.5492 H   0  0  0  0  0  0
   30.0678   44.2936  -10.9102 H   0  0  0  0  0  0
   29.8780   45.2799  -12.3526 H   0  0  0  0  0  0
   31.4238   45.2178  -11.5236 H   0  0  0  0  0  0
   31.5571   42.1866  -10.9666 H   0  0  0  0  0  0
   32.8902   43.0834  -11.6581 H   0  0  0  0  0  0
   32.2811   41.6583  -12.4821 H   0  0  0  0  0  0
  1  2  1  0  0  0
  1 46  1  0  0  0
  1 47  1  0  0  0
  1 48  1  0  0  0
  2  3  1  0  0  0
  3  4  1  0  0  0
  3 49  1  0  0  0
  3 50  1  0  0  0
  4  9  1  0  0  0
  4  5  2  0  0  0
  5  6  1  0  0  0
  5 51  1  0  0  0
  6 26  1  0  0  0
  6  7  2  0  0  0
  7  8  1  0  0  0
  7 52  1  0  0  0
  8  9  2  0  0  0
  8 10  1  0  0  0
  9 53  1  0  0  0
 10 11  2  0  0  0
 10 12  1  0  0  0
 12 13  1  0  0  0
 12 54  1  0  0  0
 13 44  1  0  0  0
 13 14  1  0  0  0
 13 27  1  0  0  0
 14 15  1  0  0  0
 14 55  1  0  0  0
 14 56  1  0  0  0
 15 20  1  0  0  0
 15 16  2  0  0  0
 16 17  1  0  0  0
 16 57  1  0  0  0
 17 18  2  0  0  0
 17 21  1  0  0  0
 18 19  1  0  0  0
 18 58  1  0  0  0
 19 20  2  0  0  0
 19 59  1  0  0  0
 20 60  1  0  0  0
 21 22  1  0  0  0
 22 23  1  0  0  0
 22 61  1  0  0  0
 22 62  1  0  0  0
 23 24  1  0  0  0
 23 63  1  0  0  0
 23 64  1  0  0  0
 24 25  1  0  0  0
 24 65  1  0  0  0
 24 66  1  0  0  0
 25 26  1  0  0  0
 25 67  1  0  0  0
 25 68  1  0  0  0
 26 69  1  0  0  0
 27 45  1  0  0  0
 27 28  1  0  0  0
 27 29  1  0  0  0
 28 70  1  0  0  0
 29 30  1  0  0  0
 29 71  1  0  0  0
 29 72  1  0  0  0
 30 31  1  0  0  0
 30 73  1  0  0  0
 31 32  1  0  0  0
 31 33  1  0  0  0
 31 34  1  0  0  0
 32 74  1  0  0  0
 32 75  1  0  0  0
 32 76  1  0  0  0
 33 77  1  0  0  0
 33 78  1  0  0  0
 33 79  1  0  0  0
 34 43  2  0  0  0
 34 35  1  0  0  0
 35 36  2  0  0  0
 35 80  1  0  0  0
 36 37  1  0  0  0
 36 42  1  0  0  0
 37 38  1  0  0  0
 37 81  1  0  0  0
 37 82  1  0  0  0
 38 39  1  0  0  0
 38 40  1  0  0  0
 38 41  1  0  0  0
 39 83  1  0  0  0
 39 84  1  0  0  0
 39 85  1  0  0  0
 40 86  1  0  0  0
 40 87  1  0  0  0
 40 88  1  0  0  0
 41 89  1  0  0  0
 41 90  1  0  0  0
 41 91  1  0  0  0
 42 43  1  0  0  0
M  END
> <s_m_source_file>
BACE_117.smi

> <i_m_source_file_index>
1

> <i_lp_mmshare_version>
42013

> <i_f3d_flags>
0

> <s_epik_input>
W0NIM11DKFtDSDNdKShbQ0gzXSlbQ0gyXWMob24xKVtjSF1jMUMoW0NIM10pKFtDSDNdKVtOSF1bQ0gyXVtDQEBIXShbT0hdKVtDQEBIXShbTkhdQyg9TyljKFtjSF0yKVtjSF1jKFtjSF1jMjMpW0NIMl1PW0NIM10pW0NIMl1jNFtjSF1jKFtjSF1bY0hdW2NIXTQpT1tDSDJdW0NIMl1bQ0gyXVtDSDJdW05IXTM=

> <s_epik_cmdline>
J2VwaWtfcHl0aG9uJywgJy1waCcsICc3LjAnLCAnLXRuJywgJzgnLCAnLW1hJywgJzIwMCcsICctaW1hZScsICc8aW5maWxlLm1hZT4nLCAnLW9tYWUnLCAnPG91dGZpbGUubWFlPic=

> <r_lp_tautomer_probability>
1

> <r_epik_Ionization_Penalty>
  0.6633

> <r_epik_Ionization_Penalty_Charging>
  0.0000

> <r_epik_Ionization_Penalty_Neutral>
  0.6633

> <r_epik_State_Penalty>
  0.6824

> <r_epik_Charging_Adjusted_Penalty>
0.682449

> <i_epik_Tot_Q>
0

> <i_epik_Tot_abs_Q>
0

> <s_lp_Force_Field>
OPLS_2005

> <r_lp_Energy>
38.8696

> <b_lp_Chiralities_Consistent>
1

> <s_lp_Variant>
BACE_117.smi:1-2

> <chiral flag>
1

> <version>
0

> <s_i_glide_gridfile>
second_dock_grid_2

> <i_i_glide_lignum>
239

> <i_i_glide_rotatable_bonds>
10

> <r_i_docking_score>
-2.92343

> <r_i_glide_ligand_efficiency>
-0.0679867

> <r_i_glide_ligand_efficiency_sa>
-0.238185

> <r_i_glide_ligand_efficiency_ln>
-0.614011

> <r_glide_XP_GScore>
-3.60583

> <r_i_glide_gscore>
-3.60583

> <r_i_glide_evdw>
-38.8662

> <r_i_glide_ecoul>
-9.36593

> <r_i_glide_energy>
-48.2321

> <r_i_glide_einternal>
9.59745

> <r_i_glide_emodel>
-69.0325

> <r_glide_XP_HBond>
-1.33

> <i_i_glide_confnum>
1

> <i_i_glide_posenum>
1

> <r_i_glide_eff_state_penalty>
0.6824

> <i_glide_XP_PoseRank>
1

$$$$
BACE_118.smi:1
                    3D
 Structure written by MMmdl.
 79 82  0  0  1  0            999 V2000
   20.5339   42.6770   -2.4617 C   0  0  0  0  0  0
   21.7712   42.3618   -3.3191 C   0  0  0  0  0  0
   22.5883   43.6161   -3.6445 C   0  0  0  0  0  0
   21.3975   41.6227   -4.5928 C   0  0  0  0  0  0
   21.9263   40.3385   -4.8404 C   0  0  0  0  0  0
   21.5483   39.6373   -5.9986 C   0  0  0  0  0  0
   20.6285   40.2069   -6.8964 C   0  0  0  0  0  0
   20.1178   41.4997   -6.6818 C   0  0  0  0  0  0
   19.1115   42.1025   -7.6457 C   0  0  0  0  0  0
   17.8389   41.3473   -7.6400 N   0  3  0  0  0  0
   16.6161   42.1487   -7.8746 C   0  0  0  0  0  0
   15.7217   41.5750   -8.9942 C   0  0  1  0  0  0
   14.4599   42.1976   -8.8951 O   0  0  0  0  0  0
   16.2112   41.7406  -10.4665 C   0  0  2  0  0  0
   16.4791   40.3816  -11.1397 C   0  0  0  0  0  0
   17.6510   39.6018  -10.5637 C   0  0  0  0  0  0
   17.4245   38.5336   -9.6713 C   0  0  0  0  0  0
   18.5072   37.7686   -9.2015 C   0  0  0  0  0  0
   19.8183   38.0795   -9.6100 C   0  0  0  0  0  0
   20.0559   39.1655  -10.4740 C   0  0  0  0  0  0
   21.4725   39.5530  -10.8525 C   0  0  0  0  0  0
   22.1373   40.4476   -9.7930 C   0  0  0  0  0  0
   23.3546   41.2333  -10.2945 C   0  0  0  0  0  0
   22.9857   42.4530  -11.1677 C   0  0  0  0  0  0
   22.4828   43.5870  -10.3873 N   0  0  0  0  0  0
   23.4402   44.3712   -9.6128 C   0  0  0  0  0  0
   21.3370   44.2527  -10.8716 C   0  0  0  0  0  0
   21.3486   45.6359  -11.1692 C   0  0  0  0  0  0
   20.1860   46.2806  -11.6344 C   0  0  0  0  0  0
   18.9896   45.5562  -11.7915 C   0  0  0  0  0  0
   18.9487   44.1827  -11.4797 C   0  0  0  0  0  0
   20.1320   43.5362  -11.0466 C   0  0  0  0  0  0
   17.6620   43.4238  -11.6163 C   0  0  0  0  0  0
   16.9139   43.5903  -12.5808 O   0  0  0  0  0  0
   17.3871   42.6044  -10.5911 N   0  0  0  0  0  0
   18.9663   39.9032  -10.9719 C   0  0  0  0  0  0
   20.5164   42.2091   -5.5287 C   0  0  0  0  0  0
   15.5338   40.5224   -8.7808 H   0  0  0  0  0  0
   15.4038   42.2009  -11.0401 H   0  0  0  0  0  0
   19.9850   41.7680   -2.2143 H   0  0  0  0  0  0
   19.8451   43.3485   -2.9738 H   0  0  0  0  0  0
   20.8167   43.1565   -1.5247 H   0  0  0  0  0  0
   22.4102   41.7051   -2.7281 H   0  0  0  0  0  0
   23.5062   43.3500   -4.1685 H   0  0  0  0  0  0
   22.8599   44.1484   -2.7332 H   0  0  0  0  0  0
   22.0342   44.3062   -4.2805 H   0  0  0  0  0  0
   22.6092   39.8812   -4.1386 H   0  0  0  0  0  0
   21.9434   38.6497   -6.1862 H   0  0  0  0  0  0
   20.3152   39.6458   -7.7553 H   0  0  0  0  0  0
   18.9424   43.1412   -7.3572 H   0  0  0  0  0  0
   19.5210   42.1156   -8.6515 H   0  0  0  0  0  0
   17.8883   40.5451   -8.2541 H   0  0  0  0  0  0
   16.0654   42.1203   -6.9330 H   0  0  0  0  0  0
   16.8336   43.2021   -8.0538 H   0  0  0  0  0  0
   13.8588   41.6133   -8.4405 H   0  0  0  0  0  0
   15.5798   39.7649  -11.1051 H   0  0  0  0  0  0
   16.6794   40.5518  -12.1963 H   0  0  0  0  0  0
   16.4204   38.2762   -9.3634 H   0  0  0  0  0  0
   18.3302   36.9439   -8.5261 H   0  0  0  0  0  0
   20.6484   37.4953   -9.2384 H   0  0  0  0  0  0
   22.0573   38.6432  -10.9631 H   0  0  0  0  0  0
   21.4597   40.0390  -11.8288 H   0  0  0  0  0  0
   21.4193   41.1635   -9.4021 H   0  0  0  0  0  0
   22.4384   39.8217   -8.9518 H   0  0  0  0  0  0
   23.9475   41.5551   -9.4390 H   0  0  0  0  0  0
   24.0060   40.5522  -10.8404 H   0  0  0  0  0  0
   23.8833   42.7874  -11.6897 H   0  0  0  0  0  0
   22.2862   42.1659  -11.9521 H   0  0  0  0  0  0
   22.9289   45.0702   -8.9499 H   0  0  0  0  0  0
   24.0998   44.9359  -10.2727 H   0  0  0  0  0  0
   24.0600   43.7288   -8.9898 H   0  0  0  0  0  0
   22.2533   46.2153  -11.0596 H   0  0  0  0  0  0
   20.2135   47.3353  -11.8696 H   0  0  0  0  0  0
   18.1017   46.0629  -12.1414 H   0  0  0  0  0  0
   20.1229   42.4818  -10.8251 H   0  0  0  0  0  0
   18.0715   42.5613   -9.8545 H   0  0  0  0  0  0
   19.1366   40.6995  -11.6802 H   0  0  0  0  0  0
   20.1125   43.1920   -5.3379 H   0  0  0  0  0  0
   17.7470   41.0097   -6.6830 H   0  0  0  0  0  0
  1  2  1  0  0  0
  1 40  1  0  0  0
  1 41  1  0  0  0
  1 42  1  0  0  0
  2  3  1  0  0  0
  2  4  1  0  0  0
  2 43  1  0  0  0
  3 44  1  0  0  0
  3 45  1  0  0  0
  3 46  1  0  0  0
  4 37  1  0  0  0
  4  5  2  0  0  0
  5  6  1  0  0  0
  5 47  1  0  0  0
  6  7  2  0  0  0
  6 48  1  0  0  0
  7  8  1  0  0  0
  7 49  1  0  0  0
  8  9  1  0  0  0
  8 37  2  0  0  0
  9 10  1  0  0  0
  9 50  1  0  0  0
  9 51  1  0  0  0
 10 11  1  0  0  0
 10 52  1  0  0  0
 10 79  1  0  0  0
 11 12  1  0  0  0
 11 53  1  0  0  0
 11 54  1  0  0  0
 12 38  1  0  0  0
 12 13  1  0  0  0
 12 14  1  0  0  0
 13 55  1  0  0  0
 14 39  1  0  0  0
 14 35  1  0  0  0
 14 15  1  0  0  0
 15 16  1  0  0  0
 15 56  1  0  0  0
 15 57  1  0  0  0
 16 36  1  0  0  0
 16 17  2  0  0  0
 17 18  1  0  0  0
 17 58  1  0  0  0
 18 19  2  0  0  0
 18 59  1  0  0  0
 19 20  1  0  0  0
 19 60  1  0  0  0
 20 21  1  0  0  0
 20 36  2  0  0  0
 21 22  1  0  0  0
 21 61  1  0  0  0
 21 62  1  0  0  0
 22 23  1  0  0  0
 22 63  1  0  0  0
 22 64  1  0  0  0
 23 24  1  0  0  0
 23 65  1  0  0  0
 23 66  1  0  0  0
 24 25  1  0  0  0
 24 67  1  0  0  0
 24 68  1  0  0  0
 25 26  1  0  0  0
 25 27  1  0  0  0
 26 69  1  0  0  0
 26 70  1  0  0  0
 26 71  1  0  0  0
 27 32  1  0  0  0
 27 28  2  0  0  0
 28 29  1  0  0  0
 28 72  1  0  0  0
 29 30  2  0  0  0
 29 73  1  0  0  0
 30 31  1  0  0  0
 30 74  1  0  0  0
 31 32  2  0  0  0
 31 33  1  0  0  0
 32 75  1  0  0  0
 33 34  2  0  0  0
 33 35  1  0  0  0
 35 76  1  0  0  0
 36 77  1  0  0  0
 37 78  1  0  0  0
M  CHG  1  10   1
M  END
> <s_m_source_file>
BACE_118.smi

> <i_m_source_file_index>
1

> <i_lp_mmshare_version>
42013

> <i_f3d_flags>
0

> <s_epik_input>
W0NIM11bQ0hdKFtDSDNdKWMxW2NIXVtjSF1bY0hdYyhbY0hdMSlbQ0gyXVtOSF1bQ0gyXVtDQEBIXShbT0hdKVtDQEhdKFtDSDJdMilbTkhdQyg9TyljKFtjSF0zKVtjSF1bY0hdW2NIXWMzTihbQ0gzXSlbQ0gyXVtDSDJdW0NIMl1bQ0gyXWMoW2NIXTQpW2NIXVtjSF1bY0hdYzI0

> <s_epik_cmdline>
J2VwaWtfcHl0aG9uJywgJy1waCcsICc3LjAnLCAnLXRuJywgJzgnLCAnLW1hJywgJzIwMCcsICctaW1hZScsICc8aW5maWxlLm1hZT4nLCAnLW9tYWUnLCAnPG91dGZpbGUubWFlPic=

> <r_epik_Ionization_Penalty>
  0.0204

> <r_epik_Ionization_Penalty_Charging>
  0.0191

> <r_epik_Ionization_Penalty_Neutral>
  0.0013

> <r_epik_State_Penalty>
  0.0153

> <r_epik_Charging_Adjusted_Penalty>
0.0343718

> <i_epik_Tot_Q>
1

> <i_epik_Tot_abs_Q>
1

> <s_lp_Force_Field>
OPLS_2005

> <r_lp_Energy>
33.1911

> <b_lp_Chiralities_Consistent>
1

> <s_lp_Variant>
BACE_118.smi:1-1

> <chiral flag>
1

> <version>
0

> <s_i_glide_gridfile>
second_dock_grid_2

> <i_i_glide_lignum>
240

> <i_i_glide_rotatable_bonds>
7

> <r_i_docking_score>
-6.11045

> <r_i_glide_ligand_efficiency>
-0.165147

> <r_i_glide_ligand_efficiency_sa>
-0.550308

> <r_i_glide_ligand_efficiency_ln>
-1.32521

> <r_glide_XP_GScore>
-6.12575

> <r_i_glide_gscore>
-6.12575

> <r_i_glide_evdw>
-37.2107

> <r_i_glide_ecoul>
-14.7562

> <r_i_glide_energy>
-51.9669

> <r_i_glide_einternal>
9.10629

> <r_i_glide_emodel>
-71.3609

> <r_glide_XP_HBond>
-1.33

> <i_i_glide_confnum>
1

> <i_i_glide_posenum>
1

> <r_i_glide_eff_state_penalty>
0.0153

> <i_glide_XP_PoseRank>
1

$$$$
BACE_118.smi:1
                    3D
 Structure written by MMmdl.
 78 81  0  0  1  0            999 V2000
   18.3535   49.4711   -9.9185 C   0  0  0  0  0  0
   17.3919   49.1409   -8.7689 C   0  0  0  0  0  0
   17.0614   50.3959   -7.9459 C   0  0  0  0  0  0
   17.9288   47.9888   -7.9272 C   0  0  0  0  0  0
   18.7295   48.2128   -6.7857 C   0  0  0  0  0  0
   19.2603   47.1241   -6.0728 C   0  0  0  0  0  0
   18.9918   45.8059   -6.4783 C   0  0  0  0  0  0
   18.2002   45.5688   -7.6187 C   0  0  0  0  0  0
   18.0579   44.1504   -8.1396 C   0  0  0  0  0  0
   16.7343   43.5338   -8.0401 N   0  0  0  0  0  0
   15.6614   44.0746   -8.8751 C   0  0  0  0  0  0
   14.8024   42.9261   -9.4522 C   0  0  1  0  0  0
   13.5061   43.4391   -9.6970 O   0  0  0  0  0  0
   15.3520   42.3113  -10.7808 C   0  0  2  0  0  0
   14.8164   40.8745  -11.0172 C   0  0  0  0  0  0
   15.4642   39.8281  -10.1314 C   0  0  0  0  0  0
   14.7989   39.3559   -8.9837 C   0  0  0  0  0  0
   15.4421   38.4394   -8.1355 C   0  0  0  0  0  0
   16.7407   37.9842   -8.4382 C   0  0  0  0  0  0
   17.4085   38.4502   -9.5844 C   0  0  0  0  0  0
   18.8354   38.0301   -9.8691 C   0  0  0  0  0  0
   19.7999   38.5061   -8.7679 C   0  0  0  0  0  0
   21.2807   38.4622   -9.1764 C   0  0  0  0  0  0
   21.6981   39.5902  -10.1403 C   0  0  0  0  0  0
   21.6799   40.9129   -9.5174 N   0  0  0  0  0  0
   22.7736   41.2556   -8.6141 C   0  0  0  0  0  0
   21.0699   41.9599  -10.2405 C   0  0  0  0  0  0
   21.7727   43.1502  -10.5440 C   0  0  0  0  0  0
   21.1442   44.1991  -11.2398 C   0  0  0  0  0  0
   19.8011   44.0764  -11.6386 C   0  0  0  0  0  0
   19.0792   42.9028  -11.3443 C   0  0  0  0  0  0
   19.7220   41.8444  -10.6583 C   0  0  0  0  0  0
   17.6369   42.8161  -11.7441 C   0  0  0  0  0  0
   17.2593   43.2483  -12.8343 O   0  0  0  0  0  0
   16.8192   42.3353  -10.7951 N   0  0  0  0  0  0
   16.7548   39.3516  -10.4399 C   0  0  0  0  0  0
   17.6700   46.6627   -8.3353 C   0  0  0  0  0  0
   14.6998   42.1560   -8.6854 H   0  0  0  0  0  0
   15.0014   42.9454  -11.5970 H   0  0  0  0  0  0
   18.5194   48.6020  -10.5568 H   0  0  0  0  0  0
   19.3240   49.7950   -9.5407 H   0  0  0  0  0  0
   17.9584   50.2688  -10.5485 H   0  0  0  0  0  0
   16.4598   48.7952   -9.2158 H   0  0  0  0  0  0
   16.4250   50.1483   -7.0955 H   0  0  0  0  0  0
   16.5343   51.1328   -8.5535 H   0  0  0  0  0  0
   17.9658   50.8738   -7.5683 H   0  0  0  0  0  0
   18.9755   49.2131   -6.4638 H   0  0  0  0  0  0
   19.9156   47.3043   -5.2399 H   0  0  0  0  0  0
   19.4357   44.9799   -5.9422 H   0  0  0  0  0  0
   18.3755   44.1676   -9.1788 H   0  0  0  0  0  0
   18.7829   43.5153   -7.6283 H   0  0  0  0  0  0
   16.4301   43.4074   -7.0738 H   0  0  0  0  0  0
   15.0512   44.7466   -8.2699 H   0  0  0  0  0  0
   16.0528   44.6668   -9.7027 H   0  0  0  0  0  0
   12.8894   42.7304   -9.5618 H   0  0  0  0  0  0
   13.7343   40.8479  -10.8846 H   0  0  0  0  0  0
   15.0028   40.5549  -12.0403 H   0  0  0  0  0  0
   13.8067   39.7050   -8.7372 H   0  0  0  0  0  0
   14.9449   38.0939   -7.2391 H   0  0  0  0  0  0
   17.2366   37.3018   -7.7607 H   0  0  0  0  0  0
   18.8637   36.9460   -9.9586 H   0  0  0  0  0  0
   19.1366   38.4243  -10.8397 H   0  0  0  0  0  0
   19.5478   39.5243   -8.4674 H   0  0  0  0  0  0
   19.6482   37.8925   -7.8789 H   0  0  0  0  0  0
   21.9000   38.4992   -8.2798 H   0  0  0  0  0  0
   21.4953   37.4976   -9.6369 H   0  0  0  0  0  0
   22.7249   39.4015  -10.4531 H   0  0  0  0  0  0
   21.0983   39.5640  -11.0502 H   0  0  0  0  0  0
   22.5583   42.1726   -8.0655 H   0  0  0  0  0  0
   23.7028   41.3904   -9.1685 H   0  0  0  0  0  0
   22.9322   40.4652   -7.8808 H   0  0  0  0  0  0
   22.8053   43.2738  -10.2545 H   0  0  0  0  0  0
   21.6939   45.1015  -11.4667 H   0  0  0  0  0  0
   19.3240   44.8939  -12.1609 H   0  0  0  0  0  0
   19.1718   40.9469  -10.4209 H   0  0  0  0  0  0
   17.2497   42.0751   -9.9167 H   0  0  0  0  0  0
   17.2637   39.7165  -11.3198 H   0  0  0  0  0  0
   17.1039   46.4910   -9.2367 H   0  0  0  0  0  0
  1  2  1  0  0  0
  1 40  1  0  0  0
  1 41  1  0  0  0
  1 42  1  0  0  0
  2  3  1  0  0  0
  2  4  1  0  0  0
  2 43  1  0  0  0
  3 44  1  0  0  0
  3 45  1  0  0  0
  3 46  1  0  0  0
  4 37  1  0  0  0
  4  5  2  0  0  0
  5  6  1  0  0  0
  5 47  1  0  0  0
  6  7  2  0  0  0
  6 48  1  0  0  0
  7  8  1  0  0  0
  7 49  1  0  0  0
  8  9  1  0  0  0
  8 37  2  0  0  0
  9 10  1  0  0  0
  9 50  1  0  0  0
  9 51  1  0  0  0
 10 11  1  0  0  0
 10 52  1  0  0  0
 11 12  1  0  0  0
 11 53  1  0  0  0
 11 54  1  0  0  0
 12 38  1  0  0  0
 12 13  1  0  0  0
 12 14  1  0  0  0
 13 55  1  0  0  0
 14 39  1  0  0  0
 14 35  1  0  0  0
 14 15  1  0  0  0
 15 16  1  0  0  0
 15 56  1  0  0  0
 15 57  1  0  0  0
 16 36  1  0  0  0
 16 17  2  0  0  0
 17 18  1  0  0  0
 17 58  1  0  0  0
 18 19  2  0  0  0
 18 59  1  0  0  0
 19 20  1  0  0  0
 19 60  1  0  0  0
 20 21  1  0  0  0
 20 36  2  0  0  0
 21 22  1  0  0  0
 21 61  1  0  0  0
 21 62  1  0  0  0
 22 23  1  0  0  0
 22 63  1  0  0  0
 22 64  1  0  0  0
 23 24  1  0  0  0
 23 65  1  0  0  0
 23 66  1  0  0  0
 24 25  1  0  0  0
 24 67  1  0  0  0
 24 68  1  0  0  0
 25 26  1  0  0  0
 25 27  1  0  0  0
 26 69  1  0  0  0
 26 70  1  0  0  0
 26 71  1  0  0  0
 27 32  1  0  0  0
 27 28  2  0  0  0
 28 29  1  0  0  0
 28 72  1  0  0  0
 29 30  2  0  0  0
 29 73  1  0  0  0
 30 31  1  0  0  0
 30 74  1  0  0  0
 31 32  2  0  0  0
 31 33  1  0  0  0
 32 75  1  0  0  0
 33 34  2  0  0  0
 33 35  1  0  0  0
 35 76  1  0  0  0
 36 77  1  0  0  0
 37 78  1  0  0  0
M  END
> <s_m_source_file>
BACE_118.smi

> <i_m_source_file_index>
1

> <i_lp_mmshare_version>
42013

> <i_f3d_flags>
0

> <s_epik_input>
W0NIM11bQ0hdKFtDSDNdKWMxW2NIXVtjSF1bY0hdYyhbY0hdMSlbQ0gyXVtOSF1bQ0gyXVtDQEBIXShbT0hdKVtDQEhdKFtDSDJdMilbTkhdQyg9TyljKFtjSF0zKVtjSF1bY0hdW2NIXWMzTihbQ0gzXSlbQ0gyXVtDSDJdW0NIMl1bQ0gyXWMoW2NIXTQpW2NIXVtjSF1bY0hdYzI0

> <s_epik_cmdline>
J2VwaWtfcHl0aG9uJywgJy1waCcsICc3LjAnLCAnLXRuJywgJzgnLCAnLW1hJywgJzIwMCcsICctaW1hZScsICc8aW5maWxlLm1hZT4nLCAnLW9tYWUnLCAnPG91dGZpbGUubWFlPic=

> <r_epik_Ionization_Penalty>
  2.0454

> <r_epik_Ionization_Penalty_Charging>
  0.0000

> <r_epik_Ionization_Penalty_Neutral>
  2.0454

> <r_epik_State_Penalty>
  2.1759

> <r_epik_Charging_Adjusted_Penalty>
2.17586

> <i_epik_Tot_Q>
0

> <i_epik_Tot_abs_Q>
0

> <s_lp_Force_Field>
OPLS_2005

> <r_lp_Energy>
39.2632

> <b_lp_Chiralities_Consistent>
1

> <s_lp_Variant>
BACE_118.smi:1-2

> <chiral flag>
1

> <version>
0

> <s_i_glide_gridfile>
second_dock_grid_2

> <i_i_glide_lignum>
241

> <i_i_glide_rotatable_bonds>
7

> <r_i_docking_score>
-1.18974

> <r_i_glide_ligand_efficiency>
-0.0321551

> <r_i_glide_ligand_efficiency_sa>
-0.107148

> <r_i_glide_ligand_efficiency_ln>
-0.258027

> <r_glide_XP_GScore>
-3.36564

> <r_i_glide_gscore>
-3.36564

> <r_i_glide_evdw>
-40.4268

> <r_i_glide_ecoul>
-9.93417

> <r_i_glide_energy>
-50.361

> <r_i_glide_einternal>
4.10056

> <r_i_glide_emodel>
-69.4198

> <r_glide_XP_HBond>
0

> <i_i_glide_confnum>
1

> <i_i_glide_posenum>
5

> <r_i_glide_eff_state_penalty>
2.1759

> <i_glide_XP_PoseRank>
2

$$$$
BACE_119.smi:1
                    3D
 Structure written by MMmdl.
 87 92  0  0  1  0            999 V2000
   28.2212   44.7051   -5.5719 C   0  0  0  0  0  0
   27.5748   45.6474   -6.6048 C   0  0  0  0  0  0
   28.6201   46.6892   -7.0639 C   0  0  0  0  0  0
   26.4368   46.4273   -5.9063 C   0  0  0  0  0  0
   27.0613   44.8012   -7.7871 C   0  0  0  0  0  0
   25.7349   44.3133   -7.8274 C   0  0  0  0  0  0
   25.3314   43.4717   -8.8865 C   0  0  0  0  0  0
   26.1585   43.1238   -9.8953 N   0  0  0  0  0  0
   27.4180   43.5967   -9.8731 C   0  0  0  0  0  0
   27.9189   44.4185   -8.8457 C   0  0  0  0  0  0
   23.9816   42.8070   -8.8989 C   0  0  0  0  0  0
   23.8997   41.3786   -8.4043 C   0  0  0  0  0  0
   23.2647   42.4774   -7.6001 C   0  0  0  0  0  0
   23.1311   43.2290  -10.0166 N   0  0  0  0  0  0
   23.0848   42.3169  -11.1656 C   0  0  0  0  0  0
   21.6387   42.1334  -11.6652 C   0  0  1  0  0  0
   21.6600   41.3495  -12.8384 O   0  0  0  0  0  0
   20.6973   41.4669  -10.6211 C   0  0  2  0  0  0
   20.8204   39.9297  -10.4823 C   0  0  0  0  0  0
   20.0156   39.3941   -9.3065 C   0  0  0  0  0  0
   18.7197   38.8758   -9.5086 C   0  0  0  0  0  0
   17.9483   38.4424   -8.4092 C   0  0  0  0  0  0
   16.5457   37.9176   -8.6269 C   0  0  0  0  0  0
   15.4564   38.9322   -8.2351 C   0  0  0  0  0  0
   14.2942   38.9474   -9.2364 C   0  0  0  0  0  0
   14.6178   39.7549  -10.5043 C   0  0  0  0  0  0
   14.2021   41.1454  -10.3759 N   0  0  0  0  0  0
   15.0621   42.1987  -10.7012 C   0  0  0  0  0  0
   16.4539   42.1000  -10.5019 C   0  0  0  0  0  0
   17.3069   43.1647  -10.8597 C   0  0  0  0  0  0
   16.7557   44.3401  -11.4106 C   0  0  0  0  0  0
   15.3629   44.4530  -11.6106 C   0  0  0  0  0  0
   14.5203   43.3833  -11.2392 C   0  0  0  0  0  0
   14.8078   45.6531  -12.2293 C   0  0  0  0  0  0
   15.4605   46.6729  -12.7855 N   0  0  0  0  0  0
   14.4826   47.4906  -13.3288 C   0  0  0  0  0  0
   13.2645   46.9291  -13.0573 C   0  0  0  0  0  0
   13.4546   45.7671  -12.3550 O   0  0  0  0  0  0
   18.7822   43.0601  -10.6191 C   0  0  0  0  0  0
   19.4421   44.0383  -10.2710 O   0  0  0  0  0  0
   19.3085   41.8489  -10.8528 N   0  0  0  0  0  0
   18.4757   38.5141   -7.1050 C   0  0  0  0  0  0
   19.7776   39.0063   -6.9008 C   0  0  0  0  0  0
   20.5428   39.4460   -7.9976 C   0  0  0  0  0  0
   21.2691   43.1204  -11.9464 H   0  0  0  0  0  0
   20.9413   41.8776   -9.6412 H   0  0  0  0  0  0
   27.5053   43.9689   -5.2054 H   0  0  0  0  0  0
   28.5947   45.2549   -4.7074 H   0  0  0  0  0  0
   29.0592   44.1586   -6.0030 H   0  0  0  0  0  0
   28.2184   47.3330   -7.8467 H   0  0  0  0  0  0
   29.5319   46.2275   -7.4402 H   0  0  0  0  0  0
   28.9259   47.3314   -6.2358 H   0  0  0  0  0  0
   25.8906   47.0517   -6.6135 H   0  0  0  0  0  0
   26.8290   47.0812   -5.1280 H   0  0  0  0  0  0
   25.7221   45.7669   -5.4131 H   0  0  0  0  0  0
   25.0329   44.5342   -7.0416 H   0  0  0  0  0  0
   28.0582   43.2919  -10.6879 H   0  0  0  0  0  0
   28.9526   44.7243   -8.8816 H   0  0  0  0  0  0
   23.2358   40.6765   -8.8932 H   0  0  0  0  0  0
   24.8242   40.9470   -8.0406 H   0  0  0  0  0  0
   23.7372   42.7222   -6.6533 H   0  0  0  0  0  0
   22.1770   42.5005   -7.5877 H   0  0  0  0  0  0
   22.1957   43.4332   -9.6817 H   0  0  0  0  0  0
   23.7010   42.7288  -11.9652 H   0  0  0  0  0  0
   23.5238   41.3482  -10.9362 H   0  0  0  0  0  0
   22.5515   41.0149  -12.9551 H   0  0  0  0  0  0
   21.8623   39.6393  -10.3531 H   0  0  0  0  0  0
   20.4869   39.4381  -11.3979 H   0  0  0  0  0  0
   18.3064   38.8296  -10.5047 H   0  0  0  0  0  0
   16.4227   37.0064   -8.0418 H   0  0  0  0  0  0
   16.4472   37.6188   -9.6712 H   0  0  0  0  0  0
   15.8681   39.9393   -8.1568 H   0  0  0  0  0  0
   15.0901   38.6859   -7.2361 H   0  0  0  0  0  0
   13.3919   39.3459   -8.7693 H   0  0  0  0  0  0
   14.0595   37.9187   -9.5052 H   0  0  0  0  0  0
   14.0614   39.3532  -11.3455 H   0  0  0  0  0  0
   15.6621   39.6415  -10.7887 H   0  0  0  0  0  0
   13.2103   41.3043  -10.2499 H   0  0  0  0  0  0
   16.8705   41.2154  -10.0441 H   0  0  0  0  0  0
   17.4066   45.1599  -11.6831 H   0  0  0  0  0  0
   13.4529   43.4555  -11.3921 H   0  0  0  0  0  0
   14.7307   48.3941  -13.8676 H   0  0  0  0  0  0
   12.2453   47.2012  -13.2912 H   0  0  0  0  0  0
   18.6866   41.1164  -11.1604 H   0  0  0  0  0  0
   17.8815   38.1890   -6.2627 H   0  0  0  0  0  0
   20.1843   39.0613   -5.9025 H   0  0  0  0  0  0
   21.5328   39.8322   -7.8182 H   0  0  0  0  0  0
  1  2  1  0  0  0
  1 47  1  0  0  0
  1 48  1  0  0  0
  1 49  1  0  0  0
  2  3  1  0  0  0
  2  4  1  0  0  0
  2  5  1  0  0  0
  3 50  1  0  0  0
  3 51  1  0  0  0
  3 52  1  0  0  0
  4 53  1  0  0  0
  4 54  1  0  0  0
  4 55  1  0  0  0
  5 10  1  0  0  0
  5  6  2  0  0  0
  6  7  1  0  0  0
  6 56  1  0  0  0
  7  8  2  0  0  0
  7 11  1  0  0  0
  8  9  1  0  0  0
  9 10  2  0  0  0
  9 57  1  0  0  0
 10 58  1  0  0  0
 11 13  1  0  0  0
 11 12  1  0  0  0
 11 14  1  0  0  0
 12 13  1  0  0  0
 12 59  1  0  0  0
 12 60  1  0  0  0
 13 61  1  0  0  0
 13 62  1  0  0  0
 14 15  1  0  0  0
 14 63  1  0  0  0
 15 16  1  0  0  0
 15 64  1  0  0  0
 15 65  1  0  0  0
 16 45  1  0  0  0
 16 17  1  0  0  0
 16 18  1  0  0  0
 17 66  1  0  0  0
 18 46  1  0  0  0
 18 41  1  0  0  0
 18 19  1  0  0  0
 19 20  1  0  0  0
 19 67  1  0  0  0
 19 68  1  0  0  0
 20 44  1  0  0  0
 20 21  2  0  0  0
 21 22  1  0  0  0
 21 69  1  0  0  0
 22 23  1  0  0  0
 22 42  2  0  0  0
 23 24  1  0  0  0
 23 70  1  0  0  0
 23 71  1  0  0  0
 24 25  1  0  0  0
 24 72  1  0  0  0
 24 73  1  0  0  0
 25 26  1  0  0  0
 25 74  1  0  0  0
 25 75  1  0  0  0
 26 27  1  0  0  0
 26 76  1  0  0  0
 26 77  1  0  0  0
 27 28  1  0  0  0
 27 78  1  0  0  0
 28 33  1  0  0  0
 28 29  2  0  0  0
 29 30  1  0  0  0
 29 79  1  0  0  0
 30 31  2  0  0  0
 30 39  1  0  0  0
 31 32  1  0  0  0
 31 80  1  0  0  0
 32 33  2  0  0  0
 32 34  1  0  0  0
 33 81  1  0  0  0
 34 38  1  0  0  0
 34 35  2  0  0  0
 35 36  1  0  0  0
 36 37  2  0  0  0
 36 82  1  0  0  0
 37 38  1  0  0  0
 37 83  1  0  0  0
 39 40  2  0  0  0
 39 41  1  0  0  0
 41 84  1  0  0  0
 42 43  1  0  0  0
 42 85  1  0  0  0
 43 44  2  0  0  0
 43 86  1  0  0  0
 44 87  1  0  0  0
M  END
> <s_m_source_file>
BACE_119.smi

> <i_m_source_file_index>
1

> <i_lp_mmshare_version>
42013

> <i_f3d_flags>
0

> <s_epik_input>
W0NIM11DKFtDSDNdKShbQ0gzXSljMVtjSF1jKG5bY0hdW2NIXTEpQzIoW0NIMl1bQ0gyXTIpW05IXVtDSDJdW0NAQEhdKFtPSF0pW0NASF0oW0NIMl0zKVtOSF1DKD1PKWMoW2NIXWMoW2NIXTQpLWM1bltjSF1bY0hdbzUpW2NIXWM0W05IXVtDSDJdW0NIMl1bQ0gyXVtDSDJdYyhbY0hdYzM2KVtjSF1bY0hdW2NIXTY=

> <s_epik_cmdline>
J2VwaWtfcHl0aG9uJywgJy1waCcsICc3LjAnLCAnLXRuJywgJzgnLCAnLW1hJywgJzIwMCcsICctaW1hZScsICc8aW5maWxlLm1hZT4nLCAnLW9tYWUnLCAnPG91dGZpbGUubWFlPic=

> <r_epik_Ionization_Penalty>
  0.1934

> <r_epik_Ionization_Penalty_Charging>
  0.0000

> <r_epik_Ionization_Penalty_Neutral>
  0.1934

> <r_epik_State_Penalty>
  0.1779

> <r_epik_Charging_Adjusted_Penalty>
0.177861

> <i_epik_Tot_Q>
0

> <i_epik_Tot_abs_Q>
0

> <s_lp_Force_Field>
OPLS_2005

> <r_lp_Energy>
44.3035

> <b_lp_Chiralities_Consistent>
1

> <s_lp_Variant>
BACE_119.smi:1-1

> <chiral flag>
1

> <version>
0

> <s_i_glide_gridfile>
second_dock_grid_2

> <i_i_glide_lignum>
242

> <i_i_glide_rotatable_bonds>
8

> <r_i_docking_score>
-2.80855

> <r_i_glide_ligand_efficiency>
-0.0638307

> <r_i_glide_ligand_efficiency_sa>
-0.225344

> <r_i_glide_ligand_efficiency_ln>
-0.587048

> <r_glide_XP_GScore>
-2.98645

> <r_i_glide_gscore>
-2.98645

> <r_i_glide_evdw>
-40.5656

> <r_i_glide_ecoul>
-10.1558

> <r_i_glide_energy>
-50.7214

> <r_i_glide_einternal>
5.11491

> <r_i_glide_emodel>
-69.8886

> <r_glide_XP_HBond>
-0.885162

> <i_i_glide_confnum>
1

> <i_i_glide_posenum>
11

> <r_i_glide_eff_state_penalty>
0.1779

> <i_glide_XP_PoseRank>
1

$$$$
BACE_119.smi:1
                    3D
 Structure written by MMmdl.
 88 93  0  0  1  0            999 V2000
   27.7259   46.3689   -9.3853 C   0  0  0  0  0  0
   28.2058   45.0641   -8.7167 C   0  0  0  0  0  0
   27.7332   45.0540   -7.2483 C   0  0  0  0  0  0
   29.7487   45.0653   -8.7165 C   0  0  0  0  0  0
   27.6153   43.8627   -9.4805 C   0  0  0  0  0  0
   26.2137   43.6745   -9.5319 C   0  0  0  0  0  0
   25.6847   42.5960  -10.2692 C   0  0  0  0  0  0
   26.4610   41.7074  -10.9241 N   0  0  0  0  0  0
   27.7968   41.8800  -10.8865 C   0  0  0  0  0  0
   28.4173   42.9328  -10.1846 C   0  0  0  0  0  0
   24.2160   42.3425  -10.3993 C   0  0  0  0  0  0
   23.4955   42.7867  -11.6597 C   0  0  0  0  0  0
   23.1416   43.4215  -10.3395 C   0  0  0  0  0  0
   23.8506   40.9504  -10.0466 N   0  3  0  0  0  0
   22.9046   40.7298   -8.9273 C   0  0  0  0  0  0
   21.6824   39.9346   -9.4428 C   0  0  1  0  0  0
   22.0601   38.5720   -9.4048 O   0  0  0  0  0  0
   20.3301   40.0690   -8.6798 C   0  0  2  0  0  0
   19.2201   39.2992   -9.4470 C   0  0  0  0  0  0
   17.7955   39.5390   -8.9748 C   0  0  0  0  0  0
   17.0487   40.6240   -9.4833 C   0  0  0  0  0  0
   15.7234   40.8367   -9.0520 C   0  0  0  0  0  0
   14.9433   42.0360   -9.5402 C   0  0  0  0  0  0
   14.7787   43.0942   -8.4401 C   0  0  0  0  0  0
   14.6848   44.5130   -9.0094 C   0  0  0  0  0  0
   16.0452   45.0848   -9.4461 C   0  0  0  0  0  0
   16.7264   45.7545   -8.3483 N   0  0  0  0  0  0
   17.9563   45.3113   -7.8420 C   0  0  0  0  0  0
   18.4146   43.9705   -7.9089 C   0  0  0  0  0  0
   19.6700   43.6132   -7.3547 C   0  0  0  0  0  0
   20.4545   44.6093   -6.7270 C   0  0  0  0  0  0
   20.0112   45.9483   -6.6675 C   0  0  0  0  0  0
   18.7588   46.2837   -7.2166 C   0  0  0  0  0  0
   20.8300   46.9815   -6.0399 C   0  0  0  0  0  0
   22.0880   46.9033   -5.6074 N   0  0  0  0  0  0
   22.3799   48.1617   -5.1038 C   0  0  0  0  0  0
   21.2649   48.9439   -5.2431 C   0  0  0  0  0  0
   20.2763   48.2112   -5.8368 O   0  0  0  0  0  0
   20.1696   42.1919   -7.3626 C   0  0  0  0  0  0
   20.8538   41.7699   -6.4303 O   0  0  0  0  0  0
   19.9324   41.4720   -8.4725 N   0  0  0  0  0  0
   15.1353   39.9480   -8.1333 C   0  0  0  0  0  0
   15.8705   38.8608   -7.6397 C   0  0  0  0  0  0
   17.2012   38.6543   -8.0506 C   0  0  0  0  0  0
   21.5081   40.2128  -10.4861 H   0  0  0  0  0  0
   20.4277   39.6004   -7.6952 H   0  0  0  0  0  0
   28.0369   46.4044  -10.4294 H   0  0  0  0  0  0
   28.1379   47.2502   -8.8886 H   0  0  0  0  0  0
   26.6408   46.4707   -9.3644 H   0  0  0  0  0  0
   28.0593   44.1482   -6.7360 H   0  0  0  0  0  0
   26.6495   45.1121   -7.1585 H   0  0  0  0  0  0
   28.1424   45.9055   -6.7002 H   0  0  0  0  0  0
   30.1565   44.1622   -8.2610 H   0  0  0  0  0  0
   30.1415   45.9136   -8.1537 H   0  0  0  0  0  0
   30.1511   45.1471   -9.7273 H   0  0  0  0  0  0
   25.5469   44.3580   -9.0245 H   0  0  0  0  0  0
   28.3891   41.1593  -11.4352 H   0  0  0  0  0  0
   29.4924   43.0052  -10.2176 H   0  0  0  0  0  0
   24.0496   43.3946  -12.3738 H   0  0  0  0  0  0
   22.7231   42.1484  -12.0933 H   0  0  0  0  0  0
   22.1429   43.1964   -9.9718 H   0  0  0  0  0  0
   23.4630   44.4513  -10.1836 H   0  0  0  0  0  0
   23.4732   40.5437  -10.8896 H   0  0  0  0  0  0
   23.4090   40.1856   -8.1275 H   0  0  0  0  0  0
   22.6222   41.6802   -8.4830 H   0  0  0  0  0  0
   22.9727   38.4828   -9.6456 H   0  0  0  0  0  0
   19.2541   39.5623  -10.5077 H   0  0  0  0  0  0
   19.4213   38.2260   -9.4042 H   0  0  0  0  0  0
   17.4979   41.3032  -10.1927 H   0  0  0  0  0  0
   15.4541   42.4521  -10.4064 H   0  0  0  0  0  0
   13.9635   41.7131   -9.8936 H   0  0  0  0  0  0
   15.6112   43.0500   -7.7377 H   0  0  0  0  0  0
   13.8930   42.8604   -7.8469 H   0  0  0  0  0  0
   14.0090   44.5003   -9.8642 H   0  0  0  0  0  0
   14.2246   45.1758   -8.2748 H   0  0  0  0  0  0
   16.6682   44.3273   -9.9203 H   0  0  0  0  0  0
   15.8705   45.8459  -10.2091 H   0  0  0  0  0  0
   16.5454   46.7446   -8.2770 H   0  0  0  0  0  0
   17.7951   43.2072   -8.3531 H   0  0  0  0  0  0
   21.4040   44.3439   -6.2831 H   0  0  0  0  0  0
   18.4098   47.3040   -7.1718 H   0  0  0  0  0  0
   23.3401   48.3981   -4.6710 H   0  0  0  0  0  0
   21.0186   49.9600   -4.9697 H   0  0  0  0  0  0
   19.3605   41.8970   -9.1875 H   0  0  0  0  0  0
   14.1232   40.1051   -7.7903 H   0  0  0  0  0  0
   15.4064   38.1903   -6.9287 H   0  0  0  0  0  0
   17.7536   37.8162   -7.6479 H   0  0  0  0  0  0
   24.7146   40.4576   -9.8531 H   0  0  0  0  0  0
  1  2  1  0  0  0
  1 47  1  0  0  0
  1 48  1  0  0  0
  1 49  1  0  0  0
  2  3  1  0  0  0
  2  4  1  0  0  0
  2  5  1  0  0  0
  3 50  1  0  0  0
  3 51  1  0  0  0
  3 52  1  0  0  0
  4 53  1  0  0  0
  4 54  1  0  0  0
  4 55  1  0  0  0
  5 10  1  0  0  0
  5  6  2  0  0  0
  6  7  1  0  0  0
  6 56  1  0  0  0
  7  8  2  0  0  0
  7 11  1  0  0  0
  8  9  1  0  0  0
  9 10  2  0  0  0
  9 57  1  0  0  0
 10 58  1  0  0  0
 11 13  1  0  0  0
 11 12  1  0  0  0
 11 14  1  0  0  0
 12 13  1  0  0  0
 12 59  1  0  0  0
 12 60  1  0  0  0
 13 61  1  0  0  0
 13 62  1  0  0  0
 14 15  1  0  0  0
 14 63  1  0  0  0
 14 88  1  0  0  0
 15 16  1  0  0  0
 15 64  1  0  0  0
 15 65  1  0  0  0
 16 45  1  0  0  0
 16 17  1  0  0  0
 16 18  1  0  0  0
 17 66  1  0  0  0
 18 46  1  0  0  0
 18 41  1  0  0  0
 18 19  1  0  0  0
 19 20  1  0  0  0
 19 67  1  0  0  0
 19 68  1  0  0  0
 20 44  1  0  0  0
 20 21  2  0  0  0
 21 22  1  0  0  0
 21 69  1  0  0  0
 22 23  1  0  0  0
 22 42  2  0  0  0
 23 24  1  0  0  0
 23 70  1  0  0  0
 23 71  1  0  0  0
 24 25  1  0  0  0
 24 72  1  0  0  0
 24 73  1  0  0  0
 25 26  1  0  0  0
 25 74  1  0  0  0
 25 75  1  0  0  0
 26 27  1  0  0  0
 26 76  1  0  0  0
 26 77  1  0  0  0
 27 28  1  0  0  0
 27 78  1  0  0  0
 28 33  1  0  0  0
 28 29  2  0  0  0
 29 30  1  0  0  0
 29 79  1  0  0  0
 30 31  2  0  0  0
 30 39  1  0  0  0
 31 32  1  0  0  0
 31 80  1  0  0  0
 32 33  2  0  0  0
 32 34  1  0  0  0
 33 81  1  0  0  0
 34 38  1  0  0  0
 34 35  2  0  0  0
 35 36  1  0  0  0
 36 37  2  0  0  0
 36 82  1  0  0  0
 37 38  1  0  0  0
 37 83  1  0  0  0
 39 40  2  0  0  0
 39 41  1  0  0  0
 41 84  1  0  0  0
 42 43  1  0  0  0
 42 85  1  0  0  0
 43 44  2  0  0  0
 43 86  1  0  0  0
 44 87  1  0  0  0
M  CHG  1  14   1
M  END
> <s_m_source_file>
BACE_119.smi

> <i_m_source_file_index>
1

> <i_lp_mmshare_version>
42013

> <i_f3d_flags>
0

> <s_epik_input>
W0NIM11DKFtDSDNdKShbQ0gzXSljMVtjSF1jKG5bY0hdW2NIXTEpQzIoW0NIMl1bQ0gyXTIpW05IXVtDSDJdW0NAQEhdKFtPSF0pW0NASF0oW0NIMl0zKVtOSF1DKD1PKWMoW2NIXWMoW2NIXTQpLWM1bltjSF1bY0hdbzUpW2NIXWM0W05IXVtDSDJdW0NIMl1bQ0gyXVtDSDJdYyhbY0hdYzM2KVtjSF1bY0hdW2NIXTY=

> <s_epik_cmdline>
J2VwaWtfcHl0aG9uJywgJy1waCcsICc3LjAnLCAnLXRuJywgJzgnLCAnLW1hJywgJzIwMCcsICctaW1hZScsICc8aW5maWxlLm1hZT4nLCAnLW9tYWUnLCAnPG91dGZpbGUubWFlPic=

> <r_epik_Ionization_Penalty>
  0.7895

> <r_epik_Ionization_Penalty_Charging>
  0.7876

> <r_epik_Ionization_Penalty_Neutral>
  0.0018

> <r_epik_State_Penalty>
  0.8240

> <r_epik_Charging_Adjusted_Penalty>
1.61158

> <i_epik_Tot_Q>
1

> <i_epik_Tot_abs_Q>
1

> <s_lp_Force_Field>
OPLS_2005

> <r_lp_Energy>
32.0464

> <b_lp_Chiralities_Consistent>
1

> <s_lp_Variant>
BACE_119.smi:1-2

> <chiral flag>
1

> <version>
0

> <s_i_glide_gridfile>
second_dock_grid_2

> <i_i_glide_lignum>
243

> <i_i_glide_rotatable_bonds>
8

> <r_i_docking_score>
-2.50086

> <r_i_glide_ligand_efficiency>
-0.0568377

> <r_i_glide_ligand_efficiency_sa>
-0.200657

> <r_i_glide_ligand_efficiency_ln>
-0.522734

> <r_glide_XP_GScore>
-3.32486

> <r_i_glide_gscore>
-3.32486

> <r_i_glide_evdw>
-43.2065

> <r_i_glide_ecoul>
-7.86468

> <r_i_glide_energy>
-51.0712

> <r_i_glide_einternal>
3.07789

> <r_i_glide_emodel>
-73.1581

> <r_glide_XP_HBond>
-1.38492

> <i_i_glide_confnum>
1

> <i_i_glide_posenum>
9

> <r_i_glide_eff_state_penalty>
0.824

> <i_glide_XP_PoseRank>
1

$$$$
