BACE_32.smi:1
                    3D
 Structure written by MMmdl.
 82 83  0  0  1  0            999 V2000
   20.7718   38.7992   -6.8386 C   0  0  0  0  0  0
   20.2333   39.0572   -8.2524 C   0  0  0  0  0  0
   21.1653   38.4408   -9.3169 C   0  0  0  0  0  0
   18.7631   38.6515   -8.3855 C   0  0  0  0  0  0
   18.3274   37.6921   -9.3260 C   0  0  0  0  0  0
   16.9634   37.3784   -9.4455 C   0  0  0  0  0  0
   16.0125   38.0328   -8.6471 C   0  0  0  0  0  0
   16.4251   38.9819   -7.6966 C   0  0  0  0  0  0
   15.3855   39.7246   -6.8673 C   0  0  0  0  0  0
   15.6574   41.1777   -6.8395 N   0  3  0  0  0  0
   15.7556   41.8690   -8.1398 C   0  0  0  0  0  0
   16.6888   43.1051   -8.0777 C   0  0  1  0  0  0
   17.8228   42.8778   -7.2522 O   0  0  0  0  0  0
   17.1995   43.5242   -9.4827 C   0  0  2  0  0  0
   18.1997   42.5115  -10.1184 C   0  0  0  0  0  0
   18.6183   42.7616  -11.5914 C   0  0  2  0  0  0
   17.3998   42.8634  -12.5203 C   0  0  0  0  0  0
   19.5530   41.6388  -12.1156 C   0  0  0  0  0  0
   20.8900   41.4663  -11.3693 C   0  0  0  0  0  0
   21.8148   42.6898  -11.4189 C   0  0  0  0  0  0
   23.0368   42.5373  -10.4964 C   0  0  0  0  0  0
   23.9876   43.7506  -10.5107 C   0  0  0  0  0  0
   23.3239   45.1185  -10.2426 C   0  0  0  0  0  0
   22.5588   45.2019   -8.9028 C   0  0  0  0  0  0
   21.8735   46.5594   -8.6406 C   0  0  0  0  0  0
   20.5343   46.7384   -9.3895 C   0  0  0  0  0  0
   20.5262   46.5869  -10.6087 O   0  0  0  0  0  0
   19.4034   47.0632   -8.7118 N   0  0  0  0  0  0
   19.3533   47.2021   -7.2547 C   0  0  0  0  0  0
   18.1270   47.2870   -9.4234 C   0  0  0  0  0  0
   17.2824   46.0229   -9.6648 C   0  0  0  0  0  0
   16.1293   46.1390  -10.0813 O   0  0  0  0  0  0
   17.8336   44.8333   -9.3887 N   0  0  0  0  0  0
   17.8015   39.2774   -7.5613 C   0  0  0  0  0  0
   16.1280   43.9316   -7.6403 H   0  0  0  0  0  0
   16.3220   43.5965  -10.1279 H   0  0  0  0  0  0
   19.1322   43.7197  -11.6514 H   0  0  0  0  0  0
   20.2366   39.3844   -6.0899 H   0  0  0  0  0  0
   21.8275   39.0653   -6.7619 H   0  0  0  0  0  0
   20.6708   37.7492   -6.5699 H   0  0  0  0  0  0
   20.2543   40.1376   -8.4012 H   0  0  0  0  0  0
   20.8330   38.6866  -10.3261 H   0  0  0  0  0  0
   21.2121   37.3544   -9.2371 H   0  0  0  0  0  0
   22.1860   38.8161   -9.2090 H   0  0  0  0  0  0
   19.0248   37.1873   -9.9759 H   0  0  0  0  0  0
   16.6362   36.6424  -10.1633 H   0  0  0  0  0  0
   14.9631   37.7914   -8.7562 H   0  0  0  0  0  0
   15.3969   39.3501   -5.8442 H   0  0  0  0  0  0
   14.3827   39.5496   -7.2626 H   0  0  0  0  0  0
   16.5523   41.2719   -6.3703 H   0  0  0  0  0  0
   14.7567   42.1623   -8.4636 H   0  0  0  0  0  0
   16.1048   41.1745   -8.8972 H   0  0  0  0  0  0
   17.5625   42.7838   -6.3457 H   0  0  0  0  0  0
   19.0991   42.4984   -9.4993 H   0  0  0  0  0  0
   17.8035   41.4979  -10.0681 H   0  0  0  0  0  0
   17.7035   42.9649  -13.5627 H   0  0  0  0  0  0
   16.7814   43.7311  -12.2912 H   0  0  0  0  0  0
   16.7903   41.9638  -12.4337 H   0  0  0  0  0  0
   19.0154   40.6897  -12.0710 H   0  0  0  0  0  0
   19.7595   41.7852  -13.1747 H   0  0  0  0  0  0
   21.4210   40.6132  -11.7943 H   0  0  0  0  0  0
   20.6955   41.2016  -10.3336 H   0  0  0  0  0  0
   22.1511   42.8652  -12.4398 H   0  0  0  0  0  0
   21.2569   43.5718  -11.1119 H   0  0  0  0  0  0
   23.5993   41.6478  -10.7876 H   0  0  0  0  0  0
   22.7032   42.3514   -9.4751 H   0  0  0  0  0  0
   24.7807   43.5840   -9.7796 H   0  0  0  0  0  0
   24.4868   43.7942  -11.4804 H   0  0  0  0  0  0
   22.6677   45.3598  -11.0788 H   0  0  0  0  0  0
   24.1000   45.8863  -10.2530 H   0  0  0  0  0  0
   21.8108   44.4114   -8.8426 H   0  0  0  0  0  0
   23.2586   44.9995   -8.0924 H   0  0  0  0  0  0
   22.5378   47.3736   -8.9270 H   0  0  0  0  0  0
   21.7510   46.6591   -7.5662 H   0  0  0  0  0  0
   19.9166   48.0778   -6.9334 H   0  0  0  0  0  0
   19.7591   46.3196   -6.7590 H   0  0  0  0  0  0
   18.3282   47.3117   -6.8880 H   0  0  0  0  0  0
   17.5152   48.0057   -8.8759 H   0  0  0  0  0  0
   18.3071   47.7594  -10.3911 H   0  0  0  0  0  0
   18.7799   44.8353   -9.0384 H   0  0  0  0  0  0
   18.1242   40.0137   -6.8412 H   0  0  0  0  0  0
   14.9621   41.6250   -6.2489 H   0  0  0  0  0  0
  1  2  1  0  0  0
  1 38  1  0  0  0
  1 39  1  0  0  0
  1 40  1  0  0  0
  2  3  1  0  0  0
  2  4  1  0  0  0
  2 41  1  0  0  0
  3 42  1  0  0  0
  3 43  1  0  0  0
  3 44  1  0  0  0
  4 34  1  0  0  0
  4  5  2  0  0  0
  5  6  1  0  0  0
  5 45  1  0  0  0
  6  7  2  0  0  0
  6 46  1  0  0  0
  7  8  1  0  0  0
  7 47  1  0  0  0
  8  9  1  0  0  0
  8 34  2  0  0  0
  9 10  1  0  0  0
  9 48  1  0  0  0
  9 49  1  0  0  0
 10 11  1  0  0  0
 10 50  1  0  0  0
 10 82  1  0  0  0
 11 12  1  0  0  0
 11 51  1  0  0  0
 11 52  1  0  0  0
 12 35  1  0  0  0
 12 13  1  0  0  0
 12 14  1  0  0  0
 13 53  1  0  0  0
 14 36  1  0  0  0
 14 33  1  0  0  0
 14 15  1  0  0  0
 15 16  1  0  0  0
 15 54  1  0  0  0
 15 55  1  0  0  0
 16 37  1  0  0  0
 16 17  1  0  0  0
 16 18  1  0  0  0
 17 56  1  0  0  0
 17 57  1  0  0  0
 17 58  1  0  0  0
 18 19  1  0  0  0
 18 59  1  0  0  0
 18 60  1  0  0  0
 19 20  1  0  0  0
 19 61  1  0  0  0
 19 62  1  0  0  0
 20 21  1  0  0  0
 20 63  1  0  0  0
 20 64  1  0  0  0
 21 22  1  0  0  0
 21 65  1  0  0  0
 21 66  1  0  0  0
 22 23  1  0  0  0
 22 67  1  0  0  0
 22 68  1  0  0  0
 23 24  1  0  0  0
 23 69  1  0  0  0
 23 70  1  0  0  0
 24 25  1  0  0  0
 24 71  1  0  0  0
 24 72  1  0  0  0
 25 26  1  0  0  0
 25 73  1  0  0  0
 25 74  1  0  0  0
 26 27  2  0  0  0
 26 28  1  0  0  0
 28 29  1  0  0  0
 28 30  1  0  0  0
 29 75  1  0  0  0
 29 76  1  0  0  0
 29 77  1  0  0  0
 30 31  1  0  0  0
 30 78  1  0  0  0
 30 79  1  0  0  0
 31 32  2  0  0  0
 31 33  1  0  0  0
 33 80  1  0  0  0
 34 81  1  0  0  0
M  CHG  1  10   1
M  END
> <s_m_source_file>
BACE_32.smi

> <i_m_source_file_index>
1

> <i_lp_mmshare_version>
42013

> <i_f3d_flags>
0

> <s_epik_input>
W0NIM11bQ0hdKFtDSDNdKWMxW2NIXVtjSF1bY0hdYyhbY0hdMSlbQ0gyXVtOSF1bQ0gyXVtDQEBIXShbT0hdKVtDQEBIXTJbQ0gyXVtDQEhdKFtDSDNdKVtDSDJdW0NIMl1bQ0gyXVtDSDJdW0NIMl1bQ0gyXVtDSDJdW0NIMl1DKD1PKU4oW0NIM10pW0NIMl1DKD1PKVtOSF0y

> <s_epik_cmdline>
J2VwaWtfcHl0aG9uJywgJy1waCcsICc3LjAnLCAnLXRuJywgJzgnLCAnLW1hJywgJzIwMCcsICctaW1hZScsICc8aW5maWxlLm1hZT4nLCAnLW9tYWUnLCAnPG91dGZpbGUubWFlPic=

> <r_epik_Ionization_Penalty>
  0.0182

> <r_epik_Ionization_Penalty_Charging>
  0.0182

> <r_epik_Ionization_Penalty_Neutral>
  0.0000

> <r_epik_State_Penalty>
  0.0144

> <r_epik_Charging_Adjusted_Penalty>
0.0325934

> <i_epik_Tot_Q>
1

> <i_epik_Tot_abs_Q>
1

> <s_lp_Force_Field>
OPLS_2005

> <r_lp_Energy>
19.9006

> <b_lp_Chiralities_Consistent>
1

> <s_lp_Variant>
BACE_32.smi:1-1

> <chiral flag>
1

> <version>
0

> <s_i_glide_gridfile>
second_dock_grid_2

> <i_i_glide_lignum>
55

> <i_i_glide_rotatable_bonds>
7

> <r_i_docking_score>
-5.37607

> <r_i_glide_ligand_efficiency>
-0.15812

> <r_i_glide_ligand_efficiency_sa>
-0.512247

> <r_i_glide_ligand_efficiency_ln>
-1.18773

> <r_glide_XP_GScore>
-5.39047

> <r_i_glide_gscore>
-5.39047

> <r_i_glide_evdw>
-32.1593

> <r_i_glide_ecoul>
-12.9993

> <r_i_glide_energy>
-45.1586

> <r_i_glide_einternal>
15.5728

> <r_i_glide_emodel>
-56.741

> <r_glide_XP_HBond>
-0.507459

> <i_i_glide_confnum>
1

> <i_i_glide_posenum>
7

> <r_i_glide_eff_state_penalty>
0.0144

> <i_glide_XP_PoseRank>
1

$$$$
BACE_32.smi:1
                    3D
 Structure written by MMmdl.
 81 82  0  0  1  0            999 V2000
   22.4600   45.8924    0.7368 C   0  0  0  0  0  0
   22.6946   44.3845    0.7899 C   0  0  0  0  0  0
   22.7370   43.8791    2.2411 C   0  0  0  0  0  0
   21.7094   43.6617   -0.1033 C   0  0  0  0  0  0
   20.4600   43.2589    0.3827 C   0  0  0  0  0  0
   19.5732   42.5500   -0.4391 C   0  0  0  0  0  0
   19.9531   42.1728   -1.7356 C   0  0  0  0  0  0
   21.2084   42.5586   -2.2382 C   0  0  0  0  0  0
   21.6344   42.0896   -3.6157 C   0  0  0  0  0  0
   22.3500   43.1098   -4.3804 N   0  0  0  0  0  0
   22.2976   42.8946   -5.8260 C   0  0  0  0  0  0
   20.9350   43.3086   -6.4296 C   0  0  1  0  0  0
   20.9890   44.7136   -6.6026 O   0  0  0  0  0  0
   20.6440   42.6166   -7.7870 C   0  0  2  0  0  0
   19.5247   43.3228   -8.5941 C   0  0  0  0  0  0
   19.1315   42.6685   -9.9375 C   0  0  2  0  0  0
   20.3301   42.5440  -10.8999 C   0  0  0  0  0  0
   17.9697   43.4688  -10.5750 C   0  0  0  0  0  0
   17.3277   42.8406  -11.8265 C   0  0  0  0  0  0
   16.6466   41.4876  -11.5672 C   0  0  0  0  0  0
   15.3197   41.5867  -10.7930 C   0  0  0  0  0  0
   14.5706   40.2427  -10.6998 C   0  0  0  0  0  0
   15.4092   39.0988  -10.1058 C   0  0  0  0  0  0
   15.7735   39.3171   -8.6317 C   0  0  0  0  0  0
   16.6713   38.2118   -8.0594 C   0  0  0  0  0  0
   18.1713   38.4234   -8.3560 C   0  0  0  0  0  0
   18.5441   38.3551   -9.5279 O   0  0  0  0  0  0
   19.0425   38.6549   -7.3413 N   0  0  0  0  0  0
   18.6254   38.7955   -5.9472 C   0  0  0  0  0  0
   20.4948   38.7356   -7.5811 C   0  0  0  0  0  0
   21.0569   40.1474   -7.8172 C   0  0  0  0  0  0
   22.2126   40.2611   -8.2230 O   0  0  0  0  0  0
   20.2744   41.2122   -7.5663 N   0  0  0  0  0  0
   22.0599   43.3492   -1.4339 C   0  0  0  0  0  0
   20.1118   43.0970   -5.7467 H   0  0  0  0  0  0
   21.5579   42.6792   -8.3793 H   0  0  0  0  0  0
   18.7817   41.6627   -9.7084 H   0  0  0  0  0  0
   22.4600   46.2444   -0.2926 H   0  0  0  0  0  0
   23.2535   46.4316    1.2534 H   0  0  0  0  0  0
   21.4897   46.1496    1.1600 H   0  0  0  0  0  0
   23.6600   44.1499    0.3613 H   0  0  0  0  0  0
   22.8595   42.7962    2.2838 H   0  0  0  0  0  0
   21.8320   44.1500    2.7848 H   0  0  0  0  0  0
   23.5743   44.3185    2.7826 H   0  0  0  0  0  0
   20.1725   43.4793    1.3964 H   0  0  0  0  0  0
   18.6093   42.2594   -0.0505 H   0  0  0  0  0  0
   19.2761   41.5834   -2.3361 H   0  0  0  0  0  0
   20.7378   41.7644   -4.1438 H   0  0  0  0  0  0
   22.2561   41.2000   -3.5080 H   0  0  0  0  0  0
   23.3269   43.0972   -4.0999 H   0  0  0  0  0  0
   22.5053   41.8448   -6.0331 H   0  0  0  0  0  0
   23.0968   43.4516   -6.3170 H   0  0  0  0  0  0
   20.1463   45.0052   -6.9117 H   0  0  0  0  0  0
   18.6365   43.3910   -7.9634 H   0  0  0  0  0  0
   19.8208   44.3501   -8.8083 H   0  0  0  0  0  0
   20.0529   42.0404  -11.8254 H   0  0  0  0  0  0
   21.1350   41.9499  -10.4689 H   0  0  0  0  0  0
   20.7381   43.5211  -11.1587 H   0  0  0  0  0  0
   17.1898   43.6262   -9.8300 H   0  0  0  0  0  0
   18.3292   44.4649  -10.8345 H   0  0  0  0  0  0
   18.0795   42.7190  -12.6049 H   0  0  0  0  0  0
   16.6006   43.5409  -12.2381 H   0  0  0  0  0  0
   16.4596   40.9838  -12.5078 H   0  0  0  0  0  0
   17.3399   40.8282  -11.0511 H   0  0  0  0  0  0
   14.6656   42.3134  -11.2744 H   0  0  0  0  0  0
   15.5034   41.9778   -9.7925 H   0  0  0  0  0  0
   13.6610   40.3699  -10.1089 H   0  0  0  0  0  0
   14.2390   39.9452  -11.6948 H   0  0  0  0  0  0
   16.3050   38.9470  -10.7046 H   0  0  0  0  0  0
   14.8601   38.1629  -10.1892 H   0  0  0  0  0  0
   16.2609   40.2820   -8.4902 H   0  0  0  0  0  0
   14.8533   39.3622   -8.0462 H   0  0  0  0  0  0
   16.3726   37.2405   -8.4559 H   0  0  0  0  0  0
   16.4565   38.1501   -6.9986 H   0  0  0  0  0  0
   17.6976   39.3499   -5.8572 H   0  0  0  0  0  0
   19.3617   39.3498   -5.3606 H   0  0  0  0  0  0
   18.4600   37.8164   -5.4964 H   0  0  0  0  0  0
   21.0208   38.3090   -6.7261 H   0  0  0  0  0  0
   20.7857   38.1074   -8.4250 H   0  0  0  0  0  0
   19.3476   41.0336   -7.2040 H   0  0  0  0  0  0
   23.0125   43.6515   -1.8298 H   0  0  0  0  0  0
  1  2  1  0  0  0
  1 38  1  0  0  0
  1 39  1  0  0  0
  1 40  1  0  0  0
  2  3  1  0  0  0
  2  4  1  0  0  0
  2 41  1  0  0  0
  3 42  1  0  0  0
  3 43  1  0  0  0
  3 44  1  0  0  0
  4 34  1  0  0  0
  4  5  2  0  0  0
  5  6  1  0  0  0
  5 45  1  0  0  0
  6  7  2  0  0  0
  6 46  1  0  0  0
  7  8  1  0  0  0
  7 47  1  0  0  0
  8  9  1  0  0  0
  8 34  2  0  0  0
  9 10  1  0  0  0
  9 48  1  0  0  0
  9 49  1  0  0  0
 10 11  1  0  0  0
 10 50  1  0  0  0
 11 12  1  0  0  0
 11 51  1  0  0  0
 11 52  1  0  0  0
 12 35  1  0  0  0
 12 13  1  0  0  0
 12 14  1  0  0  0
 13 53  1  0  0  0
 14 36  1  0  0  0
 14 33  1  0  0  0
 14 15  1  0  0  0
 15 16  1  0  0  0
 15 54  1  0  0  0
 15 55  1  0  0  0
 16 37  1  0  0  0
 16 17  1  0  0  0
 16 18  1  0  0  0
 17 56  1  0  0  0
 17 57  1  0  0  0
 17 58  1  0  0  0
 18 19  1  0  0  0
 18 59  1  0  0  0
 18 60  1  0  0  0
 19 20  1  0  0  0
 19 61  1  0  0  0
 19 62  1  0  0  0
 20 21  1  0  0  0
 20 63  1  0  0  0
 20 64  1  0  0  0
 21 22  1  0  0  0
 21 65  1  0  0  0
 21 66  1  0  0  0
 22 23  1  0  0  0
 22 67  1  0  0  0
 22 68  1  0  0  0
 23 24  1  0  0  0
 23 69  1  0  0  0
 23 70  1  0  0  0
 24 25  1  0  0  0
 24 71  1  0  0  0
 24 72  1  0  0  0
 25 26  1  0  0  0
 25 73  1  0  0  0
 25 74  1  0  0  0
 26 27  2  0  0  0
 26 28  1  0  0  0
 28 29  1  0  0  0
 28 30  1  0  0  0
 29 75  1  0  0  0
 29 76  1  0  0  0
 29 77  1  0  0  0
 30 31  1  0  0  0
 30 78  1  0  0  0
 30 79  1  0  0  0
 31 32  2  0  0  0
 31 33  1  0  0  0
 33 80  1  0  0  0
 34 81  1  0  0  0
M  END
> <s_m_source_file>
BACE_32.smi

> <i_m_source_file_index>
1

> <i_lp_mmshare_version>
42013

> <i_f3d_flags>
0

> <s_epik_input>
W0NIM11bQ0hdKFtDSDNdKWMxW2NIXVtjSF1bY0hdYyhbY0hdMSlbQ0gyXVtOSF1bQ0gyXVtDQEBIXShbT0hdKVtDQEBIXTJbQ0gyXVtDQEhdKFtDSDNdKVtDSDJdW0NIMl1bQ0gyXVtDSDJdW0NIMl1bQ0gyXVtDSDJdW0NIMl1DKD1PKU4oW0NIM10pW0NIMl1DKD1PKVtOSF0y

> <s_epik_cmdline>
J2VwaWtfcHl0aG9uJywgJy1waCcsICc3LjAnLCAnLXRuJywgJzgnLCAnLW1hJywgJzIwMCcsICctaW1hZScsICc8aW5maWxlLm1hZT4nLCAnLW9tYWUnLCAnPG91dGZpbGUubWFlPic=

> <r_epik_Ionization_Penalty>
  2.0739

> <r_epik_Ionization_Penalty_Charging>
  0.0000

> <r_epik_Ionization_Penalty_Neutral>
  2.0739

> <r_epik_State_Penalty>
  2.2081

> <r_epik_Charging_Adjusted_Penalty>
2.20813

> <i_epik_Tot_Q>
0

> <i_epik_Tot_abs_Q>
0

> <s_lp_Force_Field>
OPLS_2005

> <r_lp_Energy>
29.7195

> <b_lp_Chiralities_Consistent>
1

> <s_lp_Variant>
BACE_32.smi:1-2

> <chiral flag>
1

> <version>
0

> <s_i_glide_gridfile>
second_dock_grid_2

> <i_i_glide_lignum>
56

> <i_i_glide_rotatable_bonds>
7

> <r_i_docking_score>
-1.51335

> <r_i_glide_ligand_efficiency>
-0.0445103

> <r_i_glide_ligand_efficiency_sa>
-0.144196

> <r_i_glide_ligand_efficiency_ln>
-0.334341

> <r_glide_XP_GScore>
-3.72145

> <r_i_glide_gscore>
-3.72145

> <r_i_glide_evdw>
-39.4861

> <r_i_glide_ecoul>
-1.85

> <r_i_glide_energy>
-41.3361

> <r_i_glide_einternal>
7.45696

> <r_i_glide_emodel>
-48.5389

> <r_glide_XP_HBond>
-1.23914

> <i_i_glide_confnum>
1

> <i_i_glide_posenum>
4

> <r_i_glide_eff_state_penalty>
2.2081

> <i_glide_XP_PoseRank>
1

$$$$
BACE_33.smi:1
                    3D
 Structure written by MMmdl.
 88 89  0  0  1  0            999 V2000
   19.8677   41.9001  -11.5778 C   0  0  0  0  0  0
   19.3015   40.5008  -11.8475 C   0  0  0  0  0  0
   20.4430   39.4679  -11.8811 C   0  0  0  0  0  0
   18.1730   40.1745  -10.8669 C   0  0  0  0  0  0
   18.3646   39.2989   -9.7776 C   0  0  0  0  0  0
   17.3731   39.1504   -8.7836 C   0  0  0  0  0  0
   17.6588   38.3384   -7.5269 C   0  0  0  0  0  0
   18.5539   39.0354   -6.5689 N   0  3  0  0  0  0
   19.9260   39.3199   -7.0624 C   0  0  0  0  0  0
   20.8630   39.9241   -5.9914 C   0  0  1  0  0  0
   22.0587   39.1745   -6.0412 O   0  0  0  0  0  0
   21.2582   41.4127   -6.2098 C   0  0  2  0  0  0
   22.0931   41.9332   -5.0026 C   0  0  0  0  0  0
   22.6769   43.3672   -5.0526 C   0  0  2  0  0  0
   21.6084   44.4461   -4.8403 C   0  0  0  0  0  0
   23.6088   43.6224   -6.2635 C   0  0  0  0  0  0
   24.1552   45.0598   -6.3656 C   0  0  0  0  0  0
   23.3227   45.9342   -7.3194 C   0  0  0  0  0  0
   23.4207   47.4387   -7.0211 C   0  0  0  0  0  0
   22.7670   48.3302   -8.0965 C   0  0  0  0  0  0
   21.2900   48.0229   -8.4424 C   0  0  2  0  0  0
   20.8857   48.8171   -9.6978 C   0  0  0  0  0  0
   20.3220   48.3038   -7.2685 C   0  0  0  0  0  0
   18.9057   47.6990   -7.4253 C   0  0  0  0  0  0
   18.8168   46.2240   -6.9877 C   0  0  0  0  0  0
   18.8602   46.0087   -5.7732 O   0  0  0  0  0  0
   18.6515   45.2282   -7.9030 N   0  0  0  0  0  0
   18.6380   45.4903   -9.3515 C   0  0  0  0  0  0
   18.4962   43.8213   -7.4490 C   0  0  1  0  0  0
   17.4676   43.0498   -8.2958 C   0  0  0  0  0  0
   19.8328   43.0558   -7.4686 C   0  0  0  0  0  0
   20.6386   43.2220   -8.3829 O   0  0  0  0  0  0
   20.0599   42.2243   -6.4364 N   0  0  0  0  0  0
   16.1223   39.7784   -8.9541 C   0  0  0  0  0  0
   15.8870   40.5818  -10.0862 C   0  0  0  0  0  0
   16.9166   40.7991  -11.0228 C   0  0  0  0  0  0
   20.4288   39.7905   -4.9989 H   0  0  0  0  0  0
   21.8828   41.4541   -7.1029 H   0  0  0  0  0  0
   23.3125   43.4381   -4.1688 H   0  0  0  0  0  0
   21.2294   46.9681   -8.7004 H   0  0  0  0  0  0
   18.0984   43.8022   -6.4400 H   0  0  0  0  0  0
   19.0967   42.6667  -11.6509 H   0  0  0  0  0  0
   20.6535   42.1483  -12.2911 H   0  0  0  0  0  0
   20.3017   41.9551  -10.5812 H   0  0  0  0  0  0
   18.8598   40.5231  -12.8397 H   0  0  0  0  0  0
   20.0599   38.4625  -12.0397 H   0  0  0  0  0  0
   21.0188   39.4657  -10.9553 H   0  0  0  0  0  0
   21.1412   39.6839  -12.6906 H   0  0  0  0  0  0
   19.3044   38.7834   -9.6582 H   0  0  0  0  0  0
   18.0734   37.3657   -7.7964 H   0  0  0  0  0  0
   16.7164   38.1500   -7.0148 H   0  0  0  0  0  0
   18.6275   38.4423   -5.7536 H   0  0  0  0  0  0
   19.9011   40.0073   -7.9037 H   0  0  0  0  0  0
   20.3283   38.3790   -7.4442 H   0  0  0  0  0  0
   22.4882   39.3300   -6.8696 H   0  0  0  0  0  0
   21.4965   41.8310   -4.0953 H   0  0  0  0  0  0
   22.9370   41.2608   -4.8483 H   0  0  0  0  0  0
   22.0613   45.3913   -4.5428 H   0  0  0  0  0  0
   20.9101   44.1501   -4.0552 H   0  0  0  0  0  0
   21.0355   44.6433   -5.7368 H   0  0  0  0  0  0
   24.4611   42.9501   -6.1799 H   0  0  0  0  0  0
   23.1186   43.3567   -7.2002 H   0  0  0  0  0  0
   25.1803   45.0346   -6.7353 H   0  0  0  0  0  0
   24.2195   45.5063   -5.3723 H   0  0  0  0  0  0
   23.6336   45.7331   -8.3462 H   0  0  0  0  0  0
   22.2767   45.6364   -7.2668 H   0  0  0  0  0  0
   24.4721   47.7162   -6.9387 H   0  0  0  0  0  0
   22.9847   47.6451   -6.0432 H   0  0  0  0  0  0
   22.8612   49.3745   -7.7967 H   0  0  0  0  0  0
   23.3627   48.2314   -9.0050 H   0  0  0  0  0  0
   19.8760   48.5792  -10.0297 H   0  0  0  0  0  0
   21.5513   48.5956  -10.5327 H   0  0  0  0  0  0
   20.9302   49.8922   -9.5185 H   0  0  0  0  0  0
   20.7505   47.9339   -6.3374 H   0  0  0  0  0  0
   20.2358   49.3818   -7.1293 H   0  0  0  0  0  0
   18.4836   47.8803   -8.4108 H   0  0  0  0  0  0
   18.2433   48.2435   -6.7519 H   0  0  0  0  0  0
   18.8717   44.6031   -9.9397 H   0  0  0  0  0  0
   19.3815   46.2250   -9.6522 H   0  0  0  0  0  0
   17.6558   45.8491   -9.6622 H   0  0  0  0  0  0
   17.2215   42.1042   -7.8110 H   0  0  0  0  0  0
   17.8275   42.8089   -9.2943 H   0  0  0  0  0  0
   16.5363   43.6074   -8.3927 H   0  0  0  0  0  0
   19.3299   42.1505   -5.7361 H   0  0  0  0  0  0
   15.3412   39.6571   -8.2156 H   0  0  0  0  0  0
   14.9271   41.0634  -10.2077 H   0  0  0  0  0  0
   16.7453   41.4593  -11.8593 H   0  0  0  0  0  0
   18.1139   39.9030   -6.2802 H   0  0  0  0  0  0
  1  2  1  0  0  0
  1 42  1  0  0  0
  1 43  1  0  0  0
  1 44  1  0  0  0
  2  3  1  0  0  0
  2  4  1  0  0  0
  2 45  1  0  0  0
  3 46  1  0  0  0
  3 47  1  0  0  0
  3 48  1  0  0  0
  4 36  1  0  0  0
  4  5  2  0  0  0
  5  6  1  0  0  0
  5 49  1  0  0  0
  6  7  1  0  0  0
  6 34  2  0  0  0
  7  8  1  0  0  0
  7 50  1  0  0  0
  7 51  1  0  0  0
  8  9  1  0  0  0
  8 52  1  0  0  0
  8 88  1  0  0  0
  9 10  1  0  0  0
  9 53  1  0  0  0
  9 54  1  0  0  0
 10 37  1  0  0  0
 10 11  1  0  0  0
 10 12  1  0  0  0
 11 55  1  0  0  0
 12 38  1  0  0  0
 12 33  1  0  0  0
 12 13  1  0  0  0
 13 14  1  0  0  0
 13 56  1  0  0  0
 13 57  1  0  0  0
 14 39  1  0  0  0
 14 15  1  0  0  0
 14 16  1  0  0  0
 15 58  1  0  0  0
 15 59  1  0  0  0
 15 60  1  0  0  0
 16 17  1  0  0  0
 16 61  1  0  0  0
 16 62  1  0  0  0
 17 18  1  0  0  0
 17 63  1  0  0  0
 17 64  1  0  0  0
 18 19  1  0  0  0
 18 65  1  0  0  0
 18 66  1  0  0  0
 19 20  1  0  0  0
 19 67  1  0  0  0
 19 68  1  0  0  0
 20 21  1  0  0  0
 20 69  1  0  0  0
 20 70  1  0  0  0
 21 40  1  0  0  0
 21 22  1  0  0  0
 21 23  1  0  0  0
 22 71  1  0  0  0
 22 72  1  0  0  0
 22 73  1  0  0  0
 23 24  1  0  0  0
 23 74  1  0  0  0
 23 75  1  0  0  0
 24 25  1  0  0  0
 24 76  1  0  0  0
 24 77  1  0  0  0
 25 26  2  0  0  0
 25 27  1  0  0  0
 27 28  1  0  0  0
 27 29  1  0  0  0
 28 78  1  0  0  0
 28 79  1  0  0  0
 28 80  1  0  0  0
 29 41  1  0  0  0
 29 30  1  0  0  0
 29 31  1  0  0  0
 30 81  1  0  0  0
 30 82  1  0  0  0
 30 83  1  0  0  0
 31 32  2  0  0  0
 31 33  1  0  0  0
 33 84  1  0  0  0
 34 35  1  0  0  0
 34 85  1  0  0  0
 35 36  2  0  0  0
 35 86  1  0  0  0
 36 87  1  0  0  0
M  CHG  1   8   1
M  END
> <s_m_source_file>
BACE_33.smi

> <i_m_source_file_index>
1

> <i_lp_mmshare_version>
42013

> <i_f3d_flags>
0

> <s_epik_input>
W0NIM11bQ0hdKFtDSDNdKWMxW2NIXWMoW2NIXVtjSF1bY0hdMSlbQ0gyXVtOSF1bQ0gyXVtDQEBIXShbT0hdKVtDQEBIXTJbQ0gyXVtDQEhdKFtDSDNdKVtDSDJdW0NIMl1bQ0gyXVtDSDJdW0NIMl1bQ0BIXShbQ0gzXSlbQ0gyXVtDSDJdQyg9TylOKFtDSDNdKVtDQEBIXShbQ0gzXSlDKD1PKVtOSF0y

> <s_epik_cmdline>
J2VwaWtfcHl0aG9uJywgJy1waCcsICc3LjAnLCAnLXRuJywgJzgnLCAnLW1hJywgJzIwMCcsICctaW1hZScsICc8aW5maWxlLm1hZT4nLCAnLW9tYWUnLCAnPG91dGZpbGUubWFlPic=

> <r_epik_Ionization_Penalty>
  0.0182

> <r_epik_Ionization_Penalty_Charging>
  0.0182

> <r_epik_Ionization_Penalty_Neutral>
  0.0000

> <r_epik_State_Penalty>
  0.0144

> <r_epik_Charging_Adjusted_Penalty>
0.0325934

> <i_epik_Tot_Q>
1

> <i_epik_Tot_abs_Q>
1

> <s_lp_Force_Field>
OPLS_2005

> <r_lp_Energy>
39.0831

> <b_lp_Chiralities_Consistent>
1

> <s_lp_Variant>
BACE_33.smi:1-1

> <chiral flag>
1

> <version>
0

> <s_i_glide_gridfile>
second_dock_grid_2

> <i_i_glide_lignum>
57

> <i_i_glide_rotatable_bonds>
7

> <r_i_docking_score>
-5.23368

> <r_i_glide_ligand_efficiency>
-0.14538

> <r_i_glide_ligand_efficiency_sa>
-0.480034

> <r_i_glide_ligand_efficiency_ln>
-1.14185

> <r_glide_XP_GScore>
-5.24808

> <r_i_glide_gscore>
-5.24808

> <r_i_glide_evdw>
-30.7376

> <r_i_glide_ecoul>
-13.1639

> <r_i_glide_energy>
-43.9015

> <r_i_glide_einternal>
4.81995

> <r_i_glide_emodel>
-64.5278

> <r_glide_XP_HBond>
-1.33

> <i_i_glide_confnum>
1

> <i_i_glide_posenum>
1

> <r_i_glide_eff_state_penalty>
0.0144

> <i_glide_XP_PoseRank>
1

$$$$
BACE_33.smi:1
                    3D
 Structure written by MMmdl.
 87 88  0  0  1  0            999 V2000
   22.3203   40.1299   -4.1593 C   0  0  0  0  0  0
   21.1553   40.6115   -5.0376 C   0  0  0  0  0  0
   20.8999   42.1177   -4.8643 C   0  0  0  0  0  0
   21.3704   40.2330   -6.4980 C   0  0  0  0  0  0
   20.5644   39.2394   -7.0951 C   0  0  0  0  0  0
   20.7437   38.8846   -8.4506 C   0  0  0  0  0  0
   19.8895   37.8060   -9.0955 C   0  0  0  0  0  0
   18.5368   38.2110   -9.4406 N   0  0  0  0  0  0
   17.5882   38.1700   -8.3257 C   0  0  0  0  0  0
   16.1608   38.5630   -8.7572 C   0  0  1  0  0  0
   15.3309   38.3051   -7.6401 O   0  0  0  0  0  0
   15.9979   40.0666   -9.1300 C   0  0  2  0  0  0
   14.5197   40.4693   -9.4038 C   0  0  0  0  0  0
   14.1932   41.9751   -9.6278 C   0  0  2  0  0  0
   14.5787   42.4820  -11.0248 C   0  0  0  0  0  0
   14.6745   42.8558   -8.4433 C   0  0  0  0  0  0
   14.6543   44.3837   -8.6432 C   0  0  0  0  0  0
   16.0634   44.9265   -8.9441 C   0  0  0  0  0  0
   16.1032   46.4294   -9.2484 C   0  0  0  0  0  0
   17.5215   47.0343   -9.2566 C   0  0  0  0  0  0
   18.5502   46.3291  -10.1673 C   0  0  2  0  0  0
   19.9487   46.9325   -9.9375 C   0  0  0  0  0  0
   18.1594   46.3896  -11.6620 C   0  0  0  0  0  0
   18.8552   45.3397  -12.5494 C   0  0  0  0  0  0
   18.2683   43.9241  -12.3889 C   0  0  0  0  0  0
   17.1350   43.7435  -12.8399 O   0  0  0  0  0  0
   18.9960   42.9239  -11.8237 N   0  0  0  0  0  0
   20.3256   43.1516  -11.2302 C   0  0  0  0  0  0
   18.4225   41.5580  -11.7177 C   0  0  1  0  0  0
   19.4692   40.4705  -12.0451 C   0  0  0  0  0  0
   17.8179   41.2968  -10.3287 C   0  0  0  0  0  0
   18.2411   41.8748   -9.3292 O   0  0  0  0  0  0
   16.8065   40.4151  -10.2983 N   0  0  0  0  0  0
   21.7609   39.5103   -9.2003 C   0  0  0  0  0  0
   22.5713   40.4976   -8.6116 C   0  0  0  0  0  0
   22.3753   40.8608   -7.2663 C   0  0  0  0  0  0
   15.8312   37.9268   -9.5795 H   0  0  0  0  0  0
   16.3538   40.6099   -8.2565 H   0  0  0  0  0  0
   13.1041   42.0362   -9.6399 H   0  0  0  0  0  0
   18.5970   45.2870   -9.8537 H   0  0  0  0  0  0
   17.6163   41.4225  -12.4399 H   0  0  0  0  0  0
   22.4590   39.0516   -4.2480 H   0  0  0  0  0  0
   22.1380   40.3479   -3.1074 H   0  0  0  0  0  0
   23.2598   40.6082   -4.4370 H   0  0  0  0  0  0
   20.2531   40.1023   -4.6966 H   0  0  0  0  0  0
   20.0609   42.4419   -5.4811 H   0  0  0  0  0  0
   21.7698   42.7122   -5.1435 H   0  0  0  0  0  0
   20.6564   42.3579   -3.8294 H   0  0  0  0  0  0
   19.8121   38.7403   -6.5039 H   0  0  0  0  0  0
   19.8305   36.9501   -8.4419 H   0  0  0  0  0  0
   20.4014   37.4730   -9.9960 H   0  0  0  0  0  0
   18.5645   39.1694   -9.7738 H   0  0  0  0  0  0
   17.9033   38.8393   -7.5263 H   0  0  0  0  0  0
   17.5731   37.1652   -7.9004 H   0  0  0  0  0  0
   15.6597   37.5668   -7.1189 H   0  0  0  0  0  0
   14.1297   39.8851  -10.2389 H   0  0  0  0  0  0
   13.9369   40.1467   -8.5462 H   0  0  0  0  0  0
   14.0518   43.3993  -11.2842 H   0  0  0  0  0  0
   14.3147   41.7409  -11.7744 H   0  0  0  0  0  0
   15.6388   42.6894  -11.1007 H   0  0  0  0  0  0
   14.0603   42.6008   -7.5815 H   0  0  0  0  0  0
   15.6838   42.5866   -8.1401 H   0  0  0  0  0  0
   14.2995   44.8532   -7.7239 H   0  0  0  0  0  0
   13.9438   44.6665   -9.4184 H   0  0  0  0  0  0
   16.7057   44.7186   -8.0870 H   0  0  0  0  0  0
   16.4914   44.3769   -9.7812 H   0  0  0  0  0  0
   15.5310   46.9500   -8.4875 H   0  0  0  0  0  0
   15.5990   46.6285  -10.1918 H   0  0  0  0  0  0
   17.4545   48.0871   -9.5343 H   0  0  0  0  0  0
   17.8968   47.0215   -8.2321 H   0  0  0  0  0  0
   20.7099   46.4419  -10.5419 H   0  0  0  0  0  0
   20.2523   46.8273   -8.8948 H   0  0  0  0  0  0
   19.9680   47.9945  -10.1847 H   0  0  0  0  0  0
   17.0852   46.2622  -11.7794 H   0  0  0  0  0  0
   18.3700   47.3875  -12.0487 H   0  0  0  0  0  0
   19.9345   45.3815  -12.4382 H   0  0  0  0  0  0
   18.6751   45.6217  -13.5863 H   0  0  0  0  0  0
   20.5725   42.4108  -10.4705 H   0  0  0  0  0  0
   20.3945   44.1027  -10.7100 H   0  0  0  0  0  0
   21.1012   43.1094  -11.9935 H   0  0  0  0  0  0
   19.0142   39.4780  -12.0391 H   0  0  0  0  0  0
   20.2884   40.4378  -11.3294 H   0  0  0  0  0  0
   19.8999   40.6251  -13.0353 H   0  0  0  0  0  0
   16.5510   39.9632  -11.1633 H   0  0  0  0  0  0
   21.9331   39.2276  -10.2286 H   0  0  0  0  0  0
   23.3496   40.9706   -9.1914 H   0  0  0  0  0  0
   23.0032   41.6184   -6.8242 H   0  0  0  0  0  0
  1  2  1  0  0  0
  1 42  1  0  0  0
  1 43  1  0  0  0
  1 44  1  0  0  0
  2  3  1  0  0  0
  2  4  1  0  0  0
  2 45  1  0  0  0
  3 46  1  0  0  0
  3 47  1  0  0  0
  3 48  1  0  0  0
  4 36  1  0  0  0
  4  5  2  0  0  0
  5  6  1  0  0  0
  5 49  1  0  0  0
  6  7  1  0  0  0
  6 34  2  0  0  0
  7  8  1  0  0  0
  7 50  1  0  0  0
  7 51  1  0  0  0
  8  9  1  0  0  0
  8 52  1  0  0  0
  9 10  1  0  0  0
  9 53  1  0  0  0
  9 54  1  0  0  0
 10 37  1  0  0  0
 10 11  1  0  0  0
 10 12  1  0  0  0
 11 55  1  0  0  0
 12 38  1  0  0  0
 12 33  1  0  0  0
 12 13  1  0  0  0
 13 14  1  0  0  0
 13 56  1  0  0  0
 13 57  1  0  0  0
 14 39  1  0  0  0
 14 15  1  0  0  0
 14 16  1  0  0  0
 15 58  1  0  0  0
 15 59  1  0  0  0
 15 60  1  0  0  0
 16 17  1  0  0  0
 16 61  1  0  0  0
 16 62  1  0  0  0
 17 18  1  0  0  0
 17 63  1  0  0  0
 17 64  1  0  0  0
 18 19  1  0  0  0
 18 65  1  0  0  0
 18 66  1  0  0  0
 19 20  1  0  0  0
 19 67  1  0  0  0
 19 68  1  0  0  0
 20 21  1  0  0  0
 20 69  1  0  0  0
 20 70  1  0  0  0
 21 40  1  0  0  0
 21 22  1  0  0  0
 21 23  1  0  0  0
 22 71  1  0  0  0
 22 72  1  0  0  0
 22 73  1  0  0  0
 23 24  1  0  0  0
 23 74  1  0  0  0
 23 75  1  0  0  0
 24 25  1  0  0  0
 24 76  1  0  0  0
 24 77  1  0  0  0
 25 26  2  0  0  0
 25 27  1  0  0  0
 27 28  1  0  0  0
 27 29  1  0  0  0
 28 78  1  0  0  0
 28 79  1  0  0  0
 28 80  1  0  0  0
 29 41  1  0  0  0
 29 30  1  0  0  0
 29 31  1  0  0  0
 30 81  1  0  0  0
 30 82  1  0  0  0
 30 83  1  0  0  0
 31 32  2  0  0  0
 31 33  1  0  0  0
 33 84  1  0  0  0
 34 35  1  0  0  0
 34 85  1  0  0  0
 35 36  2  0  0  0
 35 86  1  0  0  0
 36 87  1  0  0  0
M  END
> <s_m_source_file>
BACE_33.smi

> <i_m_source_file_index>
1

> <i_lp_mmshare_version>
42013

> <i_f3d_flags>
0

> <s_epik_input>
W0NIM11bQ0hdKFtDSDNdKWMxW2NIXWMoW2NIXVtjSF1bY0hdMSlbQ0gyXVtOSF1bQ0gyXVtDQEBIXShbT0hdKVtDQEBIXTJbQ0gyXVtDQEhdKFtDSDNdKVtDSDJdW0NIMl1bQ0gyXVtDSDJdW0NIMl1bQ0BIXShbQ0gzXSlbQ0gyXVtDSDJdQyg9TylOKFtDSDNdKVtDQEBIXShbQ0gzXSlDKD1PKVtOSF0y

> <s_epik_cmdline>
J2VwaWtfcHl0aG9uJywgJy1waCcsICc3LjAnLCAnLXRuJywgJzgnLCAnLW1hJywgJzIwMCcsICctaW1hZScsICc8aW5maWxlLm1hZT4nLCAnLW9tYWUnLCAnPG91dGZpbGUubWFlPic=

> <r_epik_Ionization_Penalty>
  2.0739

> <r_epik_Ionization_Penalty_Charging>
  0.0000

> <r_epik_Ionization_Penalty_Neutral>
  2.0739

> <r_epik_State_Penalty>
  2.2081

> <r_epik_Charging_Adjusted_Penalty>
2.20813

> <i_epik_Tot_Q>
0

> <i_epik_Tot_abs_Q>
0

> <s_lp_Force_Field>
OPLS_2005

> <r_lp_Energy>
41.848

> <b_lp_Chiralities_Consistent>
1

> <s_lp_Variant>
BACE_33.smi:1-2

> <chiral flag>
1

> <version>
0

> <s_i_glide_gridfile>
second_dock_grid_2

> <i_i_glide_lignum>
58

> <i_i_glide_rotatable_bonds>
7

> <r_i_docking_score>
-1.80579

> <r_i_glide_ligand_efficiency>
-0.0501609

> <r_i_glide_ligand_efficiency_sa>
-0.165628

> <r_i_glide_ligand_efficiency_ln>
-0.393975

> <r_glide_XP_GScore>
-4.01389

> <r_i_glide_gscore>
-4.01389

> <r_i_glide_evdw>
-36.3588

> <r_i_glide_ecoul>
-6.53782

> <r_i_glide_energy>
-42.8966

> <r_i_glide_einternal>
3.41217

> <r_i_glide_emodel>
-60.6701

> <r_glide_XP_HBond>
-0.7

> <i_i_glide_confnum>
1

> <i_i_glide_posenum>
1

> <r_i_glide_eff_state_penalty>
2.2081

> <i_glide_XP_PoseRank>
1

$$$$
BACE_34.smi:1
                    3D
 Structure written by MMmdl.
 80 81  0  0  1  0            999 V2000
   22.5676   42.9807   -2.5933 C   0  0  0  0  0  0
   21.4467   42.0371   -3.0420 C   0  0  0  0  0  0
   20.0699   42.6456   -2.7256 C   0  0  0  0  0  0
   21.5577   41.6153   -4.5068 C   0  0  0  0  0  0
   22.3730   42.3009   -5.4379 C   0  0  0  0  0  0
   22.4434   41.8699   -6.7758 C   0  0  0  0  0  0
   21.6863   40.7651   -7.2045 C   0  0  0  0  0  0
   20.8539   40.0853   -6.2923 C   0  0  0  0  0  0
   19.9930   38.9268   -6.7579 C   0  0  0  0  0  0
   18.5882   39.3499   -6.9356 N   0  3  0  0  0  0
   17.7050   38.3571   -7.5946 C   0  0  0  0  0  0
   17.9927   38.1820   -9.1122 C   0  0  1  0  0  0
   17.0629   37.2535   -9.6351 O   0  0  0  0  0  0
   17.9642   39.4693   -9.9907 C   0  0  2  0  0  0
   19.3159   40.2396   -9.9155 C   0  0  0  0  0  0
   19.7246   41.0762  -11.1498 C   0  0  2  0  0  0
   20.1285   40.1506  -12.3065 C   0  0  0  0  0  0
   20.9145   42.0146  -10.8498 C   0  0  0  0  0  0
   20.6105   43.2372   -9.9653 C   0  0  0  0  0  0
   19.8711   44.3706  -10.7008 C   0  0  0  0  0  0
   19.8506   45.6901   -9.9053 C   0  0  0  0  0  0
   18.8974   45.6702   -8.7037 C   0  0  0  0  0  0
   17.5655   45.8028   -9.1781 O   0  0  0  0  0  0
   16.5789   45.3154   -8.2793 C   0  0  0  0  0  0
   16.3568   43.8105   -8.5162 C   0  0  0  0  0  0
   16.9734   43.0143   -7.8027 O   0  0  0  0  0  0
   15.4801   43.4077   -9.4775 N   0  0  0  0  0  0
   14.9704   44.3404  -10.4973 C   0  0  0  0  0  0
   15.0845   41.9798   -9.5485 C   0  0  1  0  0  0
   13.7113   41.7644  -10.2296 C   0  0  0  0  0  0
   16.1559   41.1825  -10.3126 C   0  0  0  0  0  0
   16.3326   41.3486  -11.5201 O   0  0  0  0  0  0
   16.8667   40.3318   -9.5631 N   0  0  0  0  0  0
   20.8158   40.5020   -4.9467 C   0  0  0  0  0  0
   18.9586   37.6918   -9.2341 H   0  0  0  0  0  0
   17.7841   39.1637  -11.0215 H   0  0  0  0  0  0
   18.8796   41.6793  -11.4732 H   0  0  0  0  0  0
   14.9873   41.5905   -8.5321 H   0  0  0  0  0  0
   23.5415   42.5503   -2.8240 H   0  0  0  0  0  0
   22.5177   43.1658   -1.5200 H   0  0  0  0  0  0
   22.5002   43.9465   -3.0920 H   0  0  0  0  0  0
   21.5476   41.1263   -2.4505 H   0  0  0  0  0  0
   19.2743   41.9121   -2.8409 H   0  0  0  0  0  0
   19.8529   43.4861   -3.3853 H   0  0  0  0  0  0
   20.0209   43.0076   -1.6976 H   0  0  0  0  0  0
   22.9614   43.1574   -5.1471 H   0  0  0  0  0  0
   23.0754   42.3917   -7.4789 H   0  0  0  0  0  0
   21.7484   40.4510   -8.2363 H   0  0  0  0  0  0
   20.0303   38.1173   -6.0402 H   0  0  0  0  0  0
   20.4080   38.5281   -7.6836 H   0  0  0  0  0  0
   18.5780   40.2057   -7.4708 H   0  0  0  0  0  0
   16.6690   38.6651   -7.4354 H   0  0  0  0  0  0
   17.8055   37.3962   -7.0867 H   0  0  0  0  0  0
   17.2612   37.0846  -10.5460 H   0  0  0  0  0  0
   19.2966   40.8812   -9.0376 H   0  0  0  0  0  0
   20.1266   39.5350   -9.7427 H   0  0  0  0  0  0
   20.2084   40.6997  -13.2450 H   0  0  0  0  0  0
   19.4084   39.3529  -12.4402 H   0  0  0  0  0  0
   21.0923   39.6782  -12.1184 H   0  0  0  0  0  0
   21.7125   41.4339  -10.3853 H   0  0  0  0  0  0
   21.3413   42.3735  -11.7877 H   0  0  0  0  0  0
   21.5654   43.6273   -9.6102 H   0  0  0  0  0  0
   20.0660   42.9447   -9.0697 H   0  0  0  0  0  0
   18.8545   44.0650  -10.9524 H   0  0  0  0  0  0
   20.3754   44.5582  -11.6505 H   0  0  0  0  0  0
   20.8615   45.9163   -9.5628 H   0  0  0  0  0  0
   19.5690   46.5106  -10.5662 H   0  0  0  0  0  0
   19.0446   44.7628   -8.1189 H   0  0  0  0  0  0
   19.1076   46.5085   -8.0388 H   0  0  0  0  0  0
   16.8640   45.4978   -7.2401 H   0  0  0  0  0  0
   15.6494   45.8633   -8.4342 H   0  0  0  0  0  0
   14.7354   43.8414  -11.4372 H   0  0  0  0  0  0
   15.7042   45.1038  -10.7643 H   0  0  0  0  0  0
   14.0702   44.8422  -10.1362 H   0  0  0  0  0  0
   13.3642   40.7482  -10.0419 H   0  0  0  0  0  0
   13.7283   41.8995  -11.3090 H   0  0  0  0  0  0
   12.9517   42.4263   -9.8143 H   0  0  0  0  0  0
   16.5832   40.2712   -8.5967 H   0  0  0  0  0  0
   20.1766   39.9857   -4.2469 H   0  0  0  0  0  0
   18.2050   39.5770   -6.0257 H   0  0  0  0  0  0
  1  2  1  0  0  0
  1 39  1  0  0  0
  1 40  1  0  0  0
  1 41  1  0  0  0
  2  3  1  0  0  0
  2  4  1  0  0  0
  2 42  1  0  0  0
  3 43  1  0  0  0
  3 44  1  0  0  0
  3 45  1  0  0  0
  4 34  1  0  0  0
  4  5  2  0  0  0
  5  6  1  0  0  0
  5 46  1  0  0  0
  6  7  2  0  0  0
  6 47  1  0  0  0
  7  8  1  0  0  0
  7 48  1  0  0  0
  8  9  1  0  0  0
  8 34  2  0  0  0
  9 10  1  0  0  0
  9 49  1  0  0  0
  9 50  1  0  0  0
 10 11  1  0  0  0
 10 51  1  0  0  0
 10 80  1  0  0  0
 11 12  1  0  0  0
 11 52  1  0  0  0
 11 53  1  0  0  0
 12 35  1  0  0  0
 12 13  1  0  0  0
 12 14  1  0  0  0
 13 54  1  0  0  0
 14 36  1  0  0  0
 14 33  1  0  0  0
 14 15  1  0  0  0
 15 16  1  0  0  0
 15 55  1  0  0  0
 15 56  1  0  0  0
 16 37  1  0  0  0
 16 17  1  0  0  0
 16 18  1  0  0  0
 17 57  1  0  0  0
 17 58  1  0  0  0
 17 59  1  0  0  0
 18 19  1  0  0  0
 18 60  1  0  0  0
 18 61  1  0  0  0
 19 20  1  0  0  0
 19 62  1  0  0  0
 19 63  1  0  0  0
 20 21  1  0  0  0
 20 64  1  0  0  0
 20 65  1  0  0  0
 21 22  1  0  0  0
 21 66  1  0  0  0
 21 67  1  0  0  0
 22 23  1  0  0  0
 22 68  1  0  0  0
 22 69  1  0  0  0
 23 24  1  0  0  0
 24 25  1  0  0  0
 24 70  1  0  0  0
 24 71  1  0  0  0
 25 26  2  0  0  0
 25 27  1  0  0  0
 27 28  1  0  0  0
 27 29  1  0  0  0
 28 72  1  0  0  0
 28 73  1  0  0  0
 28 74  1  0  0  0
 29 38  1  0  0  0
 29 30  1  0  0  0
 29 31  1  0  0  0
 30 75  1  0  0  0
 30 76  1  0  0  0
 30 77  1  0  0  0
 31 32  2  0  0  0
 31 33  1  0  0  0
 33 78  1  0  0  0
 34 79  1  0  0  0
M  CHG  1  10   1
M  END
> <s_m_source_file>
BACE_34.smi

> <i_m_source_file_index>
1

> <i_lp_mmshare_version>
42013

> <i_f3d_flags>
0

> <s_epik_input>
W0NIM11bQ0hdKFtDSDNdKWMxW2NIXVtjSF1bY0hdYyhbY0hdMSlbQ0gyXVtOSF1bQ0gyXVtDQEBIXShbT0hdKVtDQEBIXTJbQ0gyXVtDQEhdKFtDSDNdKVtDSDJdW0NIMl1bQ0gyXVtDSDJdW0NIMl1PW0NIMl1DKD1PKU4oW0NIM10pW0NAQEhdKFtDSDNdKUMoPU8pW05IXTI=

> <s_epik_cmdline>
J2VwaWtfcHl0aG9uJywgJy1waCcsICc3LjAnLCAnLXRuJywgJzgnLCAnLW1hJywgJzIwMCcsICctaW1hZScsICc8aW5maWxlLm1hZT4nLCAnLW9tYWUnLCAnPG91dGZpbGUubWFlPic=

> <r_epik_Ionization_Penalty>
  0.0182

> <r_epik_Ionization_Penalty_Charging>
  0.0182

> <r_epik_Ionization_Penalty_Neutral>
  0.0000

> <r_epik_State_Penalty>
  0.0144

> <r_epik_Charging_Adjusted_Penalty>
0.0325934

> <i_epik_Tot_Q>
1

> <i_epik_Tot_abs_Q>
1

> <s_lp_Force_Field>
OPLS_2005

> <r_lp_Energy>
48.6812

> <b_lp_Chiralities_Consistent>
1

> <s_lp_Variant>
BACE_34.smi:1-1

> <chiral flag>
1

> <version>
0

> <s_i_glide_gridfile>
second_dock_grid_2

> <i_i_glide_lignum>
59

> <i_i_glide_rotatable_bonds>
7

> <r_i_docking_score>
-5.1098

> <r_i_glide_ligand_efficiency>
-0.150288

> <r_i_glide_ligand_efficiency_sa>
-0.486876

> <r_i_glide_ligand_efficiency_ln>
-1.1289

> <r_glide_XP_GScore>
-5.1242

> <r_i_glide_gscore>
-5.1242

> <r_i_glide_evdw>
-36.8701

> <r_i_glide_ecoul>
-8.84876

> <r_i_glide_energy>
-45.7189

> <r_i_glide_einternal>
6.25153

> <r_i_glide_emodel>
-60.1085

> <r_glide_XP_HBond>
-1.32705

> <i_i_glide_confnum>
1

> <i_i_glide_posenum>
10

> <r_i_glide_eff_state_penalty>
0.0144

> <i_glide_XP_PoseRank>
1

$$$$
BACE_34.smi:1
                    3D
 Structure written by MMmdl.
 79 80  0  0  1  0            999 V2000
   15.4490   39.9557   -7.0671 C   0  0  0  0  0  0
   15.4188   39.2241   -8.4200 C   0  0  0  0  0  0
   14.0540   39.3502   -9.1044 C   0  0  0  0  0  0
   16.5442   39.6860   -9.3358 C   0  0  0  0  0  0
   16.4906   40.9427   -9.9816 C   0  0  0  0  0  0
   17.5652   41.3789  -10.7802 C   0  0  0  0  0  0
   18.7138   40.5783  -10.9125 C   0  0  0  0  0  0
   18.7788   39.3288  -10.2646 C   0  0  0  0  0  0
   20.0618   38.5272  -10.2954 C   0  0  0  0  0  0
   21.0926   39.0444   -9.3880 N   0  0  0  0  0  0
   20.8657   38.8028   -7.9545 C   0  0  0  0  0  0
   20.0079   39.8884   -7.2605 C   0  0  1  0  0  0
   19.5513   39.3499   -6.0399 O   0  0  0  0  0  0
   20.7513   41.2194   -6.9927 C   0  0  2  0  0  0
   21.7215   41.1896   -5.7756 C   0  0  0  0  0  0
   22.4609   42.5017   -5.4086 C   0  0  2  0  0  0
   21.5883   43.4340   -4.5427 C   0  0  0  0  0  0
   23.0935   43.1991   -6.6352 C   0  0  0  0  0  0
   24.0454   44.3682   -6.3050 C   0  0  0  0  0  0
   23.6428   45.7032   -6.9592 C   0  0  0  0  0  0
   22.3363   46.2970   -6.4033 C   0  0  0  0  0  0
   21.9351   47.6089   -7.0971 C   0  0  0  0  0  0
   20.7845   48.2059   -6.5037 O   0  0  0  0  0  0
   19.5369   47.9469   -7.1483 C   0  0  0  0  0  0
   19.0286   46.5268   -6.8297 C   0  0  0  0  0  0
   18.8601   46.2576   -5.6401 O   0  0  0  0  0  0
   18.8141   45.6220   -7.8220 N   0  0  0  0  0  0
   19.0164   45.9717   -9.2364 C   0  0  0  0  0  0
   18.3942   44.2329   -7.5069 C   0  0  1  0  0  0
   17.0227   43.9154   -8.1299 C   0  0  0  0  0  0
   19.4604   43.1786   -7.8549 C   0  0  0  0  0  0
   20.0029   43.1683   -8.9609 O   0  0  0  0  0  0
   19.7549   42.2884   -6.8931 N   0  0  0  0  0  0
   17.6781   38.8665   -9.5142 C   0  0  0  0  0  0
   19.1162   40.1002   -7.8385 H   0  0  0  0  0  0
   21.3671   41.4096   -7.8732 H   0  0  0  0  0  0
   23.2858   42.1972   -4.7613 H   0  0  0  0  0  0
   18.2251   44.1271   -6.4401 H   0  0  0  0  0  0
   16.4059   39.8081   -6.5663 H   0  0  0  0  0  0
   14.6759   39.5752   -6.3963 H   0  0  0  0  0  0
   15.2877   41.0292   -7.1761 H   0  0  0  0  0  0
   15.5727   38.1632   -8.2092 H   0  0  0  0  0  0
   14.0519   38.7983  -10.0400 H   0  0  0  0  0  0
   13.7923   40.3842   -9.3283 H   0  0  0  0  0  0
   13.2603   38.9500   -8.4755 H   0  0  0  0  0  0
   15.6353   41.5870   -9.8501 H   0  0  0  0  0  0
   17.5259   42.3465  -11.2582 H   0  0  0  0  0  0
   19.5568   40.9398  -11.4822 H   0  0  0  0  0  0
   20.4358   38.5518  -11.3189 H   0  0  0  0  0  0
   19.8475   37.4817  -10.0749 H   0  0  0  0  0  0
   21.2015   40.0415   -9.5461 H   0  0  0  0  0  0
   21.8272   38.7346   -7.4462 H   0  0  0  0  0  0
   20.4005   37.8259   -7.8214 H   0  0  0  0  0  0
   18.9277   39.9586   -5.6590 H   0  0  0  0  0  0
   21.2011   40.8373   -4.8844 H   0  0  0  0  0  0
   22.4760   40.4289   -5.9776 H   0  0  0  0  0  0
   22.1762   44.2472   -4.1210 H   0  0  0  0  0  0
   21.1539   42.8969   -3.6995 H   0  0  0  0  0  0
   20.7682   43.8824   -5.0998 H   0  0  0  0  0  0
   23.6547   42.4582   -7.2055 H   0  0  0  0  0  0
   22.3128   43.5393   -7.3138 H   0  0  0  0  0  0
   25.0446   44.1029   -6.6525 H   0  0  0  0  0  0
   24.1546   44.5031   -5.2299 H   0  0  0  0  0  0
   23.5555   45.5639   -8.0379 H   0  0  0  0  0  0
   24.4480   46.4236   -6.8100 H   0  0  0  0  0  0
   21.5408   45.5672   -6.5231 H   0  0  0  0  0  0
   22.4389   46.4679   -5.3309 H   0  0  0  0  0  0
   22.7540   48.3207   -6.9873 H   0  0  0  0  0  0
   21.8043   47.4633   -8.1694 H   0  0  0  0  0  0
   18.8103   48.6462   -6.7347 H   0  0  0  0  0  0
   19.6070   48.1900   -8.2058 H   0  0  0  0  0  0
   18.7569   45.1624   -9.9162 H   0  0  0  0  0  0
   20.0615   46.2190   -9.4252 H   0  0  0  0  0  0
   18.3972   46.8222   -9.5226 H   0  0  0  0  0  0
   16.6693   42.9372   -7.8008 H   0  0  0  0  0  0
   17.0478   43.9012   -9.2186 H   0  0  0  0  0  0
   16.2737   44.6440   -7.8191 H   0  0  0  0  0  0
   19.1983   42.3044   -6.0470 H   0  0  0  0  0  0
   17.7395   37.9166   -9.0028 H   0  0  0  0  0  0
  1  2  1  0  0  0
  1 39  1  0  0  0
  1 40  1  0  0  0
  1 41  1  0  0  0
  2  3  1  0  0  0
  2  4  1  0  0  0
  2 42  1  0  0  0
  3 43  1  0  0  0
  3 44  1  0  0  0
  3 45  1  0  0  0
  4 34  1  0  0  0
  4  5  2  0  0  0
  5  6  1  0  0  0
  5 46  1  0  0  0
  6  7  2  0  0  0
  6 47  1  0  0  0
  7  8  1  0  0  0
  7 48  1  0  0  0
  8  9  1  0  0  0
  8 34  2  0  0  0
  9 10  1  0  0  0
  9 49  1  0  0  0
  9 50  1  0  0  0
 10 11  1  0  0  0
 10 51  1  0  0  0
 11 12  1  0  0  0
 11 52  1  0  0  0
 11 53  1  0  0  0
 12 35  1  0  0  0
 12 13  1  0  0  0
 12 14  1  0  0  0
 13 54  1  0  0  0
 14 36  1  0  0  0
 14 33  1  0  0  0
 14 15  1  0  0  0
 15 16  1  0  0  0
 15 55  1  0  0  0
 15 56  1  0  0  0
 16 37  1  0  0  0
 16 17  1  0  0  0
 16 18  1  0  0  0
 17 57  1  0  0  0
 17 58  1  0  0  0
 17 59  1  0  0  0
 18 19  1  0  0  0
 18 60  1  0  0  0
 18 61  1  0  0  0
 19 20  1  0  0  0
 19 62  1  0  0  0
 19 63  1  0  0  0
 20 21  1  0  0  0
 20 64  1  0  0  0
 20 65  1  0  0  0
 21 22  1  0  0  0
 21 66  1  0  0  0
 21 67  1  0  0  0
 22 23  1  0  0  0
 22 68  1  0  0  0
 22 69  1  0  0  0
 23 24  1  0  0  0
 24 25  1  0  0  0
 24 70  1  0  0  0
 24 71  1  0  0  0
 25 26  2  0  0  0
 25 27  1  0  0  0
 27 28  1  0  0  0
 27 29  1  0  0  0
 28 72  1  0  0  0
 28 73  1  0  0  0
 28 74  1  0  0  0
 29 38  1  0  0  0
 29 30  1  0  0  0
 29 31  1  0  0  0
 30 75  1  0  0  0
 30 76  1  0  0  0
 30 77  1  0  0  0
 31 32  2  0  0  0
 31 33  1  0  0  0
 33 78  1  0  0  0
 34 79  1  0  0  0
M  END
> <s_m_source_file>
BACE_34.smi

> <i_m_source_file_index>
1

> <i_lp_mmshare_version>
42013

> <i_f3d_flags>
0

> <s_epik_input>
W0NIM11bQ0hdKFtDSDNdKWMxW2NIXVtjSF1bY0hdYyhbY0hdMSlbQ0gyXVtOSF1bQ0gyXVtDQEBIXShbT0hdKVtDQEBIXTJbQ0gyXVtDQEhdKFtDSDNdKVtDSDJdW0NIMl1bQ0gyXVtDSDJdW0NIMl1PW0NIMl1DKD1PKU4oW0NIM10pW0NAQEhdKFtDSDNdKUMoPU8pW05IXTI=

> <s_epik_cmdline>
J2VwaWtfcHl0aG9uJywgJy1waCcsICc3LjAnLCAnLXRuJywgJzgnLCAnLW1hJywgJzIwMCcsICctaW1hZScsICc8aW5maWxlLm1hZT4nLCAnLW9tYWUnLCAnPG91dGZpbGUubWFlPic=

> <r_epik_Ionization_Penalty>
  2.0739

> <r_epik_Ionization_Penalty_Charging>
  0.0000

> <r_epik_Ionization_Penalty_Neutral>
  2.0739

> <r_epik_State_Penalty>
  2.2081

> <r_epik_Charging_Adjusted_Penalty>
2.20813

> <i_epik_Tot_Q>
0

> <i_epik_Tot_abs_Q>
0

> <s_lp_Force_Field>
OPLS_2005

> <r_lp_Energy>
57.2031

> <b_lp_Chiralities_Consistent>
1

> <s_lp_Variant>
BACE_34.smi:1-2

> <chiral flag>
1

> <version>
0

> <s_i_glide_gridfile>
second_dock_grid_2

> <i_i_glide_lignum>
60

> <i_i_glide_rotatable_bonds>
7

> <r_i_docking_score>
-2.27729

> <r_i_glide_ligand_efficiency>
-0.0669791

> <r_i_glide_ligand_efficiency_sa>
-0.216986

> <r_i_glide_ligand_efficiency_ln>
-0.503117

> <r_glide_XP_GScore>
-4.48539

> <r_i_glide_gscore>
-4.48539

> <r_i_glide_evdw>
-34.7409

> <r_i_glide_ecoul>
-9.78382

> <r_i_glide_energy>
-44.5247

> <r_i_glide_einternal>
6.20881

> <r_i_glide_emodel>
-57.385

> <r_glide_XP_HBond>
-1.8173

> <i_i_glide_confnum>
1

> <i_i_glide_posenum>
6

> <r_i_glide_eff_state_penalty>
2.2081

> <i_glide_XP_PoseRank>
1

$$$$
BACE_35.smi:1
                    3D
 Structure written by MMmdl.
 73 74  0  0  1  0            999 V2000
   18.8739   45.9976   -9.3494 C   0  0  0  0  0  0
   17.4386   46.1851   -9.8326 C   0  0  2  0  0  0
   16.7278   47.2912   -9.0236 C   0  0  0  0  0  0
   17.5857   48.5573   -8.8266 C   0  0  0  0  0  0
   18.6447   48.3914   -7.7204 C   0  0  0  0  0  0
   19.5985   49.5940   -7.5862 C   0  0  0  0  0  0
   20.5361   49.5186   -6.3587 C   0  0  0  0  0  0
   21.3353   48.2060   -6.2075 C   0  0  0  0  0  0
   22.3421   47.9352   -7.3461 O   0  0  0  0  0  0
   22.9319   46.5040   -7.3202 C   0  0  0  0  0  0
   21.9557   45.4306   -7.8146 C   0  0  0  0  0  0
   21.6887   45.3670   -9.0033 O   0  0  0  0  0  0
   21.4392   44.6085   -6.8882 N   0  0  0  0  0  0
   21.8309   44.8167   -5.5088 C   0  0  0  0  0  0
   20.4283   43.5791   -7.2194 C   0  0  1  0  0  0
   20.4615   42.4963   -6.1446 C   0  0  0  0  0  0
   18.9910   44.1513   -7.2527 C   0  0  0  0  0  0
   18.6153   44.9818   -6.4419 O   0  0  0  0  0  0
   18.1852   43.6438   -8.1958 N   0  0  0  0  0  0
   16.8033   44.0439   -8.4776 C   0  0  1  0  0  0
   16.7089   44.8231   -9.8082 C   0  0  0  0  0  0
   15.9593   42.7776   -8.5909 C   0  0  2  0  0  0
   14.6026   43.0596   -8.2968 O   0  0  0  0  0  0
   16.4284   41.6436   -7.6538 C   0  0  0  0  0  0
   15.2825   40.9064   -7.0799 N   0  3  0  0  0  0
   15.5908   39.5195   -6.6763 C   0  0  0  0  0  0
   16.6145   38.8992   -7.6091 C   0  0  0  0  0  0
   16.2183   38.0153   -8.6373 C   0  0  0  0  0  0
   17.0862   37.4357   -9.4960 N   0  0  0  0  0  0
   18.3993   37.7215   -9.3573 C   0  0  0  0  0  0
   18.8999   38.5891   -8.3655 C   0  0  0  0  0  0
   20.7657   38.9416   -8.2339 Br  0  0  0  0  0  0
   17.9891   39.1896   -7.4739 C   0  0  0  0  0  0
   17.5295   46.5201  -10.8658 H   0  0  0  0  0  0
   20.6676   43.0761   -8.1563 H   0  0  0  0  0  0
   16.3584   44.6172   -7.6643 H   0  0  0  0  0  0
   16.0082   42.4051   -9.6150 H   0  0  0  0  0  0
   19.4312   46.9338   -9.3733 H   0  0  0  0  0  0
   19.4230   45.2931   -9.9732 H   0  0  0  0  0  0
   18.9064   45.6244   -8.3251 H   0  0  0  0  0  0
   15.8053   47.5588   -9.5389 H   0  0  0  0  0  0
   16.4185   46.9167   -8.0478 H   0  0  0  0  0  0
   16.9349   49.3909   -8.5628 H   0  0  0  0  0  0
   18.0579   48.8353   -9.7689 H   0  0  0  0  0  0
   18.1426   48.2152   -6.7692 H   0  0  0  0  0  0
   19.2333   47.4955   -7.9180 H   0  0  0  0  0  0
   19.0155   50.5125   -7.5179 H   0  0  0  0  0  0
   20.1873   49.6919   -8.4982 H   0  0  0  0  0  0
   21.2246   50.3634   -6.3800 H   0  0  0  0  0  0
   19.9368   49.6576   -5.4589 H   0  0  0  0  0  0
   20.6376   47.3742   -6.1107 H   0  0  0  0  0  0
   21.8760   48.2287   -5.2613 H   0  0  0  0  0  0
   23.3036   46.2604   -6.3249 H   0  0  0  0  0  0
   23.8063   46.4558   -7.9692 H   0  0  0  0  0  0
   21.5078   44.0199   -4.8416 H   0  0  0  0  0  0
   21.4209   45.7495   -5.1196 H   0  0  0  0  0  0
   22.9167   44.8402   -5.4074 H   0  0  0  0  0  0
   19.7510   41.6984   -6.3648 H   0  0  0  0  0  0
   20.2171   42.8902   -5.1576 H   0  0  0  0  0  0
   21.4481   42.0364   -6.0784 H   0  0  0  0  0  0
   18.5833   42.9399   -8.8009 H   0  0  0  0  0  0
   17.1019   44.1943  -10.6072 H   0  0  0  0  0  0
   15.6590   44.9740  -10.0593 H   0  0  0  0  0  0
   14.5030   43.1077   -7.3583 H   0  0  0  0  0  0
   17.0371   40.9309   -8.2118 H   0  0  0  0  0  0
   17.0515   42.0336   -6.8478 H   0  0  0  0  0  0
   14.9537   41.4093   -6.2681 H   0  0  0  0  0  0
   15.9732   39.5070   -5.6546 H   0  0  0  0  0  0
   14.6792   38.9202   -6.6842 H   0  0  0  0  0  0
   15.1771   37.7635   -8.7773 H   0  0  0  0  0  0
   19.0696   37.2444  -10.0570 H   0  0  0  0  0  0
   18.3419   39.8588   -6.7027 H   0  0  0  0  0  0
   14.5419   40.8824   -7.7663 H   0  0  0  0  0  0
  1  2  1  0  0  0
  1 38  1  0  0  0
  1 39  1  0  0  0
  1 40  1  0  0  0
  2 34  1  0  0  0
  2 21  1  0  0  0
  2  3  1  0  0  0
  3  4  1  0  0  0
  3 41  1  0  0  0
  3 42  1  0  0  0
  4  5  1  0  0  0
  4 43  1  0  0  0
  4 44  1  0  0  0
  5  6  1  0  0  0
  5 45  1  0  0  0
  5 46  1  0  0  0
  6  7  1  0  0  0
  6 47  1  0  0  0
  6 48  1  0  0  0
  7  8  1  0  0  0
  7 49  1  0  0  0
  7 50  1  0  0  0
  8  9  1  0  0  0
  8 51  1  0  0  0
  8 52  1  0  0  0
  9 10  1  0  0  0
 10 11  1  0  0  0
 10 53  1  0  0  0
 10 54  1  0  0  0
 11 12  2  0  0  0
 11 13  1  0  0  0
 13 14  1  0  0  0
 13 15  1  0  0  0
 14 55  1  0  0  0
 14 56  1  0  0  0
 14 57  1  0  0  0
 15 35  1  0  0  0
 15 16  1  0  0  0
 15 17  1  0  0  0
 16 58  1  0  0  0
 16 59  1  0  0  0
 16 60  1  0  0  0
 17 18  2  0  0  0
 17 19  1  0  0  0
 19 20  1  0  0  0
 19 61  1  0  0  0
 20 36  1  0  0  0
 20 21  1  0  0  0
 20 22  1  0  0  0
 21 62  1  0  0  0
 21 63  1  0  0  0
 22 37  1  0  0  0
 22 23  1  0  0  0
 22 24  1  0  0  0
 23 64  1  0  0  0
 24 25  1  0  0  0
 24 65  1  0  0  0
 24 66  1  0  0  0
 25 26  1  0  0  0
 25 67  1  0  0  0
 25 73  1  0  0  0
 26 27  1  0  0  0
 26 68  1  0  0  0
 26 69  1  0  0  0
 27 33  1  0  0  0
 27 28  2  0  0  0
 28 29  1  0  0  0
 28 70  1  0  0  0
 29 30  2  0  0  0
 30 31  1  0  0  0
 30 71  1  0  0  0
 31 32  1  0  0  0
 31 33  2  0  0  0
 33 72  1  0  0  0
M  CHG  1  25   1
M  END
> <s_m_source_file>
BACE_35.smi

> <i_m_source_file_index>
1

> <i_lp_mmshare_version>
42013

> <i_f3d_flags>
0

> <s_epik_input>
W0NIM11bQ0BASF0xW0NIMl1bQ0gyXVtDSDJdW0NIMl1bQ0gyXVtDSDJdT1tDSDJdQyg9TylOKFtDSDNdKVtDQEBIXShbQ0gzXSlDKD1PKVtOSF1bQ0BASF0oW0NIMl0xKVtDQEhdKFtPSF0pW0NIMl1bTkhdW0NIMl1jMltjSF1uW2NIXWMoQnIpW2NIXTI=

> <s_epik_cmdline>
J2VwaWtfcHl0aG9uJywgJy1waCcsICc3LjAnLCAnLXRuJywgJzgnLCAnLW1hJywgJzIwMCcsICctaW1hZScsICc8aW5maWxlLm1hZT4nLCAnLW9tYWUnLCAnPG91dGZpbGUubWFlPic=

> <r_epik_Ionization_Penalty>
  0.0492

> <r_epik_Ionization_Penalty_Charging>
  0.0492

> <r_epik_Ionization_Penalty_Neutral>
  0.0000

> <r_epik_State_Penalty>
  0.0420

> <r_epik_Charging_Adjusted_Penalty>
0.0911378

> <i_epik_Tot_Q>
1

> <i_epik_Tot_abs_Q>
1

> <s_lp_Force_Field>
OPLS_2005

> <r_lp_Energy>
39.7374

> <b_lp_Chiralities_Consistent>
1

> <s_lp_Variant>
BACE_35.smi:1-1

> <chiral flag>
1

> <version>
0

> <s_i_glide_gridfile>
second_dock_grid_2

> <i_i_glide_lignum>
61

> <i_i_glide_rotatable_bonds>
6

> <r_i_docking_score>
-4.34714

> <r_i_glide_ligand_efficiency>
-0.131732

> <r_i_glide_ligand_efficiency_sa>
-0.422534

> <r_i_glide_ligand_efficiency_ln>
-0.966782

> <r_glide_XP_GScore>
-4.38914

> <r_i_glide_gscore>
-4.38914

> <r_i_glide_evdw>
-32.4762

> <r_i_glide_ecoul>
-14.807

> <r_i_glide_energy>
-47.2833

> <r_i_glide_einternal>
1.54035

> <r_i_glide_emodel>
-65.4013

> <r_glide_XP_HBond>
-1.33

> <i_i_glide_confnum>
1

> <i_i_glide_posenum>
2

> <r_i_glide_eff_state_penalty>
0.042

> <i_glide_XP_PoseRank>
1

$$$$
BACE_35.smi:1
                    3D
 Structure written by MMmdl.
 72 73  0  0  1  0            999 V2000
   19.1105   37.8933   -8.5614 C   0  0  0  0  0  0
   19.4171   39.2362   -9.2513 C   0  0  2  0  0  0
   18.5449   39.4021  -10.5206 C   0  0  0  0  0  0
   17.0298   39.5585  -10.2724 C   0  0  0  0  0  0
   16.6574   40.8216   -9.4824 C   0  0  0  0  0  0
   15.1533   41.1400   -9.5460 C   0  0  0  0  0  0
   14.7298   42.3607   -8.7067 C   0  0  0  0  0  0
   15.4460   43.6606   -9.0926 C   0  0  0  0  0  0
   15.1186   44.0088  -10.4357 O   0  0  0  0  0  0
   16.0135   44.9220  -11.0655 C   0  0  0  0  0  0
   17.3104   44.1977  -11.4842 C   0  0  0  0  0  0
   17.2141   43.3735  -12.3992 O   0  0  0  0  0  0
   18.4780   44.4702  -10.8485 N   0  0  0  0  0  0
   18.5521   45.5084   -9.8084 C   0  0  0  0  0  0
   19.7103   43.6913  -11.1429 C   0  0  1  0  0  0
   20.8943   44.6427  -11.4020 C   0  0  0  0  0  0
   20.0835   42.7215  -10.0059 C   0  0  0  0  0  0
   19.6569   42.8827   -8.8630 O   0  0  0  0  0  0
   20.9186   41.7254  -10.3377 N   0  0  0  0  0  0
   21.5404   40.7807   -9.4087 C   0  0  1  0  0  0
   20.9312   39.3594   -9.5597 C   0  0  0  0  0  0
   23.0822   40.7594   -9.6014 C   0  0  2  0  0  0
   23.6467   40.1510   -8.4511 O   0  0  0  0  0  0
   23.7678   42.1425   -9.7715 C   0  0  0  0  0  0
   24.7884   42.1488  -10.8313 N   0  0  0  0  0  0
   25.9763   41.3510  -10.5201 C   0  0  0  0  0  0
   27.2415   42.1804  -10.4757 C   0  0  0  0  0  0
   27.3413   43.3156   -9.6429 C   0  0  0  0  0  0
   28.4607   44.0615   -9.5326 N   0  0  0  0  0  0
   29.5338   43.6987  -10.2656 C   0  0  0  0  0  0
   29.5389   42.5893  -11.1346 C   0  0  0  0  0  0
   31.0929   42.1501  -12.1333 Br  0  0  0  0  0  0
   28.3683   41.8134  -11.2409 C   0  0  0  0  0  0
   19.1644   40.0215   -8.5380 H   0  0  0  0  0  0
   19.5817   43.0928  -12.0455 H   0  0  0  0  0  0
   21.3521   41.1178   -8.3871 H   0  0  0  0  0  0
   23.3039   40.1412  -10.4727 H   0  0  0  0  0  0
   18.0688   37.8325   -8.2452 H   0  0  0  0  0  0
   19.7122   37.7578   -7.6634 H   0  0  0  0  0  0
   19.3089   37.0521   -9.2270 H   0  0  0  0  0  0
   18.8781   40.2602  -11.1015 H   0  0  0  0  0  0
   18.7035   38.5424  -11.1730 H   0  0  0  0  0  0
   16.6266   38.6779   -9.7757 H   0  0  0  0  0  0
   16.5383   39.6025  -11.2398 H   0  0  0  0  0  0
   16.9643   40.7094   -8.4421 H   0  0  0  0  0  0
   17.2261   41.6556   -9.8859 H   0  0  0  0  0  0
   14.5908   40.2709   -9.2034 H   0  0  0  0  0  0
   14.8609   41.3013  -10.5820 H   0  0  0  0  0  0
   13.6561   42.5076   -8.8179 H   0  0  0  0  0  0
   14.9041   42.1494   -7.6491 H   0  0  0  0  0  0
   16.5140   43.5273   -8.9445 H   0  0  0  0  0  0
   15.1481   44.4687   -8.4253 H   0  0  0  0  0  0
   16.1651   45.8013  -10.4450 H   0  0  0  0  0  0
   15.5374   45.2841  -11.9758 H   0  0  0  0  0  0
   19.5427   45.6071   -9.3709 H   0  0  0  0  0  0
   17.8838   45.2876   -8.9766 H   0  0  0  0  0  0
   18.2800   46.4836  -10.2182 H   0  0  0  0  0  0
   21.7143   44.1169  -11.8923 H   0  0  0  0  0  0
   21.2989   45.0633  -10.4823 H   0  0  0  0  0  0
   20.6064   45.4733  -12.0407 H   0  0  0  0  0  0
   21.2130   41.6622  -11.3026 H   0  0  0  0  0  0
   21.1429   38.9579  -10.5524 H   0  0  0  0  0  0
   21.4720   38.7066   -8.8733 H   0  0  0  0  0  0
   24.1640   39.4119   -8.7546 H   0  0  0  0  0  0
   23.0316   42.9041  -10.0208 H   0  0  0  0  0  0
   24.1979   42.4781   -8.8268 H   0  0  0  0  0  0
   24.3810   41.7863  -11.6921 H   0  0  0  0  0  0
   25.8777   40.8504   -9.5601 H   0  0  0  0  0  0
   26.0889   40.5480  -11.2480 H   0  0  0  0  0  0
   26.5029   43.6279   -9.0352 H   0  0  0  0  0  0
   30.4169   44.3156  -10.1605 H   0  0  0  0  0  0
   28.3430   40.9515  -11.8897 H   0  0  0  0  0  0
  1  2  1  0  0  0
  1 38  1  0  0  0
  1 39  1  0  0  0
  1 40  1  0  0  0
  2 34  1  0  0  0
  2 21  1  0  0  0
  2  3  1  0  0  0
  3  4  1  0  0  0
  3 41  1  0  0  0
  3 42  1  0  0  0
  4  5  1  0  0  0
  4 43  1  0  0  0
  4 44  1  0  0  0
  5  6  1  0  0  0
  5 45  1  0  0  0
  5 46  1  0  0  0
  6  7  1  0  0  0
  6 47  1  0  0  0
  6 48  1  0  0  0
  7  8  1  0  0  0
  7 49  1  0  0  0
  7 50  1  0  0  0
  8  9  1  0  0  0
  8 51  1  0  0  0
  8 52  1  0  0  0
  9 10  1  0  0  0
 10 11  1  0  0  0
 10 53  1  0  0  0
 10 54  1  0  0  0
 11 12  2  0  0  0
 11 13  1  0  0  0
 13 14  1  0  0  0
 13 15  1  0  0  0
 14 55  1  0  0  0
 14 56  1  0  0  0
 14 57  1  0  0  0
 15 35  1  0  0  0
 15 16  1  0  0  0
 15 17  1  0  0  0
 16 58  1  0  0  0
 16 59  1  0  0  0
 16 60  1  0  0  0
 17 18  2  0  0  0
 17 19  1  0  0  0
 19 20  1  0  0  0
 19 61  1  0  0  0
 20 36  1  0  0  0
 20 21  1  0  0  0
 20 22  1  0  0  0
 21 62  1  0  0  0
 21 63  1  0  0  0
 22 37  1  0  0  0
 22 23  1  0  0  0
 22 24  1  0  0  0
 23 64  1  0  0  0
 24 25  1  0  0  0
 24 65  1  0  0  0
 24 66  1  0  0  0
 25 26  1  0  0  0
 25 67  1  0  0  0
 26 27  1  0  0  0
 26 68  1  0  0  0
 26 69  1  0  0  0
 27 33  1  0  0  0
 27 28  2  0  0  0
 28 29  1  0  0  0
 28 70  1  0  0  0
 29 30  2  0  0  0
 30 31  1  0  0  0
 30 71  1  0  0  0
 31 32  1  0  0  0
 31 33  2  0  0  0
 33 72  1  0  0  0
M  END
> <s_m_source_file>
BACE_35.smi

> <i_m_source_file_index>
1

> <i_lp_mmshare_version>
42013

> <i_f3d_flags>
0

> <s_epik_input>
W0NIM11bQ0BASF0xW0NIMl1bQ0gyXVtDSDJdW0NIMl1bQ0gyXVtDSDJdT1tDSDJdQyg9TylOKFtDSDNdKVtDQEBIXShbQ0gzXSlDKD1PKVtOSF1bQ0BASF0oW0NIMl0xKVtDQEhdKFtPSF0pW0NIMl1bTkhdW0NIMl1jMltjSF1uW2NIXWMoQnIpW2NIXTI=

> <s_epik_cmdline>
J2VwaWtfcHl0aG9uJywgJy1waCcsICc3LjAnLCAnLXRuJywgJzgnLCAnLW1hJywgJzIwMCcsICctaW1hZScsICc8aW5maWxlLm1hZT4nLCAnLW9tYWUnLCAnPG91dGZpbGUubWFlPic=

> <r_epik_Ionization_Penalty>
  1.4994

> <r_epik_Ionization_Penalty_Charging>
  0.0000

> <r_epik_Ionization_Penalty_Neutral>
  1.4994

> <r_epik_State_Penalty>
  1.5893

> <r_epik_Charging_Adjusted_Penalty>
1.58931

> <i_epik_Tot_Q>
0

> <i_epik_Tot_abs_Q>
0

> <s_lp_Force_Field>
OPLS_2005

> <r_lp_Energy>
42.9726

> <b_lp_Chiralities_Consistent>
1

> <s_lp_Variant>
BACE_35.smi:1-2

> <chiral flag>
1

> <version>
0

> <s_i_glide_gridfile>
second_dock_grid_2

> <i_i_glide_lignum>
62

> <i_i_glide_rotatable_bonds>
6

> <r_i_docking_score>
-3.1698

> <r_i_glide_ligand_efficiency>
-0.0960546

> <r_i_glide_ligand_efficiency_sa>
-0.308099

> <r_i_glide_ligand_efficiency_ln>
-0.704948

> <r_glide_XP_GScore>
-4.7591

> <r_i_glide_gscore>
-4.7591

> <r_i_glide_evdw>
-34.0897

> <r_i_glide_ecoul>
-11.568

> <r_i_glide_energy>
-45.6577

> <r_i_glide_einternal>
5.56428

> <r_i_glide_emodel>
-61.6105

> <r_glide_XP_HBond>
-1.89

> <i_i_glide_confnum>
1

> <i_i_glide_posenum>
6

> <r_i_glide_eff_state_penalty>
1.5893

> <i_glide_XP_PoseRank>
1

$$$$
BACE_36.smi:1
                    3D
 Structure written by MMmdl.
 91 93  0  0  1  0            999 V2000
   29.3816   41.2888  -12.9899 C   0  0  0  0  0  0
   29.4865   41.6451  -11.5003 C   0  0  0  0  0  0
   30.2459   42.9705  -11.3001 C   0  0  0  0  0  0
   28.1486   41.7524  -11.0118 O   0  0  0  0  0  0
   27.2868   42.7300  -11.4802 C   0  0  0  0  0  0
   27.6454   43.7256  -12.4246 C   0  0  0  0  0  0
   26.7101   44.6866  -12.8522 C   0  0  0  0  0  0
   25.3906   44.6888  -12.3559 C   0  0  0  0  0  0
   25.0317   43.6988  -11.4140 C   0  0  0  0  0  0
   25.9620   42.7307  -10.9751 C   0  0  0  0  0  0
   25.5116   41.6930   -9.9552 C   0  0  0  0  0  0
   24.3285   40.9527  -10.4404 N   0  3  0  0  0  0
   23.0526   41.3642   -9.8166 C   0  0  0  0  0  0
   21.9021   40.4075  -10.1981 C   0  0  1  0  0  0
   22.0619   39.2093   -9.4596 O   0  0  0  0  0  0
   20.4876   41.0136   -9.9523 C   0  0  2  0  0  0
   19.3093   40.0155  -10.1519 C   0  0  0  0  0  0
   17.9206   40.5823   -9.7883 C   0  0  2  0  0  0
   17.9701   41.1891   -8.3890 C   0  0  0  0  0  0
   16.7897   39.5371   -9.8473 C   0  0  0  0  0  0
   15.3990   40.1430   -9.5697 C   0  0  0  0  0  0
   14.8191   40.9268  -10.7667 C   0  0  0  0  0  0
   13.5682   41.7681  -10.4344 C   0  0  0  0  0  0
   13.7926   42.9400   -9.4478 C   0  0  0  0  0  0
   14.9501   43.9015   -9.7972 C   0  0  0  0  0  0
   14.7810   44.6390  -11.1440 O   0  0  0  0  0  0
   15.9850   45.5376  -11.5254 C   0  0  0  0  0  0
   17.2683   44.7705  -11.8714 C   0  0  0  0  0  0
   17.2210   43.8276  -12.6442 O   0  0  0  0  0  0
   18.3998   45.2014  -11.2931 N   0  0  0  0  0  0
   18.3080   46.3314  -10.3908 C   0  0  0  0  0  0
   19.6856   44.4840  -11.4416 C   0  0  1  0  0  0
   20.8283   45.4798  -11.2649 C   0  0  0  0  0  0
   19.8481   43.3956  -10.3567 C   0  0  0  0  0  0
   19.5889   43.6253   -9.1869 O   0  0  0  0  0  0
   20.2841   42.2024  -10.7893 N   0  0  0  0  0  0
   24.4086   45.7439  -12.8448 C   0  0  0  0  0  0
   24.5874   46.2682  -14.2496 C   0  0  0  0  0  0
   24.9366   47.1409  -13.0677 C   0  0  0  0  0  0
   22.0084   40.1640  -11.2562 H   0  0  0  0  0  0
   20.4634   41.3455   -8.9142 H   0  0  0  0  0  0
   17.6896   41.4075  -10.4619 H   0  0  0  0  0  0
   19.8075   44.0657  -12.4408 H   0  0  0  0  0  0
   30.3683   41.1754  -13.4400 H   0  0  0  0  0  0
   28.8462   42.0581  -13.5475 H   0  0  0  0  0  0
   28.8477   40.3482  -13.1286 H   0  0  0  0  0  0
   30.0202   40.8234  -11.0232 H   0  0  0  0  0  0
   31.2560   42.9074  -11.7060 H   0  0  0  0  0  0
   30.3379   43.2362  -10.2476 H   0  0  0  0  0  0
   29.7390   43.7954  -11.8021 H   0  0  0  0  0  0
   28.6349   43.7821  -12.8499 H   0  0  0  0  0  0
   27.0194   45.4287  -13.5739 H   0  0  0  0  0  0
   24.0283   43.6733  -11.0156 H   0  0  0  0  0  0
   26.3230   40.9995   -9.7311 H   0  0  0  0  0  0
   25.2665   42.1891   -9.0149 H   0  0  0  0  0  0
   24.2543   41.0878  -11.4386 H   0  0  0  0  0  0
   23.1762   41.4165   -8.7342 H   0  0  0  0  0  0
   22.8235   42.3735  -10.1612 H   0  0  0  0  0  0
   22.9339   38.8780   -9.6108 H   0  0  0  0  0  0
   19.3030   39.6626  -11.1832 H   0  0  0  0  0  0
   19.5058   39.1330   -9.5431 H   0  0  0  0  0  0
   17.0047   41.6007   -8.0955 H   0  0  0  0  0  0
   18.6883   42.0059   -8.3262 H   0  0  0  0  0  0
   18.2498   40.4471   -7.6401 H   0  0  0  0  0  0
   16.7873   39.0324  -10.8135 H   0  0  0  0  0  0
   16.9923   38.7623   -9.1079 H   0  0  0  0  0  0
   15.4622   40.7783   -8.6863 H   0  0  0  0  0  0
   14.7034   39.3460   -9.3069 H   0  0  0  0  0  0
   15.5760   41.5759  -11.2071 H   0  0  0  0  0  0
   14.5679   40.2180  -11.5558 H   0  0  0  0  0  0
   12.7891   41.1152  -10.0411 H   0  0  0  0  0  0
   13.1612   42.1644  -11.3647 H   0  0  0  0  0  0
   12.8675   43.5102   -9.3625 H   0  0  0  0  0  0
   13.9673   42.5364   -8.4505 H   0  0  0  0  0  0
   15.8905   43.3506   -9.7831 H   0  0  0  0  0  0
   15.0425   44.6404   -9.0012 H   0  0  0  0  0  0
   16.1705   46.2571  -10.7278 H   0  0  0  0  0  0
   15.7320   46.1328  -12.4028 H   0  0  0  0  0  0
   19.2768   46.7262  -10.0908 H   0  0  0  0  0  0
   17.7719   46.0648   -9.4792 H   0  0  0  0  0  0
   17.8003   47.1727  -10.8644 H   0  0  0  0  0  0
   21.7976   44.9972  -11.3972 H   0  0  0  0  0  0
   20.8228   45.9395  -10.2761 H   0  0  0  0  0  0
   20.7684   46.2834  -11.9998 H   0  0  0  0  0  0
   20.4692   42.1149  -11.7783 H   0  0  0  0  0  0
   23.3902   45.6431  -12.4695 H   0  0  0  0  0  0
   23.6887   46.5179  -14.8134 H   0  0  0  0  0  0
   25.4103   45.8632  -14.8386 H   0  0  0  0  0  0
   25.9929   47.3193  -12.8666 H   0  0  0  0  0  0
   24.2713   47.9741  -12.8415 H   0  0  0  0  0  0
   24.4704   39.9695  -10.2578 H   0  0  0  0  0  0
  1  2  1  0  0  0
  1 44  1  0  0  0
  1 45  1  0  0  0
  1 46  1  0  0  0
  2  3  1  0  0  0
  2  4  1  0  0  0
  2 47  1  0  0  0
  3 48  1  0  0  0
  3 49  1  0  0  0
  3 50  1  0  0  0
  4  5  1  0  0  0
  5 10  1  0  0  0
  5  6  2  0  0  0
  6  7  1  0  0  0
  6 51  1  0  0  0
  7  8  2  0  0  0
  7 52  1  0  0  0
  8  9  1  0  0  0
  8 37  1  0  0  0
  9 10  2  0  0  0
  9 53  1  0  0  0
 10 11  1  0  0  0
 11 12  1  0  0  0
 11 54  1  0  0  0
 11 55  1  0  0  0
 12 13  1  0  0  0
 12 56  1  0  0  0
 12 91  1  0  0  0
 13 14  1  0  0  0
 13 57  1  0  0  0
 13 58  1  0  0  0
 14 40  1  0  0  0
 14 15  1  0  0  0
 14 16  1  0  0  0
 15 59  1  0  0  0
 16 41  1  0  0  0
 16 36  1  0  0  0
 16 17  1  0  0  0
 17 18  1  0  0  0
 17 60  1  0  0  0
 17 61  1  0  0  0
 18 42  1  0  0  0
 18 19  1  0  0  0
 18 20  1  0  0  0
 19 62  1  0  0  0
 19 63  1  0  0  0
 19 64  1  0  0  0
 20 21  1  0  0  0
 20 65  1  0  0  0
 20 66  1  0  0  0
 21 22  1  0  0  0
 21 67  1  0  0  0
 21 68  1  0  0  0
 22 23  1  0  0  0
 22 69  1  0  0  0
 22 70  1  0  0  0
 23 24  1  0  0  0
 23 71  1  0  0  0
 23 72  1  0  0  0
 24 25  1  0  0  0
 24 73  1  0  0  0
 24 74  1  0  0  0
 25 26  1  0  0  0
 25 75  1  0  0  0
 25 76  1  0  0  0
 26 27  1  0  0  0
 27 28  1  0  0  0
 27 77  1  0  0  0
 27 78  1  0  0  0
 28 29  2  0  0  0
 28 30  1  0  0  0
 30 31  1  0  0  0
 30 32  1  0  0  0
 31 79  1  0  0  0
 31 80  1  0  0  0
 31 81  1  0  0  0
 32 43  1  0  0  0
 32 33  1  0  0  0
 32 34  1  0  0  0
 33 82  1  0  0  0
 33 83  1  0  0  0
 33 84  1  0  0  0
 34 35  2  0  0  0
 34 36  1  0  0  0
 36 85  1  0  0  0
 37 39  1  0  0  0
 37 38  1  0  0  0
 37 86  1  0  0  0
 38 39  1  0  0  0
 38 87  1  0  0  0
 38 88  1  0  0  0
 39 89  1  0  0  0
 39 90  1  0  0  0
M  CHG  1  12   1
M  END
> <s_m_source_file>
BACE_36.smi

> <i_m_source_file_index>
1

> <i_lp_mmshare_version>
42013

> <i_f3d_flags>
0

> <s_epik_input>
W0NIM11bQ0hdKFtDSDNdKU9jMVtjSF1bY0hdYyhbQ0hdMltDSDJdW0NIMl0yKVtjSF1jMVtDSDJdW05IXVtDSDJdW0NAQEhdKFtPSF0pW0NAQEhdM1tDSDJdW0NASF0oW0NIM10pW0NIMl1bQ0gyXVtDSDJdW0NIMl1bQ0gyXVtDSDJdT1tDSDJdQyg9TylOKFtDSDNdKVtDQEBIXShbQ0gzXSlDKD1PKVtOSF0z

> <s_epik_cmdline>
J2VwaWtfcHl0aG9uJywgJy1waCcsICc3LjAnLCAnLXRuJywgJzgnLCAnLW1hJywgJzIwMCcsICctaW1hZScsICc8aW5maWxlLm1hZT4nLCAnLW9tYWUnLCAnPG91dGZpbGUubWFlPic=

> <r_lp_tautomer_probability>
1

> <r_epik_Ionization_Penalty>
  0.0151

> <r_epik_Ionization_Penalty_Charging>
  0.0151

> <r_epik_Ionization_Penalty_Neutral>
  0.0000

> <r_epik_State_Penalty>
  0.0118

> <r_epik_Charging_Adjusted_Penalty>
0.0269422

> <i_epik_Tot_Q>
1

> <i_epik_Tot_abs_Q>
1

> <s_lp_Force_Field>
OPLS_2005

> <r_lp_Energy>
42.9753

> <b_lp_Chiralities_Consistent>
1

> <s_lp_Variant>
BACE_36.smi:1-1

> <chiral flag>
1

> <version>
0

> <s_i_glide_gridfile>
second_dock_grid_2

> <i_i_glide_lignum>
63

> <i_i_glide_rotatable_bonds>
9

> <r_i_docking_score>
-5.28822

> <r_i_glide_ligand_efficiency>
-0.135595

> <r_i_glide_ligand_efficiency_sa>
-0.459832

> <r_i_glide_ligand_efficiency_ln>
-1.13394

> <r_glide_XP_GScore>
-5.30002

> <r_i_glide_gscore>
-5.30002

> <r_i_glide_evdw>
-35.1375

> <r_i_glide_ecoul>
-12.9374

> <r_i_glide_energy>
-48.0749

> <r_i_glide_einternal>
2.35715

> <r_i_glide_emodel>
-68.638

> <r_glide_XP_HBond>
-1.14559

> <i_i_glide_confnum>
1

> <i_i_glide_posenum>
19

> <r_i_glide_eff_state_penalty>
0.0118

> <i_glide_XP_PoseRank>
1

$$$$
BACE_36.smi:1
                    3D
 Structure written by MMmdl.
 90 92  0  0  1  0            999 V2000
   22.5722   40.0205   -4.2416 C   0  0  0  0  0  0
   21.2542   40.1455   -5.0116 C   0  0  0  0  0  0
   20.9384   41.6132   -5.3198 C   0  0  0  0  0  0
   21.4021   39.3931   -6.2206 O   0  0  0  0  0  0
   20.2886   39.0267   -6.9594 C   0  0  0  0  0  0
   18.9749   39.0074   -6.4394 C   0  0  0  0  0  0
   17.8765   38.6591   -7.2413 C   0  0  0  0  0  0
   18.0509   38.3335   -8.5991 C   0  0  0  0  0  0
   19.3639   38.3016   -9.1165 C   0  0  0  0  0  0
   20.4756   38.6295   -8.3059 C   0  0  0  0  0  0
   21.8748   38.5454   -8.8948 C   0  0  0  0  0  0
   22.0600   39.3486  -10.1026 N   0  0  0  0  0  0
   21.8934   40.7968   -9.9546 C   0  0  0  0  0  0
   22.9107   41.4477   -8.9896 C   0  0  1  0  0  0
   24.1990   41.2879   -9.5548 O   0  0  0  0  0  0
   22.6423   42.9628   -8.7942 C   0  0  2  0  0  0
   23.6707   43.6386   -7.8477 C   0  0  0  0  0  0
   23.4453   45.1467   -7.5698 C   0  0  2  0  0  0
   23.5604   45.9817   -8.8605 C   0  0  0  0  0  0
   24.4252   45.6421   -6.4795 C   0  0  0  0  0  0
   24.1261   47.0471   -5.9219 C   0  0  0  0  0  0
   22.9085   47.0948   -4.9817 C   0  0  0  0  0  0
   22.4091   48.5216   -4.6826 C   0  0  0  0  0  0
   21.7957   49.2765   -5.8803 C   0  0  0  0  0  0
   20.6856   48.5245   -6.6332 C   0  0  0  0  0  0
   19.5918   48.2505   -5.7616 O   0  0  0  0  0  0
   18.5103   47.5623   -6.3898 C   0  0  0  0  0  0
   18.8582   46.0721   -6.6148 C   0  0  0  0  0  0
   19.2803   45.4539   -5.6400 O   0  0  0  0  0  0
   18.6801   45.4850   -7.8295 N   0  0  0  0  0  0
   18.2459   46.2683   -8.9972 C   0  0  0  0  0  0
   19.0162   44.0515   -8.0287 C   0  0  1  0  0  0
   17.8466   43.2804   -8.6752 C   0  0  0  0  0  0
   20.3079   43.8796   -8.8515 C   0  0  0  0  0  0
   20.4118   44.3679   -9.9762 O   0  0  0  0  0  0
   21.2897   43.1741   -8.2699 N   0  0  0  0  0  0
   16.8735   38.0228   -9.4804 C   0  0  0  0  0  0
   16.1611   39.1374  -10.2133 C   0  0  0  0  0  0
   15.4473   38.3920   -9.1150 C   0  0  0  0  0  0
   22.8881   40.9641   -8.0135 H   0  0  0  0  0  0
   22.7313   43.4253   -9.7788 H   0  0  0  0  0  0
   22.4348   45.2676   -7.1857 H   0  0  0  0  0  0
   19.1733   43.5558   -7.0682 H   0  0  0  0  0  0
   22.5259   40.5446   -3.2860 H   0  0  0  0  0  0
   23.3919   40.4456   -4.8196 H   0  0  0  0  0  0
   22.8171   38.9781   -4.0411 H   0  0  0  0  0  0
   20.4772   39.7502   -4.3638 H   0  0  0  0  0  0
   20.7434   42.1720   -4.4041 H   0  0  0  0  0  0
   20.0572   41.7042   -5.9511 H   0  0  0  0  0  0
   21.7728   42.0943   -5.8258 H   0  0  0  0  0  0
   18.7656   39.2739   -5.4165 H   0  0  0  0  0  0
   16.8944   38.6553   -6.7895 H   0  0  0  0  0  0
   19.5220   38.0274  -10.1491 H   0  0  0  0  0  0
   22.6346   38.7881   -8.1533 H   0  0  0  0  0  0
   22.0489   37.4984   -9.1437 H   0  0  0  0  0  0
   22.9869   39.1541  -10.4679 H   0  0  0  0  0  0
   21.9751   41.2704  -10.9338 H   0  0  0  0  0  0
   20.8787   41.0005   -9.6151 H   0  0  0  0  0  0
   24.3935   40.3625   -9.6199 H   0  0  0  0  0  0
   23.6630   43.0991   -6.8997 H   0  0  0  0  0  0
   24.6753   43.5049   -8.2489 H   0  0  0  0  0  0
   23.3460   47.0341   -8.6864 H   0  0  0  0  0  0
   22.8504   45.6574   -9.6194 H   0  0  0  0  0  0
   24.5583   45.9112   -9.2930 H   0  0  0  0  0  0
   24.4385   44.9381   -5.6457 H   0  0  0  0  0  0
   25.4357   45.6311   -6.8881 H   0  0  0  0  0  0
   24.0156   47.7558   -6.7387 H   0  0  0  0  0  0
   24.9980   47.3910   -5.3625 H   0  0  0  0  0  0
   22.0847   46.4969   -5.3669 H   0  0  0  0  0  0
   23.1888   46.6163   -4.0443 H   0  0  0  0  0  0
   23.2266   49.1105   -4.2675 H   0  0  0  0  0  0
   21.6605   48.4749   -3.8956 H   0  0  0  0  0  0
   21.3950   50.2260   -5.5233 H   0  0  0  0  0  0
   22.5825   49.5352   -6.5875 H   0  0  0  0  0  0
   21.0830   47.6111   -7.0767 H   0  0  0  0  0  0
   20.3364   49.1403   -7.4625 H   0  0  0  0  0  0
   18.1978   48.1054   -7.2807 H   0  0  0  0  0  0
   17.6623   47.5975   -5.7064 H   0  0  0  0  0  0
   18.2026   45.6852   -9.9145 H   0  0  0  0  0  0
   18.9404   47.0880   -9.1882 H   0  0  0  0  0  0
   17.2479   46.6788   -8.8356 H   0  0  0  0  0  0
   18.0531   42.2080   -8.6829 H   0  0  0  0  0  0
   17.6554   43.5737   -9.7065 H   0  0  0  0  0  0
   16.9265   43.4219   -8.1078 H   0  0  0  0  0  0
   21.0986   42.7815   -7.3577 H   0  0  0  0  0  0
   17.0241   37.0860  -10.0137 H   0  0  0  0  0  0
   15.7881   38.9597  -11.2167 H   0  0  0  0  0  0
   16.4625   40.1618  -10.0007 H   0  0  0  0  0  0
   15.2449   38.9523   -8.2030 H   0  0  0  0  0  0
   14.6483   37.7227   -9.4248 H   0  0  0  0  0  0
  1  2  1  0  0  0
  1 44  1  0  0  0
  1 45  1  0  0  0
  1 46  1  0  0  0
  2  3  1  0  0  0
  2  4  1  0  0  0
  2 47  1  0  0  0
  3 48  1  0  0  0
  3 49  1  0  0  0
  3 50  1  0  0  0
  4  5  1  0  0  0
  5 10  1  0  0  0
  5  6  2  0  0  0
  6  7  1  0  0  0
  6 51  1  0  0  0
  7  8  2  0  0  0
  7 52  1  0  0  0
  8  9  1  0  0  0
  8 37  1  0  0  0
  9 10  2  0  0  0
  9 53  1  0  0  0
 10 11  1  0  0  0
 11 12  1  0  0  0
 11 54  1  0  0  0
 11 55  1  0  0  0
 12 13  1  0  0  0
 12 56  1  0  0  0
 13 14  1  0  0  0
 13 57  1  0  0  0
 13 58  1  0  0  0
 14 40  1  0  0  0
 14 15  1  0  0  0
 14 16  1  0  0  0
 15 59  1  0  0  0
 16 41  1  0  0  0
 16 36  1  0  0  0
 16 17  1  0  0  0
 17 18  1  0  0  0
 17 60  1  0  0  0
 17 61  1  0  0  0
 18 42  1  0  0  0
 18 19  1  0  0  0
 18 20  1  0  0  0
 19 62  1  0  0  0
 19 63  1  0  0  0
 19 64  1  0  0  0
 20 21  1  0  0  0
 20 65  1  0  0  0
 20 66  1  0  0  0
 21 22  1  0  0  0
 21 67  1  0  0  0
 21 68  1  0  0  0
 22 23  1  0  0  0
 22 69  1  0  0  0
 22 70  1  0  0  0
 23 24  1  0  0  0
 23 71  1  0  0  0
 23 72  1  0  0  0
 24 25  1  0  0  0
 24 73  1  0  0  0
 24 74  1  0  0  0
 25 26  1  0  0  0
 25 75  1  0  0  0
 25 76  1  0  0  0
 26 27  1  0  0  0
 27 28  1  0  0  0
 27 77  1  0  0  0
 27 78  1  0  0  0
 28 29  2  0  0  0
 28 30  1  0  0  0
 30 31  1  0  0  0
 30 32  1  0  0  0
 31 79  1  0  0  0
 31 80  1  0  0  0
 31 81  1  0  0  0
 32 43  1  0  0  0
 32 33  1  0  0  0
 32 34  1  0  0  0
 33 82  1  0  0  0
 33 83  1  0  0  0
 33 84  1  0  0  0
 34 35  2  0  0  0
 34 36  1  0  0  0
 36 85  1  0  0  0
 37 39  1  0  0  0
 37 38  1  0  0  0
 37 86  1  0  0  0
 38 39  1  0  0  0
 38 87  1  0  0  0
 38 88  1  0  0  0
 39 89  1  0  0  0
 39 90  1  0  0  0
M  END
> <s_m_source_file>
BACE_36.smi

> <i_m_source_file_index>
1

> <i_lp_mmshare_version>
42013

> <i_f3d_flags>
0

> <s_epik_input>
W0NIM11bQ0hdKFtDSDNdKU9jMVtjSF1bY0hdYyhbQ0hdMltDSDJdW0NIMl0yKVtjSF1jMVtDSDJdW05IXVtDSDJdW0NAQEhdKFtPSF0pW0NAQEhdM1tDSDJdW0NASF0oW0NIM10pW0NIMl1bQ0gyXVtDSDJdW0NIMl1bQ0gyXVtDSDJdT1tDSDJdQyg9TylOKFtDSDNdKVtDQEBIXShbQ0gzXSlDKD1PKVtOSF0z

> <s_epik_cmdline>
J2VwaWtfcHl0aG9uJywgJy1waCcsICc3LjAnLCAnLXRuJywgJzgnLCAnLW1hJywgJzIwMCcsICctaW1hZScsICc8aW5maWxlLm1hZT4nLCAnLW9tYWUnLCAnPG91dGZpbGUubWFlPic=

> <r_lp_tautomer_probability>
1

> <r_epik_Ionization_Penalty>
  2.1819

> <r_epik_Ionization_Penalty_Charging>
  0.0000

> <r_epik_Ionization_Penalty_Neutral>
  2.1819

> <r_epik_State_Penalty>
  2.3239

> <r_epik_Charging_Adjusted_Penalty>
2.32395

> <i_epik_Tot_Q>
0

> <i_epik_Tot_abs_Q>
0

> <s_lp_Force_Field>
OPLS_2005

> <r_lp_Energy>
49.4433

> <b_lp_Chiralities_Consistent>
1

> <s_lp_Variant>
BACE_36.smi:1-2

> <chiral flag>
1

> <version>
0

> <s_i_glide_gridfile>
second_dock_grid_2

> <i_i_glide_lignum>
64

> <i_i_glide_rotatable_bonds>
9

> <r_i_docking_score>
-1.50689

> <r_i_glide_ligand_efficiency>
-0.0386381

> <r_i_glide_ligand_efficiency_sa>
-0.13103

> <r_i_glide_ligand_efficiency_ln>
-0.323119

> <r_glide_XP_GScore>
-3.83079

> <r_i_glide_gscore>
-3.83079

> <r_i_glide_evdw>
-40.4625

> <r_i_glide_ecoul>
-6.64216

> <r_i_glide_energy>
-47.1047

> <r_i_glide_einternal>
7.07084

> <r_i_glide_emodel>
-61.1525

> <r_glide_XP_HBond>
-1.33

> <i_i_glide_confnum>
1

> <i_i_glide_posenum>
18

> <r_i_glide_eff_state_penalty>
2.3239

> <i_glide_XP_PoseRank>
1

$$$$
BACE_37.smi:1
                    3D
 Structure written by MMmdl.
 82 83  0  0  1  0            999 V2000
   24.9982   43.8939   -6.6377 C   0  0  0  0  0  0
   23.5953   43.2768   -6.7550 C   0  0  2  0  0  0
   23.2052   43.0932   -8.2390 C   0  0  0  0  0  0
   23.8504   41.8718   -8.9221 C   0  0  0  0  0  0
   22.9846   41.3196  -10.0692 C   0  0  0  0  0  0
   21.7930   40.4819   -9.5596 C   0  0  0  0  0  0
   20.7377   40.1474  -10.6312 C   0  0  0  0  0  0
   19.9536   41.3525  -11.1888 C   0  0  0  0  0  0
   19.3386   42.1529  -10.1300 N   0  0  0  0  0  0
   19.6620   43.4217   -9.8311 C   0  0  0  0  0  0
   20.5010   44.0648  -10.4621 O   0  0  0  0  0  0
   18.9401   44.0485   -8.6283 C   0  0  0  0  0  0
   19.7460   45.1822   -7.9384 C   0  0  1  0  0  0
   19.5425   46.5447   -8.6324 C   0  0  0  0  0  0
   19.4333   45.2714   -6.4301 C   0  0  0  0  0  0
   18.5230   46.0007   -6.0412 O   0  0  0  0  0  0
   20.1783   44.5883   -5.5409 N   0  0  0  0  0  0
   21.1364   43.5115   -5.7987 C   0  0  1  0  0  0
   22.5590   44.1245   -5.9728 C   0  0  0  0  0  0
   21.0261   42.4573   -4.6614 C   0  0  2  0  0  0
   22.0934   42.6253   -3.7500 O   0  0  0  0  0  0
   21.1192   40.9965   -5.1585 C   0  0  0  0  0  0
   20.0592   40.6888   -6.1397 N   0  3  0  0  0  0
   19.9873   39.2632   -6.5113 C   0  0  0  0  0  0
   19.0583   39.0646   -7.6912 C   0  0  0  0  0  0
   19.5537   38.5474   -8.9037 C   0  0  0  0  0  0
   18.6840   38.3665   -9.9936 C   0  0  0  0  0  0
   17.3213   38.7020   -9.8776 C   0  0  0  0  0  0
   16.8033   39.2239   -8.6658 C   0  0  0  0  0  0
   17.6928   39.3970   -7.5783 C   0  0  0  0  0  0
   15.3204   39.6090   -8.4999 C   0  0  0  0  0  0
   15.1675   41.1417   -8.5921 C   0  0  0  0  0  0
   14.7283   39.1615   -7.1443 C   0  0  0  0  0  0
   14.4872   38.9466   -9.6170 C   0  0  0  0  0  0
   23.6545   42.2957   -6.2903 H   0  0  0  0  0  0
   20.8093   44.9675   -8.0279 H   0  0  0  0  0  0
   20.8150   43.0110   -6.7087 H   0  0  0  0  0  0
   20.0854   42.5985   -4.1272 H   0  0  0  0  0  0
   25.0302   44.8937   -7.0718 H   0  0  0  0  0  0
   25.7428   43.2853   -7.1512 H   0  0  0  0  0  0
   25.3068   43.9747   -5.5950 H   0  0  0  0  0  0
   22.1308   42.9872   -8.3214 H   0  0  0  0  0  0
   23.4282   43.9975   -8.8068 H   0  0  0  0  0  0
   24.8314   42.1569   -9.3030 H   0  0  0  0  0  0
   24.0290   41.0729   -8.2016 H   0  0  0  0  0  0
   22.6432   42.1507  -10.6861 H   0  0  0  0  0  0
   23.5976   40.6948  -10.7192 H   0  0  0  0  0  0
   22.1808   39.5485   -9.1503 H   0  0  0  0  0  0
   21.3030   40.9745   -8.7208 H   0  0  0  0  0  0
   21.2133   39.6160  -11.4563 H   0  0  0  0  0  0
   20.0244   39.4451  -10.1986 H   0  0  0  0  0  0
   20.6030   41.9563  -11.8240 H   0  0  0  0  0  0
   19.1577   40.9926  -11.8411 H   0  0  0  0  0  0
   18.6318   41.6991   -9.5698 H   0  0  0  0  0  0
   17.9708   44.4218   -8.9614 H   0  0  0  0  0  0
   18.7234   43.2502   -7.9161 H   0  0  0  0  0  0
   20.0924   47.3359   -8.1213 H   0  0  0  0  0  0
   18.4903   46.8312   -8.6549 H   0  0  0  0  0  0
   19.8962   46.5242   -9.6629 H   0  0  0  0  0  0
   19.9723   44.7611   -4.5676 H   0  0  0  0  0  0
   22.9551   44.3535   -4.9825 H   0  0  0  0  0  0
   22.4871   45.0910   -6.4731 H   0  0  0  0  0  0
   22.9084   42.6065   -4.2286 H   0  0  0  0  0  0
   22.0726   40.8084   -5.6520 H   0  0  0  0  0  0
   21.0587   40.3051   -4.3162 H   0  0  0  0  0  0
   19.1692   40.9638   -5.7485 H   0  0  0  0  0  0
   20.9828   38.8955   -6.7645 H   0  0  0  0  0  0
   19.6349   38.6776   -5.6610 H   0  0  0  0  0  0
   20.5982   38.2891   -9.0020 H   0  0  0  0  0  0
   19.0628   37.9708  -10.9247 H   0  0  0  0  0  0
   16.6947   38.5482  -10.7418 H   0  0  0  0  0  0
   17.3286   39.7935   -6.6422 H   0  0  0  0  0  0
   14.1287   41.4449   -8.4559 H   0  0  0  0  0  0
   15.4874   41.5310   -9.5586 H   0  0  0  0  0  0
   15.7575   41.6434   -7.8240 H   0  0  0  0  0  0
   15.2530   39.6184   -6.3043 H   0  0  0  0  0  0
   14.7701   38.0784   -7.0223 H   0  0  0  0  0  0
   13.6799   39.4494   -7.0577 H   0  0  0  0  0  0
   13.4275   39.1841   -9.5156 H   0  0  0  0  0  0
   14.5824   37.8606   -9.5884 H   0  0  0  0  0  0
   14.7939   39.2766  -10.6096 H   0  0  0  0  0  0
   20.2246   41.2329   -6.9743 H   0  0  0  0  0  0
  1  2  1  0  0  0
  1 39  1  0  0  0
  1 40  1  0  0  0
  1 41  1  0  0  0
  2 35  1  0  0  0
  2 19  1  0  0  0
  2  3  1  0  0  0
  3  4  1  0  0  0
  3 42  1  0  0  0
  3 43  1  0  0  0
  4  5  1  0  0  0
  4 44  1  0  0  0
  4 45  1  0  0  0
  5  6  1  0  0  0
  5 46  1  0  0  0
  5 47  1  0  0  0
  6  7  1  0  0  0
  6 48  1  0  0  0
  6 49  1  0  0  0
  7  8  1  0  0  0
  7 50  1  0  0  0
  7 51  1  0  0  0
  8  9  1  0  0  0
  8 52  1  0  0  0
  8 53  1  0  0  0
  9 10  1  0  0  0
  9 54  1  0  0  0
 10 11  2  0  0  0
 10 12  1  0  0  0
 12 13  1  0  0  0
 12 55  1  0  0  0
 12 56  1  0  0  0
 13 36  1  0  0  0
 13 14  1  0  0  0
 13 15  1  0  0  0
 14 57  1  0  0  0
 14 58  1  0  0  0
 14 59  1  0  0  0
 15 16  2  0  0  0
 15 17  1  0  0  0
 17 18  1  0  0  0
 17 60  1  0  0  0
 18 37  1  0  0  0
 18 19  1  0  0  0
 18 20  1  0  0  0
 19 61  1  0  0  0
 19 62  1  0  0  0
 20 38  1  0  0  0
 20 21  1  0  0  0
 20 22  1  0  0  0
 21 63  1  0  0  0
 22 23  1  0  0  0
 22 64  1  0  0  0
 22 65  1  0  0  0
 23 24  1  0  0  0
 23 66  1  0  0  0
 23 82  1  0  0  0
 24 25  1  0  0  0
 24 67  1  0  0  0
 24 68  1  0  0  0
 25 30  1  0  0  0
 25 26  2  0  0  0
 26 27  1  0  0  0
 26 69  1  0  0  0
 27 28  2  0  0  0
 27 70  1  0  0  0
 28 29  1  0  0  0
 28 71  1  0  0  0
 29 30  2  0  0  0
 29 31  1  0  0  0
 30 72  1  0  0  0
 31 32  1  0  0  0
 31 33  1  0  0  0
 31 34  1  0  0  0
 32 73  1  0  0  0
 32 74  1  0  0  0
 32 75  1  0  0  0
 33 76  1  0  0  0
 33 77  1  0  0  0
 33 78  1  0  0  0
 34 79  1  0  0  0
 34 80  1  0  0  0
 34 81  1  0  0  0
M  CHG  1  23   1
M  END
> <s_m_source_file>
BACE_37.smi

> <i_m_source_file_index>
1

> <i_lp_mmshare_version>
42013

> <i_f3d_flags>
0

> <s_epik_input>
W0NIM11bQ0BASF0xW0NIMl1bQ0gyXVtDSDJdW0NIMl1bQ0gyXVtDSDJdW05IXUMoPU8pW0NIMl1bQ0BASF0oW0NIM10pQyg9TylbTkhdW0NAQEhdKFtDSDJdMSlbQ0BIXShbT0hdKVtDSDJdW05IXVtDSDJdYzJbY0hdW2NIXVtjSF1jKFtjSF0yKUMoW0NIM10pKFtDSDNdKVtDSDNd

> <s_epik_cmdline>
J2VwaWtfcHl0aG9uJywgJy1waCcsICc3LjAnLCAnLXRuJywgJzgnLCAnLW1hJywgJzIwMCcsICctaW1hZScsICc8aW5maWxlLm1hZT4nLCAnLW9tYWUnLCAnPG91dGZpbGUubWFlPic=

> <r_epik_Ionization_Penalty>
  0.0172

> <r_epik_Ionization_Penalty_Charging>
  0.0172

> <r_epik_Ionization_Penalty_Neutral>
  0.0000

> <r_epik_State_Penalty>
  0.0136

> <r_epik_Charging_Adjusted_Penalty>
0.0307473

> <i_epik_Tot_Q>
1

> <i_epik_Tot_abs_Q>
1

> <s_lp_Force_Field>
OPLS_2005

> <r_lp_Energy>
24.847

> <b_lp_Chiralities_Consistent>
1

> <s_lp_Variant>
BACE_37.smi:1-1

> <chiral flag>
1

> <version>
0

> <s_i_glide_gridfile>
second_dock_grid_2

> <i_i_glide_lignum>
65

> <i_i_glide_rotatable_bonds>
7

> <r_i_docking_score>
-4.88697

> <r_i_glide_ligand_efficiency>
-0.143735

> <r_i_glide_ligand_efficiency_sa>
-0.465644

> <r_i_glide_ligand_efficiency_ln>
-1.07967

> <r_glide_XP_GScore>
-4.90057

> <r_i_glide_gscore>
-4.90057

> <r_i_glide_evdw>
-35.396

> <r_i_glide_ecoul>
-12.5563

> <r_i_glide_energy>
-47.9523

> <r_i_glide_einternal>
6.57027

> <r_i_glide_emodel>
-65.2594

> <r_glide_XP_HBond>
-0.603967

> <i_i_glide_confnum>
1

> <i_i_glide_posenum>
1

> <r_i_glide_eff_state_penalty>
0.0136

> <i_glide_XP_PoseRank>
1

$$$$
BACE_37.smi:1
                    3D
 Structure written by MMmdl.
 81 82  0  0  1  0            999 V2000
   25.1522   44.0573   -6.3059 C   0  0  0  0  0  0
   23.7227   43.5163   -6.4658 C   0  0  2  0  0  0
   23.3504   43.4010   -7.9604 C   0  0  0  0  0  0
   23.9610   42.1808   -8.6768 C   0  0  0  0  0  0
   23.0692   41.6717   -9.8228 C   0  0  0  0  0  0
   21.8577   40.8640   -9.3119 C   0  0  0  0  0  0
   20.7794   40.5844  -10.3756 C   0  0  0  0  0  0
   20.0393   41.8278  -10.9094 C   0  0  0  0  0  0
   19.4656   42.6374   -9.8345 N   0  0  0  0  0  0
   19.8053   43.9054   -9.5495 C   0  0  0  0  0  0
   20.6341   44.5403  -10.2020 O   0  0  0  0  0  0
   19.1111   44.5452   -8.3372 C   0  0  0  0  0  0
   19.9687   45.6232   -7.6213 C   0  0  1  0  0  0
   19.8321   47.0110   -8.2815 C   0  0  0  0  0  0
   19.6548   45.6888   -6.1114 C   0  0  0  0  0  0
   18.7861   46.4590   -5.7061 O   0  0  0  0  0  0
   20.3531   44.9370   -5.2396 N   0  0  0  0  0  0
   21.2669   43.8308   -5.5315 C   0  0  1  0  0  0
   22.7145   44.3903   -5.6779 C   0  0  0  0  0  0
   21.1238   42.7284   -4.4435 C   0  0  2  0  0  0
   22.1029   42.9511   -3.4484 O   0  0  0  0  0  0
   21.3781   41.2911   -4.9557 C   0  0  0  0  0  0
   20.4727   40.9479   -6.0492 N   0  0  0  0  0  0
   20.6493   39.5839   -6.5332 C   0  0  0  0  0  0
   19.7757   39.2942   -7.7365 C   0  0  0  0  0  0
   20.3571   38.8232   -8.9292 C   0  0  0  0  0  0
   19.5453   38.5520  -10.0442 C   0  0  0  0  0  0
   18.1539   38.7488   -9.9675 C   0  0  0  0  0  0
   17.5472   39.2191   -8.7780 C   0  0  0  0  0  0
   18.3801   39.4867   -7.6620 C   0  0  0  0  0  0
   16.0205   39.4241   -8.7368 C   0  0  0  0  0  0
   15.2279   38.1278   -9.0208 C   0  0  0  0  0  0
   15.6081   40.4654   -9.7981 C   0  0  0  0  0  0
   15.6040   39.9280   -7.3392 C   0  0  0  0  0  0
   23.7225   42.5203   -6.0297 H   0  0  0  0  0  0
   21.0206   45.3604   -7.7170 H   0  0  0  0  0  0
   20.9261   43.3830   -6.4618 H   0  0  0  0  0  0
   20.1307   42.7878   -3.9955 H   0  0  0  0  0  0
   25.2438   45.0641   -6.7150 H   0  0  0  0  0  0
   25.8746   43.4228   -6.8198 H   0  0  0  0  0  0
   25.4430   44.0972   -5.2559 H   0  0  0  0  0  0
   22.2733   43.3419   -8.0609 H   0  0  0  0  0  0
   23.6170   44.3159   -8.4912 H   0  0  0  0  0  0
   24.9432   42.4532   -9.0638 H   0  0  0  0  0  0
   24.1304   41.3629   -7.9756 H   0  0  0  0  0  0
   22.7464   42.5224  -10.4227 H   0  0  0  0  0  0
   23.6567   41.0382  -10.4881 H   0  0  0  0  0  0
   22.2199   39.9115   -8.9233 H   0  0  0  0  0  0
   21.3934   41.3576   -8.4588 H   0  0  0  0  0  0
   21.2260   40.0452  -11.2118 H   0  0  0  0  0  0
   20.0436   39.9050   -9.9437 H   0  0  0  0  0  0
   20.7067   42.4137  -11.5421 H   0  0  0  0  0  0
   19.2239   41.5087  -11.5586 H   0  0  0  0  0  0
   18.7741   42.1910   -9.2498 H   0  0  0  0  0  0
   18.1633   44.9732   -8.6657 H   0  0  0  0  0  0
   18.8505   43.7456   -7.6411 H   0  0  0  0  0  0
   20.4040   47.7654   -7.7398 H   0  0  0  0  0  0
   18.7931   47.3407   -8.3123 H   0  0  0  0  0  0
   20.2029   47.0040   -9.3061 H   0  0  0  0  0  0
   20.1397   45.0751   -4.2622 H   0  0  0  0  0  0
   23.1077   44.5823   -4.6788 H   0  0  0  0  0  0
   22.6874   45.3692   -6.1578 H   0  0  0  0  0  0
   22.9459   43.0250   -3.8688 H   0  0  0  0  0  0
   22.3986   41.1940   -5.3252 H   0  0  0  0  0  0
   21.2830   40.5761   -4.1371 H   0  0  0  0  0  0
   19.5147   41.0724   -5.7388 H   0  0  0  0  0  0
   21.6936   39.4078   -6.7949 H   0  0  0  0  0  0
   20.4010   38.8710   -5.7457 H   0  0  0  0  0  0
   21.4246   38.6686   -8.9901 H   0  0  0  0  0  0
   19.9895   38.1918  -10.9602 H   0  0  0  0  0  0
   17.5534   38.5327  -10.8384 H   0  0  0  0  0  0
   17.9712   39.8437   -6.7298 H   0  0  0  0  0  0
   14.1527   38.3065   -8.9808 H   0  0  0  0  0  0
   15.4479   37.3512   -8.2871 H   0  0  0  0  0  0
   15.4464   37.7297  -10.0125 H   0  0  0  0  0  0
   15.8968   40.1430  -10.7994 H   0  0  0  0  0  0
   16.0686   41.4376   -9.6215 H   0  0  0  0  0  0
   14.5286   40.6205   -9.8030 H   0  0  0  0  0  0
   14.5233   40.0563   -7.2694 H   0  0  0  0  0  0
   16.0549   40.8906   -7.0975 H   0  0  0  0  0  0
   15.9006   39.2224   -6.5622 H   0  0  0  0  0  0
  1  2  1  0  0  0
  1 39  1  0  0  0
  1 40  1  0  0  0
  1 41  1  0  0  0
  2 35  1  0  0  0
  2 19  1  0  0  0
  2  3  1  0  0  0
  3  4  1  0  0  0
  3 42  1  0  0  0
  3 43  1  0  0  0
  4  5  1  0  0  0
  4 44  1  0  0  0
  4 45  1  0  0  0
  5  6  1  0  0  0
  5 46  1  0  0  0
  5 47  1  0  0  0
  6  7  1  0  0  0
  6 48  1  0  0  0
  6 49  1  0  0  0
  7  8  1  0  0  0
  7 50  1  0  0  0
  7 51  1  0  0  0
  8  9  1  0  0  0
  8 52  1  0  0  0
  8 53  1  0  0  0
  9 10  1  0  0  0
  9 54  1  0  0  0
 10 11  2  0  0  0
 10 12  1  0  0  0
 12 13  1  0  0  0
 12 55  1  0  0  0
 12 56  1  0  0  0
 13 36  1  0  0  0
 13 14  1  0  0  0
 13 15  1  0  0  0
 14 57  1  0  0  0
 14 58  1  0  0  0
 14 59  1  0  0  0
 15 16  2  0  0  0
 15 17  1  0  0  0
 17 18  1  0  0  0
 17 60  1  0  0  0
 18 37  1  0  0  0
 18 19  1  0  0  0
 18 20  1  0  0  0
 19 61  1  0  0  0
 19 62  1  0  0  0
 20 38  1  0  0  0
 20 21  1  0  0  0
 20 22  1  0  0  0
 21 63  1  0  0  0
 22 23  1  0  0  0
 22 64  1  0  0  0
 22 65  1  0  0  0
 23 24  1  0  0  0
 23 66  1  0  0  0
 24 25  1  0  0  0
 24 67  1  0  0  0
 24 68  1  0  0  0
 25 30  1  0  0  0
 25 26  2  0  0  0
 26 27  1  0  0  0
 26 69  1  0  0  0
 27 28  2  0  0  0
 27 70  1  0  0  0
 28 29  1  0  0  0
 28 71  1  0  0  0
 29 30  2  0  0  0
 29 31  1  0  0  0
 30 72  1  0  0  0
 31 32  1  0  0  0
 31 33  1  0  0  0
 31 34  1  0  0  0
 32 73  1  0  0  0
 32 74  1  0  0  0
 32 75  1  0  0  0
 33 76  1  0  0  0
 33 77  1  0  0  0
 33 78  1  0  0  0
 34 79  1  0  0  0
 34 80  1  0  0  0
 34 81  1  0  0  0
M  END
> <s_m_source_file>
BACE_37.smi

> <i_m_source_file_index>
1

> <i_lp_mmshare_version>
42013

> <i_f3d_flags>
0

> <s_epik_input>
W0NIM11bQ0BASF0xW0NIMl1bQ0gyXVtDSDJdW0NIMl1bQ0gyXVtDSDJdW05IXUMoPU8pW0NIMl1bQ0BASF0oW0NIM10pQyg9TylbTkhdW0NAQEhdKFtDSDJdMSlbQ0BIXShbT0hdKVtDSDJdW05IXVtDSDJdYzJbY0hdW2NIXVtjSF1jKFtjSF0yKUMoW0NIM10pKFtDSDNdKVtDSDNd

> <s_epik_cmdline>
J2VwaWtfcHl0aG9uJywgJy1waCcsICc3LjAnLCAnLXRuJywgJzgnLCAnLW1hJywgJzIwMCcsICctaW1hZScsICc8aW5maWxlLm1hZT4nLCAnLW9tYWUnLCAnPG91dGZpbGUubWFlPic=

> <r_epik_Ionization_Penalty>
  2.1070

> <r_epik_Ionization_Penalty_Charging>
  0.0000

> <r_epik_Ionization_Penalty_Neutral>
  2.1070

> <r_epik_State_Penalty>
  2.2436

> <r_epik_Charging_Adjusted_Penalty>
2.24357

> <i_epik_Tot_Q>
0

> <i_epik_Tot_abs_Q>
0

> <s_lp_Force_Field>
OPLS_2005

> <r_lp_Energy>
34.0809

> <b_lp_Chiralities_Consistent>
1

> <s_lp_Variant>
BACE_37.smi:1-2

> <chiral flag>
1

> <version>
0

> <s_i_glide_gridfile>
second_dock_grid_2

> <i_i_glide_lignum>
66

> <i_i_glide_rotatable_bonds>
7

> <r_i_docking_score>
-2.30511

> <r_i_glide_ligand_efficiency>
-0.0677975

> <r_i_glide_ligand_efficiency_sa>
-0.219638

> <r_i_glide_ligand_efficiency_ln>
-0.509265

> <r_glide_XP_GScore>
-4.54871

> <r_i_glide_gscore>
-4.54871

> <r_i_glide_evdw>
-35.2983

> <r_i_glide_ecoul>
-9.40341

> <r_i_glide_energy>
-44.7017

> <r_i_glide_einternal>
5.69172

> <r_i_glide_emodel>
-62.5126

> <r_glide_XP_HBond>
-1.82775

> <i_i_glide_confnum>
1

> <i_i_glide_posenum>
1

> <r_i_glide_eff_state_penalty>
2.2436

> <i_glide_XP_PoseRank>
1

$$$$
BACE_38.smi:1
                    3D
 Structure written by MMmdl.
 90 92  0  0  1  0            999 V2000
   16.6886   43.6497  -10.5694 C   0  0  0  0  0  0
   16.9734   44.3580   -9.2345 C   0  0  2  0  0  0
   16.4379   45.8019   -9.2395 C   0  0  0  0  0  0
   17.2621   46.8009  -10.0685 C   0  0  0  0  0  0
   16.6396   48.1950  -10.0207 C   0  0  0  0  0  0
   17.5233   49.2761  -10.6514 C   0  0  0  0  0  0
   16.9489   50.6918  -10.4621 C   0  0  0  0  0  0
   17.8979   51.8314  -10.8771 C   0  0  0  0  0  0
   18.8824   52.3188   -9.7911 C   0  0  0  0  0  0
   20.0540   51.3652   -9.4887 C   0  0  0  0  0  0
   19.8842   50.5116   -7.8555 S   0  0  0  0  0  0
   18.4756   50.1494   -7.6409 O   0  0  0  0  0  0
   20.5700   51.3499   -6.8577 O   0  0  0  0  0  0
   20.8817   48.9776   -8.1430 C   0  0  0  0  0  0
   20.9371   47.9797   -6.9588 C   0  0  1  0  0  0
   21.2258   48.6251   -5.5914 C   0  0  0  0  0  0
   19.6999   47.0649   -6.9051 C   0  0  0  0  0  0
   18.6980   47.4123   -6.2773 O   0  0  0  0  0  0
   19.8092   45.8737   -7.5236 N   0  0  0  0  0  0
   18.8304   44.7827   -7.4424 C   0  0  1  0  0  0
   18.4649   44.2428   -8.8527 C   0  0  0  0  0  0
   19.3061   43.6738   -6.4730 C   0  0  2  0  0  0
   19.6602   44.2565   -5.2398 O   0  0  0  0  0  0
   20.5188   42.8322   -6.8988 C   0  0  0  0  0  0
   20.4753   41.5452   -6.1999 N   0  0  0  0  0  0
   21.2938   40.4918   -6.7921 C   0  0  0  0  0  0
   22.0647   39.6194   -5.8307 C   0  0  0  0  0  0
   22.7943   40.6113   -6.7131 C   0  0  0  0  0  0
   20.6560   39.9079   -8.0203 C   0  0  0  0  0  0
   20.9472   40.4571   -9.2870 C   0  0  0  0  0  0
   20.2977   40.0054  -10.4597 C   0  0  0  0  0  0
   19.3715   38.9413  -10.3388 C   0  0  0  0  0  0
   19.0916   38.3660   -9.0832 C   0  0  0  0  0  0
   19.7260   38.8542   -7.9263 C   0  0  0  0  0  0
   20.5359   40.6606  -11.8331 C   0  0  0  0  0  0
   21.0336   39.6189  -12.8460 C   0  0  0  0  0  0
   19.2226   41.2862  -12.3362 C   0  0  0  0  0  0
   21.6041   41.7759  -11.7935 C   0  0  0  0  0  0
   16.4050   43.8137   -8.4774 H   0  0  0  0  0  0
   21.7844   47.3251   -7.1611 H   0  0  0  0  0  0
   17.9181   45.1673   -6.9878 H   0  0  0  0  0  0
   18.4581   43.0065   -6.3281 H   0  0  0  0  0  0
   15.6304   43.7005  -10.8299 H   0  0  0  0  0  0
   16.9511   42.5918  -10.5072 H   0  0  0  0  0  0
   17.2601   44.0881  -11.3889 H   0  0  0  0  0  0
   16.3749   46.1689   -8.2140 H   0  0  0  0  0  0
   15.4087   45.7939   -9.5982 H   0  0  0  0  0  0
   18.2759   46.8587   -9.6783 H   0  0  0  0  0  0
   17.3416   46.4683  -11.1028 H   0  0  0  0  0  0
   15.6715   48.1502  -10.5152 H   0  0  0  0  0  0
   16.4598   48.4629   -8.9782 H   0  0  0  0  0  0
   17.6707   49.0695  -11.7131 H   0  0  0  0  0  0
   18.5036   49.2077  -10.1910 H   0  0  0  0  0  0
   16.6287   50.8428   -9.4301 H   0  0  0  0  0  0
   16.0448   50.7644  -11.0668 H   0  0  0  0  0  0
   17.2770   52.6868  -11.1472 H   0  0  0  0  0  0
   18.4339   51.5683  -11.7907 H   0  0  0  0  0  0
   18.3472   52.5773   -8.8771 H   0  0  0  0  0  0
   19.3068   53.2608  -10.1423 H   0  0  0  0  0  0
   20.9890   51.9218   -9.4574 H   0  0  0  0  0  0
   20.1725   50.6246  -10.2789 H   0  0  0  0  0  0
   21.8919   49.2974   -8.3964 H   0  0  0  0  0  0
   20.4827   48.4841   -9.0284 H   0  0  0  0  0  0
   20.3916   49.2310   -5.2327 H   0  0  0  0  0  0
   22.1106   49.2599   -5.6352 H   0  0  0  0  0  0
   21.4177   47.8589   -4.8404 H   0  0  0  0  0  0
   20.6776   45.6630   -7.9898 H   0  0  0  0  0  0
   19.0862   44.7099   -9.6176 H   0  0  0  0  0  0
   18.7061   43.1823   -8.9192 H   0  0  0  0  0  0
   19.9684   43.5569   -4.6786 H   0  0  0  0  0  0
   21.4590   43.3523   -6.7113 H   0  0  0  0  0  0
   20.4847   42.6682   -7.9710 H   0  0  0  0  0  0
   19.5076   41.2305   -6.1448 H   0  0  0  0  0  0
   22.0153   39.8527   -4.7698 H   0  0  0  0  0  0
   22.1549   38.5604   -6.0629 H   0  0  0  0  0  0
   23.3862   40.2020   -7.5306 H   0  0  0  0  0  0
   23.1918   41.5112   -6.2470 H   0  0  0  0  0  0
   21.6600   41.2650   -9.3242 H   0  0  0  0  0  0
   18.8500   38.5661  -11.2065 H   0  0  0  0  0  0
   18.3739   37.5640   -9.0034 H   0  0  0  0  0  0
   19.4863   38.4255   -6.9623 H   0  0  0  0  0  0
   22.0598   39.3501  -12.6331 H   0  0  0  0  0  0
   21.0118   40.0104  -13.8600 H   0  0  0  0  0  0
   20.4598   38.6981  -12.8391 H   0  0  0  0  0  0
   18.8721   42.0506  -11.6418 H   0  0  0  0  0  0
   18.4296   40.5459  -12.4385 H   0  0  0  0  0  0
   19.3503   41.7607  -13.3085 H   0  0  0  0  0  0
   21.2920   42.6216  -11.1799 H   0  0  0  0  0  0
   21.8098   42.1502  -12.7957 H   0  0  0  0  0  0
   22.5543   41.4084  -11.4054 H   0  0  0  0  0  0
  1  2  1  0  0  0
  1 43  1  0  0  0
  1 44  1  0  0  0
  1 45  1  0  0  0
  2 39  1  0  0  0
  2 21  1  0  0  0
  2  3  1  0  0  0
  3  4  1  0  0  0
  3 46  1  0  0  0
  3 47  1  0  0  0
  4  5  1  0  0  0
  4 48  1  0  0  0
  4 49  1  0  0  0
  5  6  1  0  0  0
  5 50  1  0  0  0
  5 51  1  0  0  0
  6  7  1  0  0  0
  6 52  1  0  0  0
  6 53  1  0  0  0
  7  8  1  0  0  0
  7 54  1  0  0  0
  7 55  1  0  0  0
  8  9  1  0  0  0
  8 56  1  0  0  0
  8 57  1  0  0  0
  9 10  1  0  0  0
  9 58  1  0  0  0
  9 59  1  0  0  0
 10 11  1  0  0  0
 10 60  1  0  0  0
 10 61  1  0  0  0
 11 12  2  0  0  0
 11 13  2  0  0  0
 11 14  1  0  0  0
 14 15  1  0  0  0
 14 62  1  0  0  0
 14 63  1  0  0  0
 15 40  1  0  0  0
 15 16  1  0  0  0
 15 17  1  0  0  0
 16 64  1  0  0  0
 16 65  1  0  0  0
 16 66  1  0  0  0
 17 18  2  0  0  0
 17 19  1  0  0  0
 19 20  1  0  0  0
 19 67  1  0  0  0
 20 41  1  0  0  0
 20 21  1  0  0  0
 20 22  1  0  0  0
 21 68  1  0  0  0
 21 69  1  0  0  0
 22 42  1  0  0  0
 22 23  1  0  0  0
 22 24  1  0  0  0
 23 70  1  0  0  0
 24 25  1  0  0  0
 24 71  1  0  0  0
 24 72  1  0  0  0
 25 26  1  0  0  0
 25 73  1  0  0  0
 26 28  1  0  0  0
 26 27  1  0  0  0
 26 29  1  0  0  0
 27 28  1  0  0  0
 27 74  1  0  0  0
 27 75  1  0  0  0
 28 76  1  0  0  0
 28 77  1  0  0  0
 29 34  1  0  0  0
 29 30  2  0  0  0
 30 31  1  0  0  0
 30 78  1  0  0  0
 31 32  2  0  0  0
 31 35  1  0  0  0
 32 33  1  0  0  0
 32 79  1  0  0  0
 33 34  2  0  0  0
 33 80  1  0  0  0
 34 81  1  0  0  0
 35 36  1  0  0  0
 35 37  1  0  0  0
 35 38  1  0  0  0
 36 82  1  0  0  0
 36 83  1  0  0  0
 36 84  1  0  0  0
 37 85  1  0  0  0
 37 86  1  0  0  0
 37 87  1  0  0  0
 38 88  1  0  0  0
 38 89  1  0  0  0
 38 90  1  0  0  0
M  END
> <s_m_source_file>
BACE_38.smi

> <i_m_source_file_index>
1

> <i_lp_mmshare_version>
42013

> <i_f3d_flags>
0

> <s_epik_input>
Tz1TMSg9TylbQ0gyXVtDSDJdW0NIMl1bQ0gyXVtDSDJdW0NIMl1bQ0gyXVtDSDJdW0NAQEhdKFtDSDNdKVtDSDJdW0NASF0oW05IXUMoPU8pW0NAQEhdKFtDSDJdMSlbQ0gzXSlbQ0BIXShbT0hdKVtDSDJdW05IXUMyKFtDSDJdW0NIMl0yKWMzW2NIXWMoQyhbQ0gzXSkoW0NIM10pW0NIM10pW2NIXVtjSF1bY0hdMw==

> <s_epik_cmdline>
J2VwaWtfcHl0aG9uJywgJy1waCcsICc3LjAnLCAnLXRuJywgJzgnLCAnLW1hJywgJzIwMCcsICctaW1hZScsICc8aW5maWxlLm1hZT4nLCAnLW9tYWUnLCAnPG91dGZpbGUubWFlPic=

> <r_epik_Ionization_Penalty>
  0.3426

> <r_epik_Ionization_Penalty_Charging>
  0.0000

> <r_epik_Ionization_Penalty_Neutral>
  0.3426

> <r_epik_State_Penalty>
  0.3383

> <r_epik_Charging_Adjusted_Penalty>
0.33831

> <i_epik_Tot_Q>
0

> <i_epik_Tot_abs_Q>
0

> <s_lp_Force_Field>
OPLS_2005

> <r_lp_Energy>
41.6329

> <b_lp_Chiralities_Consistent>
1

> <s_lp_Variant>
BACE_38.smi:1-1

> <chiral flag>
1

> <version>
0

> <s_i_glide_gridfile>
second_dock_grid_2

> <i_i_glide_lignum>
67

> <i_i_glide_rotatable_bonds>
7

> <r_i_docking_score>
-2.93879

> <r_i_glide_ligand_efficiency>
-0.0773366

> <r_i_glide_ligand_efficiency_sa>
-0.260004

> <r_i_glide_ligand_efficiency_ln>
-0.63369

> <r_glide_XP_GScore>
-3.27709

> <r_i_glide_gscore>
-3.27709

> <r_i_glide_evdw>
-33.7398

> <r_i_glide_ecoul>
-11.2226

> <r_i_glide_energy>
-44.9624

> <r_i_glide_einternal>
3.3877

> <r_i_glide_emodel>
-59.1823

> <r_glide_XP_HBond>
-1.19611

> <i_i_glide_confnum>
1

> <i_i_glide_posenum>
1

> <r_i_glide_eff_state_penalty>
0.3383

> <i_glide_XP_PoseRank>
1

$$$$
BACE_38.smi:1
                    3D
 Structure written by MMmdl.
 91 93  0  0  1  0            999 V2000
   23.6454   45.7380   -8.7853 C   0  0  0  0  0  0
   24.1627   45.5775   -7.3448 C   0  0  2  0  0  0
   25.5931   44.9783   -7.3827 C   0  0  0  0  0  0
   26.3917   45.0129   -6.0623 C   0  0  0  0  0  0
   26.8974   46.4125   -5.6665 C   0  0  0  0  0  0
   27.7080   46.4034   -4.3547 C   0  0  0  0  0  0
   27.9203   47.7959   -3.7268 C   0  0  0  0  0  0
   26.6282   48.4255   -3.1634 C   0  0  0  0  0  0
   26.1161   49.6442   -3.9590 C   0  0  0  0  0  0
   24.6058   49.9075   -3.8009 C   0  0  0  0  0  0
   23.6369   48.8226   -4.9308 S   0  0  0  0  0  0
   23.8304   47.4292   -4.5039 O   0  0  0  0  0  0
   23.9394   49.2160   -6.3140 O   0  0  0  0  0  0
   21.8800   49.2356   -4.5548 C   0  0  0  0  0  0
   20.8308   48.8949   -5.6546 C   0  0  1  0  0  0
   20.9452   49.7674   -6.9156 C   0  0  0  0  0  0
   20.6358   47.4098   -6.0403 C   0  0  0  0  0  0
   19.5702   47.0716   -6.5588 O   0  0  0  0  0  0
   21.6270   46.5288   -5.8323 N   0  0  0  0  0  0
   21.7169   45.1817   -6.3979 C   0  0  1  0  0  0
   23.2029   44.7198   -6.4787 C   0  0  0  0  0  0
   20.7905   44.1656   -5.6641 C   0  0  2  0  0  0
   21.3806   43.7499   -4.4400 O   0  0  0  0  0  0
   20.5067   42.9193   -6.5423 C   0  0  0  0  0  0
   20.4600   41.6800   -5.7395 N   0  3  0  0  0  0
   21.1363   40.5270   -6.3595 C   0  0  0  0  0  0
   22.6288   40.5714   -6.1412 C   0  0  0  0  0  0
   21.7845   39.5919   -5.3628 C   0  0  0  0  0  0
   20.4886   40.0283   -7.6207 C   0  0  0  0  0  0
   19.1584   39.5594   -7.5740 C   0  0  0  0  0  0
   18.4915   39.1019   -8.7383 C   0  0  0  0  0  0
   19.2134   39.0857   -9.9565 C   0  0  0  0  0  0
   20.5425   39.5504  -10.0150 C   0  0  0  0  0  0
   21.1758   40.0312   -8.8534 C   0  0  0  0  0  0
   17.0380   38.5921   -8.6990 C   0  0  0  0  0  0
   17.0541   37.0615   -8.8430 C   0  0  0  0  0  0
   16.3046   38.9635   -7.3845 C   0  0  0  0  0  0
   16.2107   39.2132   -9.8472 C   0  0  0  0  0  0
   24.2288   46.5780   -6.9220 H   0  0  0  0  0  0
   19.8770   49.1723   -5.2054 H   0  0  0  0  0  0
   21.3322   45.2517   -7.4170 H   0  0  0  0  0  0
   19.8344   44.6256   -5.4132 H   0  0  0  0  0  0
   22.7135   46.3023   -8.8193 H   0  0  0  0  0  0
   24.3604   46.2854   -9.4001 H   0  0  0  0  0  0
   23.4755   44.7692   -9.2551 H   0  0  0  0  0  0
   25.5249   43.9420   -7.7170 H   0  0  0  0  0  0
   26.1853   45.4879   -8.1441 H   0  0  0  0  0  0
   27.2554   44.3549   -6.1682 H   0  0  0  0  0  0
   25.8047   44.5869   -5.2515 H   0  0  0  0  0  0
   27.5135   46.8253   -6.4653 H   0  0  0  0  0  0
   26.0501   47.0832   -5.5699 H   0  0  0  0  0  0
   28.6798   45.9489   -4.5505 H   0  0  0  0  0  0
   27.2268   45.7561   -3.6219 H   0  0  0  0  0  0
   28.6297   47.6827   -2.9045 H   0  0  0  0  0  0
   28.4095   48.4639   -4.4359 H   0  0  0  0  0  0
   25.8579   47.6600   -3.0951 H   0  0  0  0  0  0
   26.8011   48.7393   -2.1335 H   0  0  0  0  0  0
   26.6747   50.5231   -3.6337 H   0  0  0  0  0  0
   26.3452   49.5274   -5.0184 H   0  0  0  0  0  0
   24.3778   50.9395   -4.0601 H   0  0  0  0  0  0
   24.2779   49.7411   -2.7750 H   0  0  0  0  0  0
   21.8249   50.2949   -4.3122 H   0  0  0  0  0  0
   21.6555   48.7030   -3.6400 H   0  0  0  0  0  0
   21.7782   49.4660   -7.5505 H   0  0  0  0  0  0
   21.0743   50.8183   -6.6607 H   0  0  0  0  0  0
   20.0414   49.6929   -7.5231 H   0  0  0  0  0  0
   22.4712   46.8606   -5.3748 H   0  0  0  0  0  0
   23.5989   44.6719   -5.4655 H   0  0  0  0  0  0
   23.2472   43.6967   -6.8495 H   0  0  0  0  0  0
   21.2629   44.4390   -3.7955 H   0  0  0  0  0  0
   21.2692   42.8179   -7.3187 H   0  0  0  0  0  0
   19.5636   43.0357   -7.0785 H   0  0  0  0  0  0
   19.4943   41.4542   -5.5189 H   0  0  0  0  0  0
   23.2809   40.1478   -6.9018 H   0  0  0  0  0  0
   23.0361   41.4123   -5.5820 H   0  0  0  0  0  0
   21.6675   39.7796   -4.2990 H   0  0  0  0  0  0
   21.9161   38.5505   -5.6476 H   0  0  0  0  0  0
   18.6556   39.5704   -6.6156 H   0  0  0  0  0  0
   18.7588   38.7143  -10.8648 H   0  0  0  0  0  0
   21.0760   39.5397  -10.9554 H   0  0  0  0  0  0
   22.1908   40.3925   -8.9217 H   0  0  0  0  0  0
   17.4906   36.7505   -9.7926 H   0  0  0  0  0  0
   16.0484   36.6437   -8.7959 H   0  0  0  0  0  0
   17.6306   36.5936   -8.0428 H   0  0  0  0  0  0
   16.2506   40.0440   -7.2468 H   0  0  0  0  0  0
   16.7808   38.5463   -6.4983 H   0  0  0  0  0  0
   15.2794   38.5856   -7.3799 H   0  0  0  0  0  0
   16.2089   40.3014   -9.7909 H   0  0  0  0  0  0
   15.1690   38.8884   -9.8050 H   0  0  0  0  0  0
   16.5806   38.9404  -10.8362 H   0  0  0  0  0  0
   20.9359   41.9223   -4.8764 H   0  0  0  0  0  0
  1  2  1  0  0  0
  1 43  1  0  0  0
  1 44  1  0  0  0
  1 45  1  0  0  0
  2 39  1  0  0  0
  2 21  1  0  0  0
  2  3  1  0  0  0
  3  4  1  0  0  0
  3 46  1  0  0  0
  3 47  1  0  0  0
  4  5  1  0  0  0
  4 48  1  0  0  0
  4 49  1  0  0  0
  5  6  1  0  0  0
  5 50  1  0  0  0
  5 51  1  0  0  0
  6  7  1  0  0  0
  6 52  1  0  0  0
  6 53  1  0  0  0
  7  8  1  0  0  0
  7 54  1  0  0  0
  7 55  1  0  0  0
  8  9  1  0  0  0
  8 56  1  0  0  0
  8 57  1  0  0  0
  9 10  1  0  0  0
  9 58  1  0  0  0
  9 59  1  0  0  0
 10 11  1  0  0  0
 10 60  1  0  0  0
 10 61  1  0  0  0
 11 12  2  0  0  0
 11 13  2  0  0  0
 11 14  1  0  0  0
 14 15  1  0  0  0
 14 62  1  0  0  0
 14 63  1  0  0  0
 15 40  1  0  0  0
 15 16  1  0  0  0
 15 17  1  0  0  0
 16 64  1  0  0  0
 16 65  1  0  0  0
 16 66  1  0  0  0
 17 18  2  0  0  0
 17 19  1  0  0  0
 19 20  1  0  0  0
 19 67  1  0  0  0
 20 41  1  0  0  0
 20 21  1  0  0  0
 20 22  1  0  0  0
 21 68  1  0  0  0
 21 69  1  0  0  0
 22 42  1  0  0  0
 22 23  1  0  0  0
 22 24  1  0  0  0
 23 70  1  0  0  0
 24 25  1  0  0  0
 24 71  1  0  0  0
 24 72  1  0  0  0
 25 26  1  0  0  0
 25 73  1  0  0  0
 25 91  1  0  0  0
 26 28  1  0  0  0
 26 27  1  0  0  0
 26 29  1  0  0  0
 27 28  1  0  0  0
 27 74  1  0  0  0
 27 75  1  0  0  0
 28 76  1  0  0  0
 28 77  1  0  0  0
 29 34  1  0  0  0
 29 30  2  0  0  0
 30 31  1  0  0  0
 30 78  1  0  0  0
 31 32  2  0  0  0
 31 35  1  0  0  0
 32 33  1  0  0  0
 32 79  1  0  0  0
 33 34  2  0  0  0
 33 80  1  0  0  0
 34 81  1  0  0  0
 35 36  1  0  0  0
 35 37  1  0  0  0
 35 38  1  0  0  0
 36 82  1  0  0  0
 36 83  1  0  0  0
 36 84  1  0  0  0
 37 85  1  0  0  0
 37 86  1  0  0  0
 37 87  1  0  0  0
 38 88  1  0  0  0
 38 89  1  0  0  0
 38 90  1  0  0  0
M  CHG  1  25   1
M  END
> <s_m_source_file>
BACE_38.smi

> <i_m_source_file_index>
1

> <i_lp_mmshare_version>
42013

> <i_f3d_flags>
0

> <s_epik_input>
Tz1TMSg9TylbQ0gyXVtDSDJdW0NIMl1bQ0gyXVtDSDJdW0NIMl1bQ0gyXVtDSDJdW0NAQEhdKFtDSDNdKVtDSDJdW0NASF0oW05IXUMoPU8pW0NAQEhdKFtDSDJdMSlbQ0gzXSlbQ0BIXShbT0hdKVtDSDJdW05IXUMyKFtDSDJdW0NIMl0yKWMzW2NIXWMoQyhbQ0gzXSkoW0NIM10pW0NIM10pW2NIXVtjSF1bY0hdMw==

> <s_epik_cmdline>
J2VwaWtfcHl0aG9uJywgJy1waCcsICc3LjAnLCAnLXRuJywgJzgnLCAnLW1hJywgJzIwMCcsICctaW1hZScsICc8aW5maWxlLm1hZT4nLCAnLW9tYWUnLCAnPG91dGZpbGUubWFlPic=

> <r_epik_Ionization_Penalty>
  0.4877

> <r_epik_Ionization_Penalty_Charging>
  0.4877

> <r_epik_Ionization_Penalty_Neutral>
  0.0000

> <r_epik_State_Penalty>
  0.4931

> <r_epik_Charging_Adjusted_Penalty>
0.980792

> <i_epik_Tot_Q>
1

> <i_epik_Tot_abs_Q>
1

> <s_lp_Force_Field>
OPLS_2005

> <r_lp_Energy>
33.0412

> <b_lp_Chiralities_Consistent>
1

> <s_lp_Variant>
BACE_38.smi:1-2

> <chiral flag>
1

> <version>
0

> <s_i_glide_gridfile>
second_dock_grid_2

> <i_i_glide_lignum>
68

> <i_i_glide_rotatable_bonds>
7

> <r_i_docking_score>
-2.69538

> <r_i_glide_ligand_efficiency>
-0.070931

> <r_i_glide_ligand_efficiency_sa>
-0.238468

> <r_i_glide_ligand_efficiency_ln>
-0.581202

> <r_glide_XP_GScore>
-3.18848

> <r_i_glide_gscore>
-3.18848

> <r_i_glide_evdw>
-35.2263

> <r_i_glide_ecoul>
-8.85169

> <r_i_glide_energy>
-44.078

> <r_i_glide_einternal>
5.71242

> <r_i_glide_emodel>
-59.9436

> <r_glide_XP_HBond>
-0.7

> <i_i_glide_confnum>
1

> <i_i_glide_posenum>
7

> <r_i_glide_eff_state_penalty>
0.4931

> <i_glide_XP_PoseRank>
1

$$$$
BACE_39.smi:1
                    3D
 Structure written by MMmdl.
 89 90  0  0  1  0            999 V2000
   15.5686   40.6274   -6.5790 C   0  0  0  0  0  0
   15.1322   39.7465   -7.7419 C   0  0  2  0  0  0
   16.0100   38.5500   -7.8390 N   0  3  0  0  0  0
   17.3865   38.7291   -8.3728 C   0  0  0  0  0  0
   18.4392   39.2651   -7.3610 C   0  0  1  0  0  0
   19.1112   38.1500   -6.8384 O   0  0  0  0  0  0
   19.4439   40.2309   -8.0542 C   0  0  2  0  0  0
   20.4866   39.5512   -8.9788 C   0  0  0  0  0  0
   20.5874   40.1794  -10.3874 C   0  0  2  0  0  0
   19.6908   39.4375  -11.3944 C   0  0  0  0  0  0
   22.0426   40.2159  -10.8849 C   0  0  0  0  0  0
   22.8240   41.4444  -10.3885 C   0  0  0  0  0  0
   22.5234   42.7127  -11.2120 C   0  0  0  0  0  0
   23.0822   44.0021  -10.5899 C   0  0  0  0  0  0
   22.2417   44.5029   -9.4042 C   0  0  0  0  0  0
   22.7592   45.8220   -8.8107 C   0  0  0  0  0  0
   21.8836   46.3963   -7.6790 C   0  0  0  0  0  0
   21.8264   45.5210   -6.4124 C   0  0  0  0  0  0
   20.2051   44.6479   -6.2366 S   0  0  0  0  0  0
   19.2560   45.6001   -5.6400 O   0  0  0  0  0  0
   19.8677   43.9997   -7.5120 O   0  0  0  0  0  0
   20.5800   43.3395   -4.9914 C   0  0  0  0  0  0
   21.5628   42.2631   -5.5211 C   0  0  1  0  0  0
   22.5934   41.8922   -4.4343 C   0  0  0  0  0  0
   20.8608   41.0189   -6.1033 C   0  0  0  0  0  0
   21.0957   39.9050   -5.6397 O   0  0  0  0  0  0
   20.0606   41.2245   -7.1656 N   0  0  0  0  0  0
   15.0908   40.5856   -9.0048 C   0  0  0  0  0  0
   15.3016   41.9905   -9.1018 C   0  0  0  0  0  0
   15.3087   42.2366  -10.4370 C   0  0  0  0  0  0
   15.6070   43.4902  -11.1933 C   0  0  0  0  0  0
   17.1148   43.7324  -11.4986 C   0  0  0  0  0  0
   17.2489   44.5678  -12.7829 C   0  0  0  0  0  0
   17.8994   42.4181  -11.6903 C   0  0  0  0  0  0
   17.7536   44.5118  -10.3312 C   0  0  0  0  0  0
   15.0726   41.0881  -11.1272 O   0  0  0  0  0  0
   14.9249   40.0408  -10.2040 N   0  0  0  0  0  0
   14.1283   39.3772   -7.5237 H   0  0  0  0  0  0
   17.9936   39.7501   -6.5018 H   0  0  0  0  0  0
   18.8210   40.8753   -8.6743 H   0  0  0  0  0  0
   20.2381   41.2090  -10.3399 H   0  0  0  0  0  0
   22.1362   42.6712   -6.3509 H   0  0  0  0  0  0
   14.8600   41.4265   -6.4401 H   0  0  0  0  0  0
   16.4937   41.1432   -6.8281 H   0  0  0  0  0  0
   15.6597   40.0793   -5.6409 H   0  0  0  0  0  0
   16.0354   38.0435   -6.9560 H   0  0  0  0  0  0
   17.7141   37.7641   -8.7619 H   0  0  0  0  0  0
   17.3424   39.3644   -9.2537 H   0  0  0  0  0  0
   18.5782   37.7502   -6.1650 H   0  0  0  0  0  0
   21.4600   39.5697   -8.4867 H   0  0  0  0  0  0
   20.2735   38.4877   -9.0918 H   0  0  0  0  0  0
   20.0011   38.3987  -11.5106 H   0  0  0  0  0  0
   19.7330   39.9038  -12.3789 H   0  0  0  0  0  0
   18.6470   39.4380  -11.0864 H   0  0  0  0  0  0
   22.5500   39.3106  -10.5538 H   0  0  0  0  0  0
   22.0644   40.1980  -11.9747 H   0  0  0  0  0  0
   22.6128   41.6028   -9.3306 H   0  0  0  0  0  0
   23.8933   41.2347  -10.4527 H   0  0  0  0  0  0
   22.9502   42.5815  -12.2075 H   0  0  0  0  0  0
   21.4513   42.8287  -11.3670 H   0  0  0  0  0  0
   24.1191   43.8522  -10.2879 H   0  0  0  0  0  0
   23.0987   44.7768  -11.3577 H   0  0  0  0  0  0
   21.2096   44.6382   -9.7287 H   0  0  0  0  0  0
   22.2262   43.7402   -8.6264 H   0  0  0  0  0  0
   23.7787   45.6837   -8.4488 H   0  0  0  0  0  0
   22.8219   46.5653   -9.6076 H   0  0  0  0  0  0
   22.2936   47.3690   -7.4045 H   0  0  0  0  0  0
   20.8766   46.5968   -8.0469 H   0  0  0  0  0  0
   22.6404   44.8001   -6.4025 H   0  0  0  0  0  0
   21.9493   46.1359   -5.5216 H   0  0  0  0  0  0
   20.9774   43.8400   -4.1078 H   0  0  0  0  0  0
   19.6355   42.9003   -4.6822 H   0  0  0  0  0  0
   23.2599   41.0969   -4.7685 H   0  0  0  0  0  0
   22.1040   41.5469   -3.5232 H   0  0  0  0  0  0
   23.2160   42.7497   -4.1729 H   0  0  0  0  0  0
   19.9237   42.1952   -7.4316 H   0  0  0  0  0  0
   15.4850   42.7072   -8.3140 H   0  0  0  0  0  0
   15.0306   43.4645  -12.1144 H   0  0  0  0  0  0
   15.1974   44.3413  -10.6484 H   0  0  0  0  0  0
   18.2904   44.8102  -12.9953 H   0  0  0  0  0  0
   16.7028   45.5087  -12.7085 H   0  0  0  0  0  0
   16.8601   44.0230  -13.6399 H   0  0  0  0  0  0
   17.4372   41.7767  -12.4400 H   0  0  0  0  0  0
   17.9537   41.8474  -10.7634 H   0  0  0  0  0  0
   18.9260   42.6095  -12.0055 H   0  0  0  0  0  0
   18.8134   44.6966  -10.5077 H   0  0  0  0  0  0
   17.6746   43.9606   -9.3926 H   0  0  0  0  0  0
   17.2757   45.4804  -10.1825 H   0  0  0  0  0  0
   15.5396   37.9439   -8.4955 H   0  0  0  0  0  0
  1  2  1  0  0  0
  1 43  1  0  0  0
  1 44  1  0  0  0
  1 45  1  0  0  0
  2 38  1  0  0  0
  2  3  1  0  0  0
  2 28  1  0  0  0
  3  4  1  0  0  0
  3 46  1  0  0  0
  3 89  1  0  0  0
  4  5  1  0  0  0
  4 47  1  0  0  0
  4 48  1  0  0  0
  5 39  1  0  0  0
  5  6  1  0  0  0
  5  7  1  0  0  0
  6 49  1  0  0  0
  7 40  1  0  0  0
  7 27  1  0  0  0
  7  8  1  0  0  0
  8  9  1  0  0  0
  8 50  1  0  0  0
  8 51  1  0  0  0
  9 41  1  0  0  0
  9 10  1  0  0  0
  9 11  1  0  0  0
 10 52  1  0  0  0
 10 53  1  0  0  0
 10 54  1  0  0  0
 11 12  1  0  0  0
 11 55  1  0  0  0
 11 56  1  0  0  0
 12 13  1  0  0  0
 12 57  1  0  0  0
 12 58  1  0  0  0
 13 14  1  0  0  0
 13 59  1  0  0  0
 13 60  1  0  0  0
 14 15  1  0  0  0
 14 61  1  0  0  0
 14 62  1  0  0  0
 15 16  1  0  0  0
 15 63  1  0  0  0
 15 64  1  0  0  0
 16 17  1  0  0  0
 16 65  1  0  0  0
 16 66  1  0  0  0
 17 18  1  0  0  0
 17 67  1  0  0  0
 17 68  1  0  0  0
 18 19  1  0  0  0
 18 69  1  0  0  0
 18 70  1  0  0  0
 19 20  2  0  0  0
 19 21  2  0  0  0
 19 22  1  0  0  0
 22 23  1  0  0  0
 22 71  1  0  0  0
 22 72  1  0  0  0
 23 42  1  0  0  0
 23 24  1  0  0  0
 23 25  1  0  0  0
 24 73  1  0  0  0
 24 74  1  0  0  0
 24 75  1  0  0  0
 25 26  2  0  0  0
 25 27  1  0  0  0
 27 76  1  0  0  0
 28 37  2  0  0  0
 28 29  1  0  0  0
 29 30  2  0  0  0
 29 77  1  0  0  0
 30 31  1  0  0  0
 30 36  1  0  0  0
 31 32  1  0  0  0
 31 78  1  0  0  0
 31 79  1  0  0  0
 32 33  1  0  0  0
 32 34  1  0  0  0
 32 35  1  0  0  0
 33 80  1  0  0  0
 33 81  1  0  0  0
 33 82  1  0  0  0
 34 83  1  0  0  0
 34 84  1  0  0  0
 34 85  1  0  0  0
 35 86  1  0  0  0
 35 87  1  0  0  0
 35 88  1  0  0  0
 36 37  1  0  0  0
M  CHG  1   3   1
M  END
> <s_m_source_file>
BACE_39.smi

> <i_m_source_file_index>
1

> <i_lp_mmshare_version>
42013

> <i_f3d_flags>
0

> <s_epik_input>
W0NIM11DKFtDSDNdKShbQ0gzXSlbQ0gyXWMob24xKVtjSF1jMVtDQEhdKFtDSDNdKVtOSF1bQ0gyXVtDQEBIXShbT0hdKVtDQEBIXShbTkhdQyg9TylbQ0BASF0oW0NIMl0yKVtDSDNdKVtDSDJdW0NASF0oW0NIM10pW0NIMl1bQ0gyXVtDSDJdW0NIMl1bQ0gyXVtDSDJdW0NIMl1bQ0gyXVMyKD1PKT1P

> <s_epik_cmdline>
J2VwaWtfcHl0aG9uJywgJy1waCcsICc3LjAnLCAnLXRuJywgJzgnLCAnLW1hJywgJzIwMCcsICctaW1hZScsICc8aW5maWxlLm1hZT4nLCAnLW9tYWUnLCAnPG91dGZpbGUubWFlPic=

> <r_epik_Ionization_Penalty>
  0.3891

> <r_epik_Ionization_Penalty_Charging>
  0.3891

> <r_epik_Ionization_Penalty_Neutral>
  0.0000

> <r_epik_State_Penalty>
  0.3876

> <r_epik_Charging_Adjusted_Penalty>
0.776703

> <i_epik_Tot_Q>
1

> <i_epik_Tot_abs_Q>
1

> <s_lp_Force_Field>
OPLS_2005

> <r_lp_Energy>
13.0449

> <b_lp_Chiralities_Consistent>
1

> <s_lp_Variant>
BACE_39.smi:1-1

> <chiral flag>
1

> <version>
0

> <s_i_glide_gridfile>
second_dock_grid_2

> <i_i_glide_lignum>
69

> <i_i_glide_rotatable_bonds>
8

> <r_i_docking_score>
-5.44401

> <r_i_glide_ligand_efficiency>
-0.147136

> <r_i_glide_ligand_efficiency_sa>
-0.490288

> <r_i_glide_ligand_efficiency_ln>
-1.18068

> <r_glide_XP_GScore>
-5.83161

> <r_i_glide_gscore>
-5.83161

> <r_i_glide_evdw>
-37.8299

> <r_i_glide_ecoul>
-13.3742

> <r_i_glide_energy>
-51.2041

> <r_i_glide_einternal>
11.4333

> <r_i_glide_emodel>
-66.2964

> <r_glide_XP_HBond>
-1.38

> <i_i_glide_confnum>
1

> <i_i_glide_posenum>
12

> <r_i_glide_eff_state_penalty>
0.3876

> <i_glide_XP_PoseRank>
1

$$$$
BACE_39.smi:1
                    3D
 Structure written by MMmdl.
 88 89  0  0  1  0            999 V2000
   19.3611   49.1696   -6.8451 C   0  0  0  0  0  0
   20.8621   49.0506   -7.1753 C   0  0  2  0  0  0
   21.1929   47.8254   -7.9360 N   0  0  0  0  0  0
   20.3484   46.6203   -7.8080 C   0  0  0  0  0  0
   20.6124   45.7995   -6.5166 C   0  0  1  0  0  0
   19.5321   46.0664   -5.6401 O   0  0  0  0  0  0
   20.6769   44.2401   -6.6344 C   0  0  2  0  0  0
   21.4696   43.6182   -5.4529 C   0  0  0  0  0  0
   21.0170   42.1997   -5.0114 C   0  0  2  0  0  0
   20.4612   42.2269   -3.5778 C   0  0  0  0  0  0
   22.1516   41.1540   -5.1238 C   0  0  0  0  0  0
   22.2501   40.5099   -6.5166 C   0  0  0  0  0  0
   21.2672   39.3362   -6.6883 C   0  0  0  0  0  0
   21.2436   38.7266   -8.0950 C   0  0  0  0  0  0
   20.5144   39.6216   -9.1005 C   0  0  0  0  0  0
   20.4425   39.0130  -10.5057 C   0  0  0  0  0  0
   19.7863   39.9403  -11.5414 C   0  0  0  0  0  0
   20.6200   41.1873  -11.8890 C   0  0  0  0  0  0
   19.9624   42.7307  -11.1049 S   0  0  0  0  0  0
   19.0184   43.3454  -12.0485 O   0  0  0  0  0  0
   19.5078   42.4296   -9.7444 O   0  0  0  0  0  0
   21.4744   43.7909  -11.0156 C   0  0  0  0  0  0
   22.4842   43.3029   -9.9417 C   0  0  1  0  0  0
   23.9297   43.4358  -10.4521 C   0  0  0  0  0  0
   22.2858   44.0017   -8.5778 C   0  0  0  0  0  0
   23.1315   44.7751   -8.1333 O   0  0  0  0  0  0
   21.1422   43.7246   -7.9281 N   0  0  0  0  0  0
   21.7436   49.3127   -5.9646 C   0  0  0  0  0  0
   22.7577   48.5125   -5.3660 C   0  0  0  0  0  0
   23.1843   49.2411   -4.2923 C   0  0  0  0  0  0
   24.1513   48.9193   -3.1828 C   0  0  0  0  0  0
   24.9498   50.0782   -2.5230 C   0  0  0  0  0  0
   26.0686   49.4607   -1.6599 C   0  0  0  0  0  0
   24.0431   50.9117   -1.5938 C   0  0  0  0  0  0
   25.5989   51.0051   -3.5653 C   0  0  0  0  0  0
   22.5193   50.4259   -4.2587 O   0  0  0  0  0  0
   21.6575   50.4936   -5.3585 N   0  0  0  0  0  0
   21.0621   49.8761   -7.8601 H   0  0  0  0  0  0
   21.5372   46.1363   -6.0561 H   0  0  0  0  0  0
   19.6511   43.8706   -6.5771 H   0  0  0  0  0  0
   20.1924   41.8731   -5.6453 H   0  0  0  0  0  0
   22.3328   42.2419   -9.7607 H   0  0  0  0  0  0
   19.1248   50.1502   -6.4486 H   0  0  0  0  0  0
   19.0480   48.4537   -6.0883 H   0  0  0  0  0  0
   18.7439   49.0245   -7.7315 H   0  0  0  0  0  0
   21.2937   48.0611   -8.9151 H   0  0  0  0  0  0
   19.2882   46.8445   -7.9267 H   0  0  0  0  0  0
   20.5576   46.0067   -8.6788 H   0  0  0  0  0  0
   18.7434   45.7544   -6.0571 H   0  0  0  0  0  0
   22.5355   43.6353   -5.6812 H   0  0  0  0  0  0
   21.3813   44.2783   -4.5900 H   0  0  0  0  0  0
   21.2346   42.4930   -2.8558 H   0  0  0  0  0  0
   20.0633   41.2540   -3.2914 H   0  0  0  0  0  0
   19.6528   42.9492   -3.4843 H   0  0  0  0  0  0
   23.1027   41.6150   -4.8569 H   0  0  0  0  0  0
   22.0121   40.3596   -4.3885 H   0  0  0  0  0  0
   22.0980   41.2672   -7.2820 H   0  0  0  0  0  0
   23.2602   40.1375   -6.6703 H   0  0  0  0  0  0
   21.5545   38.5504   -5.9978 H   0  0  0  0  0  0
   20.2569   39.6386   -6.4049 H   0  0  0  0  0  0
   22.2585   38.5209   -8.4356 H   0  0  0  0  0  0
   20.7286   37.7666   -8.0543 H   0  0  0  0  0  0
   19.5046   39.8331   -8.7453 H   0  0  0  0  0  0
   21.0353   40.5721   -9.1495 H   0  0  0  0  0  0
   21.4460   38.7466  -10.8381 H   0  0  0  0  0  0
   19.8808   38.0812  -10.4566 H   0  0  0  0  0  0
   19.6602   39.3503  -12.4463 H   0  0  0  0  0  0
   18.7793   40.2178  -11.2310 H   0  0  0  0  0  0
   21.6643   41.0477  -11.6108 H   0  0  0  0  0  0
   20.6141   41.3489  -12.9646 H   0  0  0  0  0  0
   21.9135   43.7994  -12.0181 H   0  0  0  0  0  0
   21.1544   44.8121  -10.8151 H   0  0  0  0  0  0
   24.6472   43.0918   -9.7067 H   0  0  0  0  0  0
   24.1742   44.4682  -10.6985 H   0  0  0  0  0  0
   24.0841   42.8331  -11.3463 H   0  0  0  0  0  0
   20.4997   43.0964   -8.4038 H   0  0  0  0  0  0
   23.1045   47.5332   -5.6566 H   0  0  0  0  0  0
   23.6388   48.3455   -2.4152 H   0  0  0  0  0  0
   24.8738   48.2191   -3.6056 H   0  0  0  0  0  0
   26.6545   50.2289   -1.1528 H   0  0  0  0  0  0
   26.7627   48.8708   -2.2617 H   0  0  0  0  0  0
   25.6651   48.8026   -0.8891 H   0  0  0  0  0  0
   23.5637   50.2879   -0.8390 H   0  0  0  0  0  0
   23.2543   51.4326   -2.1341 H   0  0  0  0  0  0
   24.6165   51.6752   -1.0644 H   0  0  0  0  0  0
   26.1881   51.7805   -3.0723 H   0  0  0  0  0  0
   24.8642   51.5035   -4.1927 H   0  0  0  0  0  0
   26.2655   50.4508   -4.2288 H   0  0  0  0  0  0
  1  2  1  0  0  0
  1 43  1  0  0  0
  1 44  1  0  0  0
  1 45  1  0  0  0
  2 38  1  0  0  0
  2  3  1  0  0  0
  2 28  1  0  0  0
  3  4  1  0  0  0
  3 46  1  0  0  0
  4  5  1  0  0  0
  4 47  1  0  0  0
  4 48  1  0  0  0
  5 39  1  0  0  0
  5  6  1  0  0  0
  5  7  1  0  0  0
  6 49  1  0  0  0
  7 40  1  0  0  0
  7 27  1  0  0  0
  7  8  1  0  0  0
  8  9  1  0  0  0
  8 50  1  0  0  0
  8 51  1  0  0  0
  9 41  1  0  0  0
  9 10  1  0  0  0
  9 11  1  0  0  0
 10 52  1  0  0  0
 10 53  1  0  0  0
 10 54  1  0  0  0
 11 12  1  0  0  0
 11 55  1  0  0  0
 11 56  1  0  0  0
 12 13  1  0  0  0
 12 57  1  0  0  0
 12 58  1  0  0  0
 13 14  1  0  0  0
 13 59  1  0  0  0
 13 60  1  0  0  0
 14 15  1  0  0  0
 14 61  1  0  0  0
 14 62  1  0  0  0
 15 16  1  0  0  0
 15 63  1  0  0  0
 15 64  1  0  0  0
 16 17  1  0  0  0
 16 65  1  0  0  0
 16 66  1  0  0  0
 17 18  1  0  0  0
 17 67  1  0  0  0
 17 68  1  0  0  0
 18 19  1  0  0  0
 18 69  1  0  0  0
 18 70  1  0  0  0
 19 20  2  0  0  0
 19 21  2  0  0  0
 19 22  1  0  0  0
 22 23  1  0  0  0
 22 71  1  0  0  0
 22 72  1  0  0  0
 23 42  1  0  0  0
 23 24  1  0  0  0
 23 25  1  0  0  0
 24 73  1  0  0  0
 24 74  1  0  0  0
 24 75  1  0  0  0
 25 26  2  0  0  0
 25 27  1  0  0  0
 27 76  1  0  0  0
 28 37  2  0  0  0
 28 29  1  0  0  0
 29 30  2  0  0  0
 29 77  1  0  0  0
 30 31  1  0  0  0
 30 36  1  0  0  0
 31 32  1  0  0  0
 31 78  1  0  0  0
 31 79  1  0  0  0
 32 33  1  0  0  0
 32 34  1  0  0  0
 32 35  1  0  0  0
 33 80  1  0  0  0
 33 81  1  0  0  0
 33 82  1  0  0  0
 34 83  1  0  0  0
 34 84  1  0  0  0
 34 85  1  0  0  0
 35 86  1  0  0  0
 35 87  1  0  0  0
 35 88  1  0  0  0
 36 37  1  0  0  0
M  END
> <s_m_source_file>
BACE_39.smi

> <i_m_source_file_index>
1

> <i_lp_mmshare_version>
42013

> <i_f3d_flags>
0

> <s_epik_input>
W0NIM11DKFtDSDNdKShbQ0gzXSlbQ0gyXWMob24xKVtjSF1jMVtDQEhdKFtDSDNdKVtOSF1bQ0gyXVtDQEBIXShbT0hdKVtDQEBIXShbTkhdQyg9TylbQ0BASF0oW0NIMl0yKVtDSDNdKVtDSDJdW0NASF0oW0NIM10pW0NIMl1bQ0gyXVtDSDJdW0NIMl1bQ0gyXVtDSDJdW0NIMl1bQ0gyXVMyKD1PKT1P

> <s_epik_cmdline>
J2VwaWtfcHl0aG9uJywgJy1waCcsICc3LjAnLCAnLXRuJywgJzgnLCAnLW1hJywgJzIwMCcsICctaW1hZScsICc8aW5maWxlLm1hZT4nLCAnLW9tYWUnLCAnPG91dGZpbGUubWFlPic=

> <r_epik_Ionization_Penalty>
  0.4331

> <r_epik_Ionization_Penalty_Charging>
  0.0000

> <r_epik_Ionization_Penalty_Neutral>
  0.4331

> <r_epik_State_Penalty>
  0.4347

> <r_epik_Charging_Adjusted_Penalty>
0.434651

> <i_epik_Tot_Q>
0

> <i_epik_Tot_abs_Q>
0

> <s_lp_Force_Field>
OPLS_2005

> <r_lp_Energy>
25.2403

> <b_lp_Chiralities_Consistent>
1

> <s_lp_Variant>
BACE_39.smi:1-2

> <chiral flag>
1

> <version>
0

> <s_i_glide_gridfile>
second_dock_grid_2

> <i_i_glide_lignum>
70

> <i_i_glide_rotatable_bonds>
8

> <r_i_docking_score>
-3.51326

> <r_i_glide_ligand_efficiency>
-0.094953

> <r_i_glide_ligand_efficiency_sa>
-0.316404

> <r_i_glide_ligand_efficiency_ln>
-0.761944

> <r_glide_XP_GScore>
-3.94796

> <r_i_glide_gscore>
-3.94796

> <r_i_glide_evdw>
-36.167

> <r_i_glide_ecoul>
-5.26017

> <r_i_glide_energy>
-41.4272

> <r_i_glide_einternal>
8.99806

> <r_i_glide_emodel>
-54.9755

> <r_glide_XP_HBond>
-0.7

> <i_i_glide_confnum>
1

> <i_i_glide_posenum>
16

> <r_i_glide_eff_state_penalty>
0.4347

> <i_glide_XP_PoseRank>
1

$$$$
BACE_40.smi:1
                    3D
 Structure written by MMmdl.
 89 92  0  0  1  0            999 V2000
   18.5602   51.3768   -9.4892 C   0  0  0  0  0  0
   19.9024   50.6388   -9.6187 C   0  0  0  0  0  0
   19.8110   49.2484   -9.1503 N   0  0  0  0  0  0
   20.0888   48.2287  -10.1845 C   0  0  0  0  0  0
   18.8621   47.8404  -11.0415 C   0  0  0  0  0  0
   19.1861   46.6835  -12.0102 C   0  0  0  0  0  0
   17.9779   46.0872  -12.7741 C   0  0  0  0  0  0
   16.9991   45.2258  -11.9382 C   0  0  0  0  0  0
   17.3290   43.7091  -11.8242 C   0  0  1  0  0  0
   18.7539   43.4092  -11.3240 C   0  0  0  0  0  0
   16.2644   42.8746  -11.0436 C   0  0  0  0  0  0
   15.6591   43.4791   -9.7504 C   0  0  2  0  0  0
   16.7069   44.0497   -8.9132 N   0  0  0  0  0  0
   16.5565   45.1517   -8.1711 C   0  0  0  0  0  0
   15.4923   45.7495   -8.0405 O   0  0  0  0  0  0
   17.8272   45.6961   -7.6103 C   0  0  0  0  0  0
   18.1298   47.0544   -7.8082 C   0  0  0  0  0  0
   19.3839   47.5671   -7.4286 C   0  0  0  0  0  0
   20.2862   46.7464   -6.7187 C   0  0  0  0  0  0
   19.9680   45.3942   -6.4598 C   0  0  0  0  0  0
   18.7412   44.8691   -6.9214 C   0  0  0  0  0  0
   20.9059   44.5354   -5.7467 C   0  0  0  0  0  0
   22.1842   44.7673   -5.4526 N   0  0  0  0  0  0
   22.6167   43.6262   -4.7933 C   0  0  0  0  0  0
   21.5586   42.7566   -4.7095 C   0  0  0  0  0  0
   20.4686   43.3204   -5.3097 O   0  0  0  0  0  0
   19.7515   48.9673   -7.8203 C   0  0  0  0  0  0
   19.9302   49.8087   -6.9376 O   0  0  0  0  0  0
   14.8058   42.4512   -8.9544 C   0  0  2  0  0  0
   13.7042   43.1544   -8.4087 O   0  0  0  0  0  0
   15.6172   41.6552   -7.8918 C   0  0  0  0  0  0
   14.8602   40.5420   -7.2654 N   0  3  0  0  0  0
   15.6504   39.4329   -6.6837 C   0  0  0  0  0  0
   16.7389   38.8926   -7.6051 C   0  0  0  0  0  0
   18.0561   39.3921   -7.5300 C   0  0  0  0  0  0
   19.0754   38.8872   -8.3672 C   0  0  0  0  0  0
   18.7677   37.8491   -9.2724 C   0  0  0  0  0  0
   17.4555   37.3462   -9.3479 C   0  0  0  0  0  0
   16.4408   37.8746   -8.5320 C   0  0  0  0  0  0
   20.4782   39.4817   -8.3017 C   0  0  0  0  0  0
   20.7988   40.2777   -9.5732 C   0  0  0  0  0  0
   21.5598   38.4288   -8.0234 C   0  0  0  0  0  0
   17.3090   43.3165  -12.8421 H   0  0  0  0  0  0
   15.0063   44.2869  -10.0959 H   0  0  0  0  0  0
   14.3740   41.7444   -9.6660 H   0  0  0  0  0  0
   18.6350   52.3865   -9.8949 H   0  0  0  0  0  0
   18.2462   51.4676   -8.4496 H   0  0  0  0  0  0
   17.7707   50.8577  -10.0358 H   0  0  0  0  0  0
   20.2128   50.6783  -10.6635 H   0  0  0  0  0  0
   20.6781   51.1702   -9.0625 H   0  0  0  0  0  0
   20.8843   48.5848  -10.8401 H   0  0  0  0  0  0
   20.5117   47.3302   -9.7344 H   0  0  0  0  0  0
   18.0319   47.5505  -10.4059 H   0  0  0  0  0  0
   18.5151   48.7059  -11.6074 H   0  0  0  0  0  0
   19.9084   47.0475  -12.7423 H   0  0  0  0  0  0
   19.7051   45.8996  -11.4621 H   0  0  0  0  0  0
   17.4251   46.9121  -13.2235 H   0  0  0  0  0  0
   18.3440   45.4937  -13.6122 H   0  0  0  0  0  0
   16.8881   45.6823  -10.9576 H   0  0  0  0  0  0
   16.0142   45.3044  -12.3989 H   0  0  0  0  0  0
   18.9669   43.8708  -10.3623 H   0  0  0  0  0  0
   19.4997   43.7591  -12.0378 H   0  0  0  0  0  0
   18.9151   42.3361  -11.2272 H   0  0  0  0  0  0
   15.4222   42.6791  -11.7059 H   0  0  0  0  0  0
   16.6783   41.8894  -10.8219 H   0  0  0  0  0  0
   17.6330   43.6594   -8.9954 H   0  0  0  0  0  0
   17.4199   47.6896   -8.3190 H   0  0  0  0  0  0
   21.2401   47.1435   -6.4031 H   0  0  0  0  0  0
   18.4985   43.8270   -6.7564 H   0  0  0  0  0  0
   23.6315   43.5221   -4.4387 H   0  0  0  0  0  0
   21.4297   41.7688   -4.2872 H   0  0  0  0  0  0
   12.9398   42.5905   -8.4402 H   0  0  0  0  0  0
   16.4789   41.2711   -8.4313 H   0  0  0  0  0  0
   16.0218   42.2914   -7.1054 H   0  0  0  0  0  0
   14.2981   40.9338   -6.5081 H   0  0  0  0  0  0
   16.0709   39.7511   -5.7322 H   0  0  0  0  0  0
   14.9602   38.6207   -6.4465 H   0  0  0  0  0  0
   18.2860   40.1860   -6.8398 H   0  0  0  0  0  0
   19.5331   37.4347   -9.9130 H   0  0  0  0  0  0
   17.2194   36.5514  -10.0399 H   0  0  0  0  0  0
   15.4416   37.4708   -8.5923 H   0  0  0  0  0  0
   20.5015   40.1839   -7.4676 H   0  0  0  0  0  0
   20.0717   41.0746   -9.7189 H   0  0  0  0  0  0
   20.7833   39.6426  -10.4602 H   0  0  0  0  0  0
   21.7876   40.7390   -9.5159 H   0  0  0  0  0  0
   21.3523   37.8915   -7.0981 H   0  0  0  0  0  0
   22.5418   38.8966   -7.9147 H   0  0  0  0  0  0
   21.6362   37.7054   -8.8368 H   0  0  0  0  0  0
   14.2317   40.1428   -7.9493 H   0  0  0  0  0  0
  1  2  1  0  0  0
  1 46  1  0  0  0
  1 47  1  0  0  0
  1 48  1  0  0  0
  2  3  1  0  0  0
  2 49  1  0  0  0
  2 50  1  0  0  0
  3 27  1  0  0  0
  3  4  1  0  0  0
  4  5  1  0  0  0
  4 51  1  0  0  0
  4 52  1  0  0  0
  5  6  1  0  0  0
  5 53  1  0  0  0
  5 54  1  0  0  0
  6  7  1  0  0  0
  6 55  1  0  0  0
  6 56  1  0  0  0
  7  8  1  0  0  0
  7 57  1  0  0  0
  7 58  1  0  0  0
  8  9  1  0  0  0
  8 59  1  0  0  0
  8 60  1  0  0  0
  9 43  1  0  0  0
  9 10  1  0  0  0
  9 11  1  0  0  0
 10 61  1  0  0  0
 10 62  1  0  0  0
 10 63  1  0  0  0
 11 12  1  0  0  0
 11 64  1  0  0  0
 11 65  1  0  0  0
 12 44  1  0  0  0
 12 13  1  0  0  0
 12 29  1  0  0  0
 13 14  1  0  0  0
 13 66  1  0  0  0
 14 15  2  0  0  0
 14 16  1  0  0  0
 16 21  1  0  0  0
 16 17  2  0  0  0
 17 18  1  0  0  0
 17 67  1  0  0  0
 18 19  2  0  0  0
 18 27  1  0  0  0
 19 20  1  0  0  0
 19 68  1  0  0  0
 20 21  2  0  0  0
 20 22  1  0  0  0
 21 69  1  0  0  0
 22 26  1  0  0  0
 22 23  2  0  0  0
 23 24  1  0  0  0
 24 25  2  0  0  0
 24 70  1  0  0  0
 25 26  1  0  0  0
 25 71  1  0  0  0
 27 28  2  0  0  0
 29 45  1  0  0  0
 29 30  1  0  0  0
 29 31  1  0  0  0
 30 72  1  0  0  0
 31 32  1  0  0  0
 31 73  1  0  0  0
 31 74  1  0  0  0
 32 33  1  0  0  0
 32 75  1  0  0  0
 32 89  1  0  0  0
 33 34  1  0  0  0
 33 76  1  0  0  0
 33 77  1  0  0  0
 34 39  1  0  0  0
 34 35  2  0  0  0
 35 36  1  0  0  0
 35 78  1  0  0  0
 36 37  2  0  0  0
 36 40  1  0  0  0
 37 38  1  0  0  0
 37 79  1  0  0  0
 38 39  2  0  0  0
 38 80  1  0  0  0
 39 81  1  0  0  0
 40 41  1  0  0  0
 40 42  1  0  0  0
 40 82  1  0  0  0
 41 83  1  0  0  0
 41 84  1  0  0  0
 41 85  1  0  0  0
 42 86  1  0  0  0
 42 87  1  0  0  0
 42 88  1  0  0  0
M  CHG  1  32   1
M  END
> <s_m_source_file>
BACE_40.smi

> <i_m_source_file_index>
1

> <i_lp_mmshare_version>
42013

> <i_f3d_flags>
0

> <s_epik_input>
bzFbY0hdW2NIXW5jMS1jKFtjSF0yKVtjSF1jKFtjSF1jMjMpQyg9TylOKFtDSDJdW0NIM10pW0NIMl1bQ0gyXVtDSDJdW0NIMl1bQ0gyXVtDQEBIXShbQ0gzXSlbQ0gyXVtDQEhdKFtOSF1DMz1PKVtDQEhdKFtPSF0pW0NIMl1bTkhdW0NIMl1jNFtjSF1jKFtDSF0oW0NIM10pW0NIM10pW2NIXVtjSF1bY0hdNA==

> <s_epik_cmdline>
J2VwaWtfcHl0aG9uJywgJy1waCcsICc3LjAnLCAnLXRuJywgJzgnLCAnLW1hJywgJzIwMCcsICctaW1hZScsICc8aW5maWxlLm1hZT4nLCAnLW9tYWUnLCAnPG91dGZpbGUubWFlPic=

> <r_epik_Ionization_Penalty>
  0.0165

> <r_epik_Ionization_Penalty_Charging>
  0.0165

> <r_epik_Ionization_Penalty_Neutral>
  0.0000

> <r_epik_State_Penalty>
  0.0130

> <r_epik_Charging_Adjusted_Penalty>
0.0295552

> <i_epik_Tot_Q>
1

> <i_epik_Tot_abs_Q>
1

> <s_lp_Force_Field>
OPLS_2005

> <r_lp_Energy>
47.8025

> <b_lp_Chiralities_Consistent>
1

> <s_lp_Variant>
BACE_40.smi:1-1

> <chiral flag>
1

> <version>
0

> <s_i_glide_gridfile>
second_dock_grid_2

> <i_i_glide_lignum>
71

> <i_i_glide_rotatable_bonds>
9

> <r_i_docking_score>
-6.08046

> <r_i_glide_ligand_efficiency>
-0.144773

> <r_i_glide_ligand_efficiency_sa>
-0.503234

> <r_i_glide_ligand_efficiency_ln>
-1.28343

> <r_glide_XP_GScore>
-6.09346

> <r_i_glide_gscore>
-6.09346

> <r_i_glide_evdw>
-40.5323

> <r_i_glide_ecoul>
-14.8803

> <r_i_glide_energy>
-55.4125

> <r_i_glide_einternal>
4.9293

> <r_i_glide_emodel>
-78.8977

> <r_glide_XP_HBond>
-2.01317

> <i_i_glide_confnum>
1

> <i_i_glide_posenum>
6

> <r_i_glide_eff_state_penalty>
0.013

> <i_glide_XP_PoseRank>
1

$$$$
BACE_40.smi:1
                    3D
 Structure written by MMmdl.
 88 91  0  0  1  0            999 V2000
   17.4980   51.8068  -10.7897 C   0  0  0  0  0  0
   18.8567   51.4466  -10.1672 C   0  0  0  0  0  0
   18.8705   50.0809   -9.6173 N   0  0  0  0  0  0
   19.4490   49.0451  -10.4995 C   0  0  0  0  0  0
   18.3825   48.2484  -11.2897 C   0  0  0  0  0  0
   18.9815   47.0387  -12.0312 C   0  0  0  0  0  0
   17.9470   46.1439  -12.7530 C   0  0  0  0  0  0
   17.0904   45.2342  -11.8422 C   0  0  0  0  0  0
   17.6701   43.8191  -11.5509 C   0  0  1  0  0  0
   19.0539   43.8391  -10.8736 C   0  0  0  0  0  0
   16.6770   42.8673  -10.8194 C   0  0  0  0  0  0
   15.8928   43.4216   -9.5996 C   0  0  2  0  0  0
   16.7765   44.1601   -8.6988 N   0  0  0  0  0  0
   16.4227   45.3121   -8.1159 C   0  0  0  0  0  0
   15.2615   45.7162   -8.0401 O   0  0  0  0  0  0
   17.5523   46.2108   -7.7252 C   0  0  0  0  0  0
   17.4463   47.5744   -8.0472 C   0  0  0  0  0  0
   18.5169   48.4512   -7.8285 C   0  0  0  0  0  0
   19.6766   47.9803   -7.1752 C   0  0  0  0  0  0
   19.7807   46.6214   -6.7966 C   0  0  0  0  0  0
   18.7177   45.7325   -7.0839 C   0  0  0  0  0  0
   20.9980   46.1351   -6.1506 C   0  0  0  0  0  0
   22.0594   46.8377   -5.7487 N   0  0  0  0  0  0
   22.9474   45.9012   -5.2399 C   0  0  0  0  0  0
   22.3614   44.6675   -5.3388 C   0  0  0  0  0  0
   21.1258   44.7994   -5.9148 O   0  0  0  0  0  0
   18.4185   49.8488   -8.3550 C   0  0  0  0  0  0
   17.9059   50.7196   -7.6466 O   0  0  0  0  0  0
   15.0996   42.3261   -8.8434 C   0  0  2  0  0  0
   14.1220   42.9502   -8.0401 O   0  0  0  0  0  0
   15.9603   41.4299   -7.9332 C   0  0  0  0  0  0
   15.3408   40.1165   -7.7500 N   0  0  0  0  0  0
   16.1712   39.1635   -7.0177 C   0  0  0  0  0  0
   17.4244   38.7794   -7.7860 C   0  0  0  0  0  0
   18.6698   39.3561   -7.4564 C   0  0  0  0  0  0
   19.8253   39.0564   -8.2098 C   0  0  0  0  0  0
   19.7228   38.1498   -9.2888 C   0  0  0  0  0  0
   18.4818   37.5703   -9.6135 C   0  0  0  0  0  0
   17.3340   37.8838   -8.8661 C   0  0  0  0  0  0
   21.1514   39.7191   -7.8420 C   0  0  0  0  0  0
   22.1022   39.9104   -9.0377 C   0  0  0  0  0  0
   21.8439   38.9703   -6.6967 C   0  0  0  0  0  0
   17.8400   43.3518  -12.5219 H   0  0  0  0  0  0
   15.1603   44.1142  -10.0201 H   0  0  0  0  0  0
   14.5774   41.7116   -9.5793 H   0  0  0  0  0  0
   17.4954   52.8455  -11.1288 H   0  0  0  0  0  0
   16.6748   51.6911  -10.0789 H   0  0  0  0  0  0
   17.2869   51.1799  -11.6608 H   0  0  0  0  0  0
   19.6393   51.5719  -10.9191 H   0  0  0  0  0  0
   19.0996   52.1727   -9.3877 H   0  0  0  0  0  0
   20.1489   49.4920  -11.2058 H   0  0  0  0  0  0
   20.0698   48.3597   -9.9184 H   0  0  0  0  0  0
   17.5927   47.9064  -10.6257 H   0  0  0  0  0  0
   17.8945   48.9038  -12.0106 H   0  0  0  0  0  0
   19.6881   47.4137  -12.7728 H   0  0  0  0  0  0
   19.5725   46.4484  -11.3356 H   0  0  0  0  0  0
   17.2812   46.7888  -13.3289 H   0  0  0  0  0  0
   18.4594   45.5286  -13.4940 H   0  0  0  0  0  0
   16.8626   45.7579  -10.9167 H   0  0  0  0  0  0
   16.1274   45.0892  -12.3359 H   0  0  0  0  0  0
   19.0733   44.4676   -9.9849 H   0  0  0  0  0  0
   19.8175   44.2100  -11.5583 H   0  0  0  0  0  0
   19.3677   42.8380  -10.5806 H   0  0  0  0  0  0
   15.9399   42.5229  -11.5445 H   0  0  0  0  0  0
   17.2107   41.9624  -10.5273 H   0  0  0  0  0  0
   17.7552   43.9118   -8.7146 H   0  0  0  0  0  0
   16.5582   47.9386   -8.5454 H   0  0  0  0  0  0
   20.5019   48.6546   -6.9969 H   0  0  0  0  0  0
   18.7971   44.6853   -6.8284 H   0  0  0  0  0  0
   23.9105   46.1780   -4.8380 H   0  0  0  0  0  0
   22.6675   43.6682   -5.0651 H   0  0  0  0  0  0
   14.4584   42.9501   -7.1476 H   0  0  0  0  0  0
   16.9362   41.3023   -8.4010 H   0  0  0  0  0  0
   16.1500   41.9043   -6.9650 H   0  0  0  0  0  0
   14.4603   40.2316   -7.2470 H   0  0  0  0  0  0
   16.4433   39.5587   -6.0383 H   0  0  0  0  0  0
   15.5908   38.2564   -6.8412 H   0  0  0  0  0  0
   18.7342   40.0536   -6.6341 H   0  0  0  0  0  0
   20.5867   37.8811   -9.8792 H   0  0  0  0  0  0
   18.4111   36.8832  -10.4399 H   0  0  0  0  0  0
   16.3793   37.4490   -9.1268 H   0  0  0  0  0  0
   20.9088   40.7196   -7.4755 H   0  0  0  0  0  0
   21.6100   40.4470   -9.8467 H   0  0  0  0  0  0
   22.4611   38.9589   -9.4308 H   0  0  0  0  0  0
   22.9814   40.4876   -8.7512 H   0  0  0  0  0  0
   21.2158   38.9521   -5.8062 H   0  0  0  0  0  0
   22.7856   39.4492   -6.4307 H   0  0  0  0  0  0
   22.0571   37.9389   -6.9757 H   0  0  0  0  0  0
  1  2  1  0  0  0
  1 46  1  0  0  0
  1 47  1  0  0  0
  1 48  1  0  0  0
  2  3  1  0  0  0
  2 49  1  0  0  0
  2 50  1  0  0  0
  3 27  1  0  0  0
  3  4  1  0  0  0
  4  5  1  0  0  0
  4 51  1  0  0  0
  4 52  1  0  0  0
  5  6  1  0  0  0
  5 53  1  0  0  0
  5 54  1  0  0  0
  6  7  1  0  0  0
  6 55  1  0  0  0
  6 56  1  0  0  0
  7  8  1  0  0  0
  7 57  1  0  0  0
  7 58  1  0  0  0
  8  9  1  0  0  0
  8 59  1  0  0  0
  8 60  1  0  0  0
  9 43  1  0  0  0
  9 10  1  0  0  0
  9 11  1  0  0  0
 10 61  1  0  0  0
 10 62  1  0  0  0
 10 63  1  0  0  0
 11 12  1  0  0  0
 11 64  1  0  0  0
 11 65  1  0  0  0
 12 44  1  0  0  0
 12 13  1  0  0  0
 12 29  1  0  0  0
 13 14  1  0  0  0
 13 66  1  0  0  0
 14 15  2  0  0  0
 14 16  1  0  0  0
 16 21  1  0  0  0
 16 17  2  0  0  0
 17 18  1  0  0  0
 17 67  1  0  0  0
 18 19  2  0  0  0
 18 27  1  0  0  0
 19 20  1  0  0  0
 19 68  1  0  0  0
 20 21  2  0  0  0
 20 22  1  0  0  0
 21 69  1  0  0  0
 22 26  1  0  0  0
 22 23  2  0  0  0
 23 24  1  0  0  0
 24 25  2  0  0  0
 24 70  1  0  0  0
 25 26  1  0  0  0
 25 71  1  0  0  0
 27 28  2  0  0  0
 29 45  1  0  0  0
 29 30  1  0  0  0
 29 31  1  0  0  0
 30 72  1  0  0  0
 31 32  1  0  0  0
 31 73  1  0  0  0
 31 74  1  0  0  0
 32 33  1  0  0  0
 32 75  1  0  0  0
 33 34  1  0  0  0
 33 76  1  0  0  0
 33 77  1  0  0  0
 34 39  1  0  0  0
 34 35  2  0  0  0
 35 36  1  0  0  0
 35 78  1  0  0  0
 36 37  2  0  0  0
 36 40  1  0  0  0
 37 38  1  0  0  0
 37 79  1  0  0  0
 38 39  2  0  0  0
 38 80  1  0  0  0
 39 81  1  0  0  0
 40 41  1  0  0  0
 40 42  1  0  0  0
 40 82  1  0  0  0
 41 83  1  0  0  0
 41 84  1  0  0  0
 41 85  1  0  0  0
 42 86  1  0  0  0
 42 87  1  0  0  0
 42 88  1  0  0  0
M  END
> <s_m_source_file>
BACE_40.smi

> <i_m_source_file_index>
1

> <i_lp_mmshare_version>
42013

> <i_f3d_flags>
0

> <s_epik_input>
bzFbY0hdW2NIXW5jMS1jKFtjSF0yKVtjSF1jKFtjSF1jMjMpQyg9TylOKFtDSDJdW0NIM10pW0NIMl1bQ0gyXVtDSDJdW0NIMl1bQ0gyXVtDQEBIXShbQ0gzXSlbQ0gyXVtDQEhdKFtOSF1DMz1PKVtDQEhdKFtPSF0pW0NIMl1bTkhdW0NIMl1jNFtjSF1jKFtDSF0oW0NIM10pW0NIM10pW2NIXVtjSF1bY0hdNA==

> <s_epik_cmdline>
J2VwaWtfcHl0aG9uJywgJy1waCcsICc3LjAnLCAnLXRuJywgJzgnLCAnLW1hJywgJzIwMCcsICctaW1hZScsICc8aW5maWxlLm1hZT4nLCAnLW9tYWUnLCAnPG91dGZpbGUubWFlPic=

> <r_epik_Ionization_Penalty>
  2.1294

> <r_epik_Ionization_Penalty_Charging>
  0.0000

> <r_epik_Ionization_Penalty_Neutral>
  2.1294

> <r_epik_State_Penalty>
  2.2676

> <r_epik_Charging_Adjusted_Penalty>
2.26762

> <i_epik_Tot_Q>
0

> <i_epik_Tot_abs_Q>
0

> <s_lp_Force_Field>
OPLS_2005

> <r_lp_Energy>
58.3973

> <b_lp_Chiralities_Consistent>
1

> <s_lp_Variant>
BACE_40.smi:1-2

> <chiral flag>
1

> <version>
0

> <s_i_glide_gridfile>
second_dock_grid_2

> <i_i_glide_lignum>
72

> <i_i_glide_rotatable_bonds>
9

> <r_i_docking_score>
-2.86156

> <r_i_glide_ligand_efficiency>
-0.0681323

> <r_i_glide_ligand_efficiency_sa>
-0.23683

> <r_i_glide_ligand_efficiency_ln>
-0.604001

> <r_glide_XP_GScore>
-5.12916

> <r_i_glide_gscore>
-5.12916

> <r_i_glide_evdw>
-39.7336

> <r_i_glide_ecoul>
-11.3857

> <r_i_glide_energy>
-51.1192

> <r_i_glide_einternal>
6.83379

> <r_i_glide_emodel>
-69.6236

> <r_glide_XP_HBond>
-1.51918

> <i_i_glide_confnum>
1

> <i_i_glide_posenum>
9

> <r_i_glide_eff_state_penalty>
2.2676

> <i_glide_XP_PoseRank>
1

$$$$
