BACE_103.smi:1
                    3D
 Structure written by MMmdl.
 76 79  0  0  1  0            999 V2000
   19.8709   47.2309   -7.9706 C   0  0  0  0  0  0
   20.4676   48.3217   -7.0600 C   0  0  0  0  0  0
   21.1312   49.3892   -7.9519 C   0  0  0  0  0  0
   19.3024   48.9499   -6.2801 C   0  0  0  0  0  0
   21.4992   47.7708   -6.0657 C   0  0  0  0  0  0
   22.0596   48.6191   -5.0819 C   0  0  0  0  0  0
   22.9740   48.0874   -4.1566 C   0  0  0  0  0  0
   23.3441   46.7919   -4.1505 N   0  0  0  0  0  0
   22.8613   45.9921   -5.1234 C   0  0  0  0  0  0
   23.3660   44.5654   -5.1241 C   0  0  0  0  0  0
   22.6145   43.7254   -4.1634 N   0  3  0  0  0  0
   21.5678   42.8682   -4.7548 C   0  0  0  0  0  0
   22.2029   41.6687   -5.4989 C   0  0  1  0  0  0
   22.8595   40.8916   -4.5133 O   0  0  0  0  0  0
   21.2360   40.7526   -6.2929 C   0  0  2  0  0  0
   21.9684   39.9036   -7.3732 C   0  0  0  0  0  0
   21.0611   39.3771   -8.4760 C   0  0  0  0  0  0
   21.2228   39.8218   -9.8051 C   0  0  0  0  0  0
   20.3153   39.4077  -10.7983 C   0  0  0  0  0  0
   19.2528   38.5469  -10.4650 C   0  0  0  0  0  0
   19.1015   38.0693   -9.1447 C   0  0  0  0  0  0
   20.0160   38.4865   -8.1592 C   0  0  0  0  0  0
   18.1039   37.1996   -8.7659 O   0  0  0  0  0  0
   16.8141   37.3633   -9.3455 C   0  0  0  0  0  0
   16.2287   38.7112   -8.9789 C   0  0  0  0  0  0
   15.6002   38.9595   -7.8178 C   0  0  0  0  0  0
   15.0881   40.3086   -7.3429 C   0  0  0  0  0  0
   15.1156   41.3706   -8.3465 N   0  0  0  0  0  0
   16.2088   42.2403   -8.4223 C   0  0  0  0  0  0
   17.5106   41.8489   -8.0400 C   0  0  0  0  0  0
   18.5718   42.7763   -8.1468 C   0  0  0  0  0  0
   18.2783   44.0533   -8.6699 C   0  0  0  0  0  0
   16.9492   44.3572   -9.0208 C   0  0  0  0  0  0
   16.5900   45.9369   -9.6131 Cl  0  0  0  0  0  0
   15.9375   43.4704   -8.9073 N   0  0  0  0  0  0
   19.9762   42.4107   -7.7462 C   0  0  0  0  0  0
   20.9566   42.9957   -8.2064 O   0  0  0  0  0  0
   20.0562   41.4496   -6.8120 N   0  0  0  0  0  0
   21.9266   46.4220   -6.0835 C   0  0  0  0  0  0
   22.9516   42.0439   -6.1954 H   0  0  0  0  0  0
   20.7844   40.0500   -5.5896 H   0  0  0  0  0  0
   19.1202   47.6447   -8.6444 H   0  0  0  0  0  0
   19.3826   46.4516   -7.3830 H   0  0  0  0  0  0
   20.6318   46.7610   -8.5927 H   0  0  0  0  0  0
   21.9669   48.9677   -8.5136 H   0  0  0  0  0  0
   21.5171   50.2245   -7.3668 H   0  0  0  0  0  0
   20.4254   49.7993   -8.6769 H   0  0  0  0  0  0
   18.5478   49.3668   -6.9475 H   0  0  0  0  0  0
   19.6585   49.7527   -5.6385 H   0  0  0  0  0  0
   18.8116   48.2161   -5.6399 H   0  0  0  0  0  0
   21.7910   49.6621   -5.0160 H   0  0  0  0  0  0
   23.4012   48.7139   -3.3882 H   0  0  0  0  0  0
   23.3375   44.1680   -6.1380 H   0  0  0  0  0  0
   24.4170   44.5730   -4.8412 H   0  0  0  0  0  0
   23.2740   43.1137   -3.7012 H   0  0  0  0  0  0
   20.9091   42.5116   -3.9620 H   0  0  0  0  0  0
   20.9567   43.4942   -5.4030 H   0  0  0  0  0  0
   22.2198   40.3719   -4.0453 H   0  0  0  0  0  0
   22.7535   40.4983   -7.8443 H   0  0  0  0  0  0
   22.4775   39.0617   -6.9018 H   0  0  0  0  0  0
   22.0201   40.5028  -10.0631 H   0  0  0  0  0  0
   20.4257   39.7570  -11.8159 H   0  0  0  0  0  0
   18.5715   38.2426  -11.2410 H   0  0  0  0  0  0
   19.8889   38.1406   -7.1439 H   0  0  0  0  0  0
   16.8160   37.2266  -10.4278 H   0  0  0  0  0  0
   16.1710   36.5815   -8.9375 H   0  0  0  0  0  0
   16.4160   39.5118   -9.6771 H   0  0  0  0  0  0
   15.4659   38.1502   -7.1146 H   0  0  0  0  0  0
   14.0600   40.1656   -7.0162 H   0  0  0  0  0  0
   15.6399   40.6116   -6.4505 H   0  0  0  0  0  0
   14.2172   41.7178   -8.6482 H   0  0  0  0  0  0
   17.6859   40.8476   -7.6752 H   0  0  0  0  0  0
   19.0573   44.7888   -8.8033 H   0  0  0  0  0  0
   19.1637   41.1185   -6.4624 H   0  0  0  0  0  0
   21.5661   45.7148   -6.8161 H   0  0  0  0  0  0
   22.1920   44.3331   -3.4720 H   0  0  0  0  0  0
  1  2  1  0  0  0
  1 42  1  0  0  0
  1 43  1  0  0  0
  1 44  1  0  0  0
  2  3  1  0  0  0
  2  4  1  0  0  0
  2  5  1  0  0  0
  3 45  1  0  0  0
  3 46  1  0  0  0
  3 47  1  0  0  0
  4 48  1  0  0  0
  4 49  1  0  0  0
  4 50  1  0  0  0
  5 39  1  0  0  0
  5  6  2  0  0  0
  6  7  1  0  0  0
  6 51  1  0  0  0
  7  8  2  0  0  0
  7 52  1  0  0  0
  8  9  1  0  0  0
  9 10  1  0  0  0
  9 39  2  0  0  0
 10 11  1  0  0  0
 10 53  1  0  0  0
 10 54  1  0  0  0
 11 12  1  0  0  0
 11 55  1  0  0  0
 11 76  1  0  0  0
 12 13  1  0  0  0
 12 56  1  0  0  0
 12 57  1  0  0  0
 13 40  1  0  0  0
 13 14  1  0  0  0
 13 15  1  0  0  0
 14 58  1  0  0  0
 15 41  1  0  0  0
 15 38  1  0  0  0
 15 16  1  0  0  0
 16 17  1  0  0  0
 16 59  1  0  0  0
 16 60  1  0  0  0
 17 22  1  0  0  0
 17 18  2  0  0  0
 18 19  1  0  0  0
 18 61  1  0  0  0
 19 20  2  0  0  0
 19 62  1  0  0  0
 20 21  1  0  0  0
 20 63  1  0  0  0
 21 22  2  0  0  0
 21 23  1  0  0  0
 22 64  1  0  0  0
 23 24  1  0  0  0
 24 25  1  0  0  0
 24 65  1  0  0  0
 24 66  1  0  0  0
 25 26  2  0  0  0
 25 67  1  0  0  0
 26 27  1  0  0  0
 26 68  1  0  0  0
 27 28  1  0  0  0
 27 69  1  0  0  0
 27 70  1  0  0  0
 28 29  1  0  0  0
 28 71  1  0  0  0
 29 35  1  0  0  0
 29 30  2  0  0  0
 30 31  1  0  0  0
 30 72  1  0  0  0
 31 32  2  0  0  0
 31 36  1  0  0  0
 32 33  1  0  0  0
 32 73  1  0  0  0
 33 34  1  0  0  0
 33 35  2  0  0  0
 36 37  2  0  0  0
 36 38  1  0  0  0
 38 74  1  0  0  0
 39 75  1  0  0  0
M  CHG  1  11   1
M  END
> <s_m_source_file>
BACE_103.smi

> <i_m_source_file_index>
1

> <i_lp_mmshare_version>
42013

> <i_f3d_flags>
0

> <s_epik_input>
W0NIM11DKFtDSDNdKShbQ0gzXSljMVtjSF1bY0hdbmMoW2NIXTEpW0NIMl1bTkhdW0NIMl1bQ0BASF0oW09IXSlbQ0BIXShbQ0gyXTIpW05IXUMoPU8pYyhbY0hdYyhDbCluMylbY0hdYzNbTkhdW0NIMl1cW0NIXT1bQ0hdXFtDSDJdT2MoW2NIXTQpW2NIXVtjSF1bY0hdYzI0

> <s_epik_cmdline>
J2VwaWtfcHl0aG9uJywgJy1waCcsICc3LjAnLCAnLXRuJywgJzgnLCAnLW1hJywgJzIwMCcsICctaW1hZScsICc8aW5maWxlLm1hZT4nLCAnLW9tYWUnLCAnPG91dGZpbGUubWFlPic=

> <r_lp_tautomer_probability>
1

> <r_epik_Ionization_Penalty>
  0.0399

> <r_epik_Ionization_Penalty_Charging>
  0.0397

> <r_epik_Ionization_Penalty_Neutral>
  0.0002

> <r_epik_State_Penalty>
  0.0334

> <r_epik_Charging_Adjusted_Penalty>
0.0730985

> <i_epik_Tot_Q>
1

> <i_epik_Tot_abs_Q>
1

> <s_lp_Force_Field>
OPLS_2005

> <r_lp_Energy>
23.177

> <b_lp_Chiralities_Consistent>
1

> <s_lp_Variant>
BACE_103.smi:1-1

> <chiral flag>
1

> <version>
0

> <s_i_glide_gridfile>
second_dock_grid_2

> <i_i_glide_lignum>
210

> <i_i_glide_rotatable_bonds>
7

> <r_i_docking_score>
-2.95357

> <r_i_glide_ligand_efficiency>
-0.0757326

> <r_i_glide_ligand_efficiency_sa>
-0.256825

> <r_i_glide_ligand_efficiency_ln>
-0.63333

> <r_glide_XP_GScore>
-2.98697

> <r_i_glide_gscore>
-2.98697

> <r_i_glide_evdw>
-41.7788

> <r_i_glide_ecoul>
-11.0499

> <r_i_glide_energy>
-52.8287

> <r_i_glide_einternal>
5.889

> <r_i_glide_emodel>
-74.9083

> <r_glide_XP_HBond>
-0.988443

> <i_i_glide_confnum>
1

> <i_i_glide_posenum>
1

> <r_i_glide_eff_state_penalty>
0.0334

> <i_glide_XP_PoseRank>
1

$$$$
BACE_103.smi:1
                    3D
 Structure written by MMmdl.
 75 78  0  0  1  0            999 V2000
   25.6506   50.8024   -3.2696 C   0  0  0  0  0  0
   24.4452   50.1417   -2.5798 C   0  0  0  0  0  0
   24.9406   48.9708   -1.7018 C   0  0  0  0  0  0
   23.7893   51.1708   -1.6363 C   0  0  0  0  0  0
   23.4657   49.6358   -3.6524 C   0  0  0  0  0  0
   22.2529   50.3023   -3.9497 C   0  0  0  0  0  0
   21.3941   49.7592   -4.9236 C   0  0  0  0  0  0
   21.6660   48.6367   -5.6122 N   0  0  0  0  0  0
   22.8258   48.0026   -5.3433 C   0  0  0  0  0  0
   23.0818   46.7242   -6.1117 C   0  0  0  0  0  0
   22.6666   45.5442   -5.3525 N   0  0  0  0  0  0
   21.9038   44.5987   -6.1681 C   0  0  0  0  0  0
   21.5039   43.3485   -5.3651 C   0  0  1  0  0  0
   20.5108   43.7470   -4.4397 O   0  0  0  0  0  0
   20.9315   42.1662   -6.1914 C   0  0  2  0  0  0
   21.9511   41.4454   -7.1243 C   0  0  0  0  0  0
   21.3299   40.4805   -8.1339 C   0  0  0  0  0  0
   21.6213   40.6085   -9.5093 C   0  0  0  0  0  0
   20.9896   39.7724  -10.4502 C   0  0  0  0  0  0
   20.0519   38.8123  -10.0266 C   0  0  0  0  0  0
   19.7592   38.6691   -8.6506 C   0  0  0  0  0  0
   20.4249   39.4834   -7.7130 C   0  0  0  0  0  0
   18.8608   37.7502   -8.1643 O   0  0  0  0  0  0
   17.6255   37.5812   -8.8541 C   0  0  0  0  0  0
   16.7399   38.7963   -8.6756 C   0  0  0  0  0  0
   15.9014   38.9532   -7.6346 C   0  0  0  0  0  0
   15.0389   40.1660   -7.3236 C   0  0  0  0  0  0
   14.8664   41.1169   -8.4184 N   0  0  0  0  0  0
   15.7937   42.1401   -8.6484 C   0  0  0  0  0  0
   17.1005   42.1275   -8.1108 C   0  0  0  0  0  0
   17.9982   43.1640   -8.4501 C   0  0  0  0  0  0
   17.5360   44.1790   -9.3120 C   0  0  0  0  0  0
   16.2153   44.1163   -9.7907 C   0  0  0  0  0  0
   15.6598   45.3482  -10.8628 Cl  0  0  0  0  0  0
   15.3637   43.1213   -9.4695 N   0  0  0  0  0  0
   19.4306   43.1463   -7.9889 C   0  0  0  0  0  0
   20.3125   43.7147   -8.6350 O   0  0  0  0  0  0
   19.6576   42.4916   -6.8399 N   0  0  0  0  0  0
   23.7520   48.4619   -4.3877 C   0  0  0  0  0  0
   22.3643   42.9856   -4.8019 H   0  0  0  0  0  0
   20.6375   41.4092   -5.4629 H   0  0  0  0  0  0
   26.3724   51.1671   -2.5401 H   0  0  0  0  0  0
   25.3405   51.6511   -3.8801 H   0  0  0  0  0  0
   26.1730   50.0987   -3.9196 H   0  0  0  0  0  0
   25.5236   48.2496   -2.2723 H   0  0  0  0  0  0
   24.1069   48.4400   -1.2424 H   0  0  0  0  0  0
   25.5906   49.3239   -0.9011 H   0  0  0  0  0  0
   24.4390   51.4231   -0.7983 H   0  0  0  0  0  0
   22.8593   50.7709   -1.2400 H   0  0  0  0  0  0
   23.5513   52.1089   -2.1337 H   0  0  0  0  0  0
   21.9468   51.2012   -3.4385 H   0  0  0  0  0  0
   20.4598   50.2464   -5.1612 H   0  0  0  0  0  0
   22.5429   46.7903   -7.0585 H   0  0  0  0  0  0
   24.1393   46.6571   -6.3714 H   0  0  0  0  0  0
   23.4953   45.0719   -5.0034 H   0  0  0  0  0  0
   21.0118   45.0805   -6.5748 H   0  0  0  0  0  0
   22.5086   44.3058   -7.0266 H   0  0  0  0  0  0
   20.8602   44.4336   -3.8804 H   0  0  0  0  0  0
   22.5260   42.1866   -7.6785 H   0  0  0  0  0  0
   22.6744   40.8970   -6.5200 H   0  0  0  0  0  0
   22.3173   41.3591   -9.8552 H   0  0  0  0  0  0
   21.2169   39.8769  -11.5012 H   0  0  0  0  0  0
   19.5800   38.1801  -10.7634 H   0  0  0  0  0  0
   20.1955   39.3687   -6.6645 H   0  0  0  0  0  0
   17.7474   37.3475   -9.9121 H   0  0  0  0  0  0
   17.1243   36.7178   -8.4144 H   0  0  0  0  0  0
   16.8614   39.5809   -9.4057 H   0  0  0  0  0  0
   15.8394   38.1634   -6.9003 H   0  0  0  0  0  0
   14.0580   39.7939   -7.0350 H   0  0  0  0  0  0
   15.4283   40.6717   -6.4374 H   0  0  0  0  0  0
   13.9268   41.2050   -8.7861 H   0  0  0  0  0  0
   17.4188   41.3164   -7.4733 H   0  0  0  0  0  0
   18.1901   44.9826   -9.6173 H   0  0  0  0  0  0
   18.8383   42.1359   -6.3570 H   0  0  0  0  0  0
   24.6617   47.9043   -4.2314 H   0  0  0  0  0  0
  1  2  1  0  0  0
  1 42  1  0  0  0
  1 43  1  0  0  0
  1 44  1  0  0  0
  2  3  1  0  0  0
  2  4  1  0  0  0
  2  5  1  0  0  0
  3 45  1  0  0  0
  3 46  1  0  0  0
  3 47  1  0  0  0
  4 48  1  0  0  0
  4 49  1  0  0  0
  4 50  1  0  0  0
  5 39  1  0  0  0
  5  6  2  0  0  0
  6  7  1  0  0  0
  6 51  1  0  0  0
  7  8  2  0  0  0
  7 52  1  0  0  0
  8  9  1  0  0  0
  9 10  1  0  0  0
  9 39  2  0  0  0
 10 11  1  0  0  0
 10 53  1  0  0  0
 10 54  1  0  0  0
 11 12  1  0  0  0
 11 55  1  0  0  0
 12 13  1  0  0  0
 12 56  1  0  0  0
 12 57  1  0  0  0
 13 40  1  0  0  0
 13 14  1  0  0  0
 13 15  1  0  0  0
 14 58  1  0  0  0
 15 41  1  0  0  0
 15 38  1  0  0  0
 15 16  1  0  0  0
 16 17  1  0  0  0
 16 59  1  0  0  0
 16 60  1  0  0  0
 17 22  1  0  0  0
 17 18  2  0  0  0
 18 19  1  0  0  0
 18 61  1  0  0  0
 19 20  2  0  0  0
 19 62  1  0  0  0
 20 21  1  0  0  0
 20 63  1  0  0  0
 21 22  2  0  0  0
 21 23  1  0  0  0
 22 64  1  0  0  0
 23 24  1  0  0  0
 24 25  1  0  0  0
 24 65  1  0  0  0
 24 66  1  0  0  0
 25 26  2  0  0  0
 25 67  1  0  0  0
 26 27  1  0  0  0
 26 68  1  0  0  0
 27 28  1  0  0  0
 27 69  1  0  0  0
 27 70  1  0  0  0
 28 29  1  0  0  0
 28 71  1  0  0  0
 29 35  1  0  0  0
 29 30  2  0  0  0
 30 31  1  0  0  0
 30 72  1  0  0  0
 31 32  2  0  0  0
 31 36  1  0  0  0
 32 33  1  0  0  0
 32 73  1  0  0  0
 33 34  1  0  0  0
 33 35  2  0  0  0
 36 37  2  0  0  0
 36 38  1  0  0  0
 38 74  1  0  0  0
 39 75  1  0  0  0
M  END
> <s_m_source_file>
BACE_103.smi

> <i_m_source_file_index>
1

> <i_lp_mmshare_version>
42013

> <i_f3d_flags>
0

> <s_epik_input>
W0NIM11DKFtDSDNdKShbQ0gzXSljMVtjSF1bY0hdbmMoW2NIXTEpW0NIMl1bTkhdW0NIMl1bQ0BASF0oW09IXSlbQ0BIXShbQ0gyXTIpW05IXUMoPU8pYyhbY0hdYyhDbCluMylbY0hdYzNbTkhdW0NIMl1cW0NIXT1bQ0hdXFtDSDJdT2MoW2NIXTQpW2NIXVtjSF1bY0hdYzI0

> <s_epik_cmdline>
J2VwaWtfcHl0aG9uJywgJy1waCcsICc3LjAnLCAnLXRuJywgJzgnLCAnLW1hJywgJzIwMCcsICctaW1hZScsICc8aW5maWxlLm1hZT4nLCAnLW9tYWUnLCAnPG91dGZpbGUubWFlPic=

> <r_lp_tautomer_probability>
1

> <r_epik_Ionization_Penalty>
  1.6227

> <r_epik_Ionization_Penalty_Charging>
  0.0000

> <r_epik_Ionization_Penalty_Neutral>
  1.6227

> <r_epik_State_Penalty>
  1.7208

> <r_epik_Charging_Adjusted_Penalty>
1.72075

> <i_epik_Tot_Q>
0

> <i_epik_Tot_abs_Q>
0

> <s_lp_Force_Field>
OPLS_2005

> <r_lp_Energy>
31.2268

> <b_lp_Chiralities_Consistent>
1

> <s_lp_Variant>
BACE_103.smi:1-2

> <chiral flag>
1

> <version>
0

> <s_i_glide_gridfile>
second_dock_grid_2

> <i_i_glide_lignum>
211

> <i_i_glide_rotatable_bonds>
7

> <r_i_docking_score>
-2.66077

> <r_i_glide_ligand_efficiency>
-0.068225

> <r_i_glide_ligand_efficiency_sa>
-0.231365

> <r_i_glide_ligand_efficiency_ln>
-0.570545

> <r_glide_XP_GScore>
-4.38157

> <r_i_glide_gscore>
-4.38157

> <r_i_glide_evdw>
-42.5422

> <r_i_glide_ecoul>
-12.5043

> <r_i_glide_energy>
-55.0465

> <r_i_glide_einternal>
9.43169

> <r_i_glide_emodel>
-70.8678

> <r_glide_XP_HBond>
-1.89

> <i_i_glide_confnum>
1

> <i_i_glide_posenum>
4

> <r_i_glide_eff_state_penalty>
1.7208

> <i_glide_XP_PoseRank>
1

$$$$
BACE_104.smi:1
                    3D
 Structure written by MMmdl.
 52 54  0  0  1  0            999 V2000
   20.4601   41.8315   -3.3190 N   0  3  0  0  0  0
   21.3703   42.5636   -4.2154 C   0  0  0  0  0  0
   22.1239   41.6046   -5.1650 C   0  0  1  0  0  0
   22.8521   40.7306   -4.3225 O   0  0  0  0  0  0
   21.2535   40.7602   -6.1386 C   0  0  2  0  0  0
   22.0720   40.1055   -7.2867 C   0  0  0  0  0  0
   21.2202   39.5192   -8.4056 C   0  0  0  0  0  0
   21.3689   39.9785   -9.7318 C   0  0  0  0  0  0
   20.5191   39.4992  -10.7473 C   0  0  0  0  0  0
   19.5045   38.5731  -10.4400 C   0  0  0  0  0  0
   19.3518   38.1001   -9.1172 C   0  0  0  0  0  0
   20.2354   38.5500   -8.1168 C   0  0  0  0  0  0
   18.3773   37.2089   -8.7363 O   0  0  0  0  0  0
   17.0849   37.3382   -9.3120 C   0  0  0  0  0  0
   16.4758   38.6906   -9.0122 C   0  0  0  0  0  0
   15.7379   38.9534   -7.9207 C   0  0  0  0  0  0
   15.1688   40.3020   -7.5226 C   0  0  0  0  0  0
   15.2600   41.3502   -8.5377 N   0  0  0  0  0  0
   16.3001   42.2784   -8.4180 C   0  0  0  0  0  0
   17.6028   41.8922   -8.0400 C   0  0  0  0  0  0
   18.5954   42.8842   -7.8752 C   0  0  0  0  0  0
   18.2412   44.2213   -8.1417 C   0  0  0  0  0  0
   16.9221   44.5083   -8.5386 C   0  0  0  0  0  0
   16.4789   46.1483   -8.8414 Cl  0  0  0  0  0  0
   15.9739   43.5587   -8.6858 N   0  0  0  0  0  0
   19.9900   42.5223   -7.4449 C   0  0  0  0  0  0
   20.9689   43.1867   -7.7836 O   0  0  0  0  0  0
   20.0600   41.4628   -6.6230 N   0  0  0  0  0  0
   22.8370   42.1982   -5.7412 H   0  0  0  0  0  0
   20.8216   39.9420   -5.5598 H   0  0  0  0  0  0
   20.0801   42.4559   -2.6224 H   0  0  0  0  0  0
   20.9930   41.0957   -2.8767 H   0  0  0  0  0  0
   20.8090   43.3176   -4.7680 H   0  0  0  0  0  0
   22.0903   43.1116   -3.6033 H   0  0  0  0  0  0
   23.4234   40.1937   -4.8535 H   0  0  0  0  0  0
   22.7395   40.8511   -7.7208 H   0  0  0  0  0  0
   22.7161   39.3215   -6.8892 H   0  0  0  0  0  0
   22.1243   40.7141   -9.9756 H   0  0  0  0  0  0
   20.6364   39.8541  -11.7606 H   0  0  0  0  0  0
   18.8569   38.2294  -11.2310 H   0  0  0  0  0  0
   20.1116   38.1870   -7.1068 H   0  0  0  0  0  0
   17.0922   37.1544  -10.3849 H   0  0  0  0  0  0
   16.4561   36.5634   -8.8725 H   0  0  0  0  0  0
   16.7194   39.4814   -9.7058 H   0  0  0  0  0  0
   15.5368   38.1500   -7.2257 H   0  0  0  0  0  0
   14.1189   40.1491   -7.2860 H   0  0  0  0  0  0
   15.6352   40.6224   -6.5892 H   0  0  0  0  0  0
   14.3670   41.7343   -8.8116 H   0  0  0  0  0  0
   17.8274   40.8528   -7.8569 H   0  0  0  0  0  0
   18.9664   45.0154   -8.0377 H   0  0  0  0  0  0
   19.1643   41.0602   -6.3660 H   0  0  0  0  0  0
   19.7089   41.4235   -3.8600 H   0  0  0  0  0  0
  1  2  1  0  0  0
  1 31  1  0  0  0
  1 32  1  0  0  0
  1 52  1  0  0  0
  2  3  1  0  0  0
  2 33  1  0  0  0
  2 34  1  0  0  0
  3 29  1  0  0  0
  3  4  1  0  0  0
  3  5  1  0  0  0
  4 35  1  0  0  0
  5 30  1  0  0  0
  5 28  1  0  0  0
  5  6  1  0  0  0
  6  7  1  0  0  0
  6 36  1  0  0  0
  6 37  1  0  0  0
  7 12  1  0  0  0
  7  8  2  0  0  0
  8  9  1  0  0  0
  8 38  1  0  0  0
  9 10  2  0  0  0
  9 39  1  0  0  0
 10 11  1  0  0  0
 10 40  1  0  0  0
 11 12  2  0  0  0
 11 13  1  0  0  0
 12 41  1  0  0  0
 13 14  1  0  0  0
 14 15  1  0  0  0
 14 42  1  0  0  0
 14 43  1  0  0  0
 15 16  2  0  0  0
 15 44  1  0  0  0
 16 17  1  0  0  0
 16 45  1  0  0  0
 17 18  1  0  0  0
 17 46  1  0  0  0
 17 47  1  0  0  0
 18 19  1  0  0  0
 18 48  1  0  0  0
 19 25  1  0  0  0
 19 20  2  0  0  0
 20 21  1  0  0  0
 20 49  1  0  0  0
 21 22  2  0  0  0
 21 26  1  0  0  0
 22 23  1  0  0  0
 22 50  1  0  0  0
 23 24  1  0  0  0
 23 25  2  0  0  0
 26 27  2  0  0  0
 26 28  1  0  0  0
 28 51  1  0  0  0
M  CHG  1   1   1
M  END
> <s_m_source_file>
BACE_104.smi

> <i_m_source_file_index>
1

> <i_lp_mmshare_version>
42013

> <i_f3d_flags>
0

> <s_epik_input>
W05IMl1bQ0gyXVtDQEBIXShbT0hdKVtDQEhdKFtDSDJdMSlbTkhdQyg9TyljKFtjSF1jKENsKW4yKVtjSF1jMltOSF1bQ0gyXVxbQ0hdPVtDSF1cW0NIMl1PYyhbY0hdMylbY0hdW2NIXVtjSF1jMTM=

> <s_epik_cmdline>
J2VwaWtfcHl0aG9uJywgJy1waCcsICc3LjAnLCAnLXRuJywgJzgnLCAnLW1hJywgJzIwMCcsICctaW1hZScsICc8aW5maWxlLm1hZT4nLCAnLW9tYWUnLCAnPG91dGZpbGUubWFlPic=

> <r_lp_tautomer_probability>
1

> <r_epik_Ionization_Penalty>
  0.0124

> <r_epik_Ionization_Penalty_Charging>
  0.0124

> <r_epik_Ionization_Penalty_Neutral>
  0.0000

> <r_epik_State_Penalty>
  0.0096

> <r_epik_Charging_Adjusted_Penalty>
0.0219052

> <i_epik_Tot_Q>
1

> <i_epik_Tot_abs_Q>
1

> <s_lp_Force_Field>
OPLS_2005

> <r_lp_Energy>
22.3181

> <b_lp_Chiralities_Consistent>
1

> <s_lp_Variant>
BACE_104.smi:1-1

> <chiral flag>
1

> <version>
0

> <s_i_glide_gridfile>
second_dock_grid_2

> <i_i_glide_lignum>
212

> <i_i_glide_rotatable_bonds>
3

> <r_i_docking_score>
-4.36605

> <r_i_glide_ligand_efficiency>
-0.15593

> <r_i_glide_ligand_efficiency_sa>
-0.473496

> <r_i_glide_ligand_efficiency_ln>
-1.00781

> <r_glide_XP_GScore>
-4.37565

> <r_i_glide_gscore>
-4.37565

> <r_i_glide_evdw>
-37.9262

> <r_i_glide_ecoul>
-8.91426

> <r_i_glide_energy>
-46.8404

> <r_i_glide_einternal>
3.33382

> <r_i_glide_emodel>
-60.663

> <r_glide_XP_HBond>
-0.512004

> <i_i_glide_confnum>
1

> <i_i_glide_posenum>
10

> <r_i_glide_eff_state_penalty>
0.0096

> <i_glide_XP_PoseRank>
1

$$$$
BACE_104.smi:1
                    3D
 Structure written by MMmdl.
 51 53  0  0  1  0            999 V2000
   25.6659   44.1917  -12.2734 N   0  0  0  0  0  0
   25.0619   43.1179  -11.4674 C   0  0  0  0  0  0
   23.5503   43.3170  -11.2429 C   0  0  1  0  0  0
   22.8884   42.9489  -12.4358 O   0  0  0  0  0  0
   23.0050   42.4686  -10.0629 C   0  0  2  0  0  0
   22.9434   40.9427  -10.3219 C   0  0  0  0  0  0
   22.1955   40.1685   -9.2458 C   0  0  0  0  0  0
   22.7440   40.0501   -7.9532 C   0  0  0  0  0  0
   22.0435   39.3508   -6.9537 C   0  0  0  0  0  0
   20.8029   38.7559   -7.2484 C   0  0  0  0  0  0
   20.2406   38.8566   -8.5363 C   0  0  0  0  0  0
   20.9473   39.5750   -9.5342 C   0  0  0  0  0  0
   19.0249   38.2333   -8.7320 O   0  0  0  0  0  0
   18.2861   38.5047   -9.9190 C   0  0  0  0  0  0
   17.6288   39.8738   -9.8957 C   0  0  0  0  0  0
   17.2416   40.5223   -8.7825 C   0  0  0  0  0  0
   16.5385   41.8641   -8.7828 C   0  0  0  0  0  0
   16.8684   42.7023   -7.6398 N   0  0  0  0  0  0
   17.8844   43.6515   -7.7690 C   0  0  0  0  0  0
   19.1563   43.3206   -8.2831 C   0  0  0  0  0  0
   20.1518   44.3241   -8.3286 C   0  0  0  0  0  0
   19.8112   45.6174   -7.8768 C   0  0  0  0  0  0
   18.5122   45.8521   -7.3925 C   0  0  0  0  0  0
   18.0913   47.4319   -6.8368 Cl  0  0  0  0  0  0
   17.5745   44.8879   -7.3322 N   0  0  0  0  0  0
   21.5588   44.0269   -8.7661 C   0  0  0  0  0  0
   22.4943   44.7365   -8.3946 O   0  0  0  0  0  0
   21.7156   42.9845   -9.5968 N   0  0  0  0  0  0
   23.3582   44.3731  -11.0476 H   0  0  0  0  0  0
   23.6937   42.5986   -9.2254 H   0  0  0  0  0  0
   25.5025   45.0996  -11.8403 H   0  0  0  0  0  0
   26.6753   44.0663  -12.3351 H   0  0  0  0  0  0
   25.2611   42.1489  -11.9220 H   0  0  0  0  0  0
   25.5604   43.0973  -10.4976 H   0  0  0  0  0  0
   23.2477   42.1155  -12.7288 H   0  0  0  0  0  0
   22.4596   40.7334  -11.2758 H   0  0  0  0  0  0
   23.9559   40.5474  -10.4084 H   0  0  0  0  0  0
   23.6998   40.4986   -7.7258 H   0  0  0  0  0  0
   22.4581   39.2655   -5.9604 H   0  0  0  0  0  0
   20.2722   38.2164   -6.4779 H   0  0  0  0  0  0
   20.5508   39.6836  -10.5312 H   0  0  0  0  0  0
   18.8927   38.3769  -10.8153 H   0  0  0  0  0  0
   17.4943   37.7600  -10.0009 H   0  0  0  0  0  0
   17.4325   40.3149  -10.8612 H   0  0  0  0  0  0
   17.3890   40.0605   -7.8144 H   0  0  0  0  0  0
   16.7345   42.3936   -9.7167 H   0  0  0  0  0  0
   15.4650   41.6751   -8.7468 H   0  0  0  0  0  0
   16.1019   42.9502   -7.0195 H   0  0  0  0  0  0
   19.3691   42.3035   -8.5776 H   0  0  0  0  0  0
   20.5396   46.4149   -7.8854 H   0  0  0  0  0  0
   20.8914   42.4702   -9.8687 H   0  0  0  0  0  0
  1  2  1  0  0  0
  1 31  1  0  0  0
  1 32  1  0  0  0
  2  3  1  0  0  0
  2 33  1  0  0  0
  2 34  1  0  0  0
  3 29  1  0  0  0
  3  4  1  0  0  0
  3  5  1  0  0  0
  4 35  1  0  0  0
  5 30  1  0  0  0
  5 28  1  0  0  0
  5  6  1  0  0  0
  6  7  1  0  0  0
  6 36  1  0  0  0
  6 37  1  0  0  0
  7 12  1  0  0  0
  7  8  2  0  0  0
  8  9  1  0  0  0
  8 38  1  0  0  0
  9 10  2  0  0  0
  9 39  1  0  0  0
 10 11  1  0  0  0
 10 40  1  0  0  0
 11 12  2  0  0  0
 11 13  1  0  0  0
 12 41  1  0  0  0
 13 14  1  0  0  0
 14 15  1  0  0  0
 14 42  1  0  0  0
 14 43  1  0  0  0
 15 16  2  0  0  0
 15 44  1  0  0  0
 16 17  1  0  0  0
 16 45  1  0  0  0
 17 18  1  0  0  0
 17 46  1  0  0  0
 17 47  1  0  0  0
 18 19  1  0  0  0
 18 48  1  0  0  0
 19 25  1  0  0  0
 19 20  2  0  0  0
 20 21  1  0  0  0
 20 49  1  0  0  0
 21 22  2  0  0  0
 21 26  1  0  0  0
 22 23  1  0  0  0
 22 50  1  0  0  0
 23 24  1  0  0  0
 23 25  2  0  0  0
 26 27  2  0  0  0
 26 28  1  0  0  0
 28 51  1  0  0  0
M  END
> <s_m_source_file>
BACE_104.smi

> <i_m_source_file_index>
1

> <i_lp_mmshare_version>
42013

> <i_f3d_flags>
0

> <s_epik_input>
W05IMl1bQ0gyXVtDQEBIXShbT0hdKVtDQEhdKFtDSDJdMSlbTkhdQyg9TyljKFtjSF1jKENsKW4yKVtjSF1jMltOSF1bQ0gyXVxbQ0hdPVtDSF1cW0NIMl1PYyhbY0hdMylbY0hdW2NIXVtjSF1jMTM=

> <s_epik_cmdline>
J2VwaWtfcHl0aG9uJywgJy1waCcsICc3LjAnLCAnLXRuJywgJzgnLCAnLW1hJywgJzIwMCcsICctaW1hZScsICc8aW5maWxlLm1hZT4nLCAnLW9tYWUnLCAnPG91dGZpbGUubWFlPic=

> <r_lp_tautomer_probability>
1

> <r_epik_Ionization_Penalty>
  2.2995

> <r_epik_Ionization_Penalty_Charging>
  0.0000

> <r_epik_Ionization_Penalty_Neutral>
  2.2995

> <r_epik_State_Penalty>
  2.4501

> <r_epik_Charging_Adjusted_Penalty>
2.45011

> <i_epik_Tot_Q>
0

> <i_epik_Tot_abs_Q>
0

> <s_lp_Force_Field>
OPLS_2005

> <r_lp_Energy>
23.9867

> <b_lp_Chiralities_Consistent>
1

> <s_lp_Variant>
BACE_104.smi:1-2

> <chiral flag>
1

> <version>
0

> <s_i_glide_gridfile>
second_dock_grid_2

> <i_i_glide_lignum>
213

> <i_i_glide_rotatable_bonds>
3

> <r_i_docking_score>
-1.72894

> <r_i_glide_ligand_efficiency>
-0.0617479

> <r_i_glide_ligand_efficiency_sa>
-0.187503

> <r_i_glide_ligand_efficiency_ln>
-0.399091

> <r_glide_XP_GScore>
-4.17904

> <r_i_glide_gscore>
-4.17904

> <r_i_glide_evdw>
-29.5686

> <r_i_glide_ecoul>
-7.93415

> <r_i_glide_energy>
-37.5027

> <r_i_glide_einternal>
2.04413

> <r_i_glide_emodel>
-41.0931

> <r_glide_XP_HBond>
-0.889563

> <i_i_glide_confnum>
1

> <i_i_glide_posenum>
49

> <r_i_glide_eff_state_penalty>
2.4501

> <i_glide_XP_PoseRank>
1

$$$$
BACE_105.smi:1
                    3D
 Structure written by MMmdl.
 79 82  0  0  1  0            999 V2000
   20.7099   38.5566   -7.0994 C   0  0  0  0  0  0
   20.0908   38.3918   -8.4969 C   0  0  0  0  0  0
   20.5432   39.5307   -9.4176 C   0  0  0  0  0  0
   18.5674   38.2847   -8.5029 C   0  0  0  0  0  0
   17.9373   37.5619   -9.5352 C   0  0  0  0  0  0
   16.5338   37.5174   -9.6252 C   0  0  0  0  0  0
   15.7428   38.2245   -8.7023 C   0  0  0  0  0  0
   16.3577   38.9491   -7.6616 C   0  0  0  0  0  0
   15.5119   39.7729   -6.7028 C   0  0  0  0  0  0
   15.2592   41.1334   -7.2401 N   0  3  0  0  0  0
   16.4600   42.0009   -7.3929 C   0  0  0  0  0  0
   16.3262   43.1037   -8.4635 C   0  0  1  0  0  0
   15.3825   44.0617   -8.0402 O   0  0  0  0  0  0
   17.6560   43.8488   -8.8028 C   0  0  2  0  0  0
   18.2825   43.3077  -10.1112 C   0  0  0  0  0  0
   19.5662   44.0146  -10.5241 C   0  0  0  0  0  0
   19.5110   45.3056  -11.0849 C   0  0  0  0  0  0
   20.6972   45.9688  -11.4567 C   0  0  0  0  0  0
   20.6232   47.3563  -12.0608 C   0  0  0  0  0  0
   21.9455   45.3397  -11.2638 C   0  0  0  0  0  0
   22.0160   44.0423  -10.6995 C   0  0  0  0  0  0
   20.8179   43.3921  -10.3436 C   0  0  0  0  0  0
   23.1838   43.3477  -10.4644 O   0  0  0  0  0  0
   24.4433   44.0061  -10.5752 C   0  0  0  0  0  0
   24.6845   45.0081   -9.4289 C   0  0  0  0  0  0
   24.5270   44.3803   -8.0360 C   0  0  0  0  0  0
   24.5540   45.4367   -6.9133 C   0  0  0  0  0  0
   24.0625   44.9241   -5.6404 N   0  0  0  0  0  0
   22.7409   44.4813   -5.5250 C   0  0  0  0  0  0
   21.7048   44.9460   -6.3676 C   0  0  0  0  0  0
   20.4240   44.3752   -6.2441 C   0  0  0  0  0  0
   20.2240   43.4040   -5.2442 C   0  0  0  0  0  0
   21.3033   43.0314   -4.4225 C   0  0  0  0  0  0
   21.0486   41.8515   -3.1900 Cl  0  0  0  0  0  0
   22.5368   43.5545   -4.5681 N   0  0  0  0  0  0
   19.3124   44.7857   -7.1633 C   0  0  0  0  0  0
   19.1023   45.9699   -7.4211 O   0  0  0  0  0  0
   18.6437   43.7623   -7.7171 N   0  0  0  0  0  0
   17.7662   38.9415   -7.5428 C   0  0  0  0  0  0
   15.9255   42.6669   -9.3801 H   0  0  0  0  0  0
   17.4189   44.8986   -8.9938 H   0  0  0  0  0  0
   20.3957   37.7506   -6.4406 H   0  0  0  0  0  0
   20.4401   39.5047   -6.6336 H   0  0  0  0  0  0
   21.7995   38.5210   -7.1535 H   0  0  0  0  0  0
   20.4764   37.4599   -8.9127 H   0  0  0  0  0  0
   20.1891   39.3860  -10.4381 H   0  0  0  0  0  0
   21.6303   39.6050   -9.4540 H   0  0  0  0  0  0
   20.1507   40.4823   -9.0631 H   0  0  0  0  0  0
   18.5288   37.0512  -10.2802 H   0  0  0  0  0  0
   16.0691   36.9639  -10.4266 H   0  0  0  0  0  0
   14.6668   38.2085   -8.7970 H   0  0  0  0  0  0
   14.5552   39.2724   -6.5429 H   0  0  0  0  0  0
   15.9871   39.8293   -5.7253 H   0  0  0  0  0  0
   14.7899   41.0293   -8.1267 H   0  0  0  0  0  0
   16.6970   42.4628   -6.4399 H   0  0  0  0  0  0
   17.3246   41.4090   -7.6711 H   0  0  0  0  0  0
   15.4735   44.1512   -7.0947 H   0  0  0  0  0  0
   18.4781   42.2379  -10.0164 H   0  0  0  0  0  0
   17.5681   43.4098  -10.9285 H   0  0  0  0  0  0
   18.5571   45.7940  -11.2225 H   0  0  0  0  0  0
   21.5530   47.6146  -12.5715 H   0  0  0  0  0  0
   20.4441   48.0994  -11.2829 H   0  0  0  0  0  0
   19.8128   47.4133  -12.7884 H   0  0  0  0  0  0
   22.8384   45.8708  -11.5576 H   0  0  0  0  0  0
   20.8729   42.4072   -9.9094 H   0  0  0  0  0  0
   25.2075   43.2299  -10.5349 H   0  0  0  0  0  0
   24.5593   44.4774  -11.5514 H   0  0  0  0  0  0
   25.6826   45.4356   -9.5271 H   0  0  0  0  0  0
   23.9950   45.8464   -9.5218 H   0  0  0  0  0  0
   23.5809   43.8401   -8.0121 H   0  0  0  0  0  0
   25.3044   43.6337   -7.8658 H   0  0  0  0  0  0
   25.5741   45.7970   -6.7729 H   0  0  0  0  0  0
   23.9662   46.3099   -7.1939 H   0  0  0  0  0  0
   24.7342   44.5499   -4.9793 H   0  0  0  0  0  0
   21.8843   45.6923   -7.1276 H   0  0  0  0  0  0
   19.2602   42.9498   -5.0958 H   0  0  0  0  0  0
   18.9419   42.8395   -7.4361 H   0  0  0  0  0  0
   18.2244   39.4962   -6.7388 H   0  0  0  0  0  0
   14.6262   41.5816   -6.5787 H   0  0  0  0  0  0
  1  2  1  0  0  0
  1 42  1  0  0  0
  1 43  1  0  0  0
  1 44  1  0  0  0
  2  3  1  0  0  0
  2  4  1  0  0  0
  2 45  1  0  0  0
  3 46  1  0  0  0
  3 47  1  0  0  0
  3 48  1  0  0  0
  4 39  1  0  0  0
  4  5  2  0  0  0
  5  6  1  0  0  0
  5 49  1  0  0  0
  6  7  2  0  0  0
  6 50  1  0  0  0
  7  8  1  0  0  0
  7 51  1  0  0  0
  8  9  1  0  0  0
  8 39  2  0  0  0
  9 10  1  0  0  0
  9 52  1  0  0  0
  9 53  1  0  0  0
 10 11  1  0  0  0
 10 54  1  0  0  0
 10 79  1  0  0  0
 11 12  1  0  0  0
 11 55  1  0  0  0
 11 56  1  0  0  0
 12 40  1  0  0  0
 12 13  1  0  0  0
 12 14  1  0  0  0
 13 57  1  0  0  0
 14 41  1  0  0  0
 14 38  1  0  0  0
 14 15  1  0  0  0
 15 16  1  0  0  0
 15 58  1  0  0  0
 15 59  1  0  0  0
 16 22  1  0  0  0
 16 17  2  0  0  0
 17 18  1  0  0  0
 17 60  1  0  0  0
 18 19  1  0  0  0
 18 20  2  0  0  0
 19 61  1  0  0  0
 19 62  1  0  0  0
 19 63  1  0  0  0
 20 21  1  0  0  0
 20 64  1  0  0  0
 21 22  2  0  0  0
 21 23  1  0  0  0
 22 65  1  0  0  0
 23 24  1  0  0  0
 24 25  1  0  0  0
 24 66  1  0  0  0
 24 67  1  0  0  0
 25 26  1  0  0  0
 25 68  1  0  0  0
 25 69  1  0  0  0
 26 27  1  0  0  0
 26 70  1  0  0  0
 26 71  1  0  0  0
 27 28  1  0  0  0
 27 72  1  0  0  0
 27 73  1  0  0  0
 28 29  1  0  0  0
 28 74  1  0  0  0
 29 35  1  0  0  0
 29 30  2  0  0  0
 30 31  1  0  0  0
 30 75  1  0  0  0
 31 32  2  0  0  0
 31 36  1  0  0  0
 32 33  1  0  0  0
 32 76  1  0  0  0
 33 34  1  0  0  0
 33 35  2  0  0  0
 36 37  2  0  0  0
 36 38  1  0  0  0
 38 77  1  0  0  0
 39 78  1  0  0  0
M  CHG  1  10   1
M  END
> <s_m_source_file>
BACE_105.smi

> <i_m_source_file_index>
1

> <i_lp_mmshare_version>
42013

> <i_f3d_flags>
0

> <s_epik_input>
W0NIM11bQ0hdKFtDSDNdKWMxW2NIXVtjSF1bY0hdYyhbY0hdMSlbQ0gyXVtOSF1bQ0gyXVtDQEBIXShbT0hdKVtDQEhdKFtDSDJdMilbTkhdQyg9TyljKFtjSF1jKENsKW4zKVtjSF1jM1tOSF1bQ0gyXVtDSDJdW0NIMl1bQ0gyXU9jKFtjSF00KVtjSF1jKFtjSF1jMjQpW0NIM10=

> <s_epik_cmdline>
J2VwaWtfcHl0aG9uJywgJy1waCcsICc3LjAnLCAnLXRuJywgJzgnLCAnLW1hJywgJzIwMCcsICctaW1hZScsICc8aW5maWxlLm1hZT4nLCAnLW9tYWUnLCAnPG91dGZpbGUubWFlPic=

> <r_lp_tautomer_probability>
1

> <r_epik_Ionization_Penalty>
  0.0201

> <r_epik_Ionization_Penalty_Charging>
  0.0201

> <r_epik_Ionization_Penalty_Neutral>
  0.0000

> <r_epik_State_Penalty>
  0.0161

> <r_epik_Charging_Adjusted_Penalty>
0.0361071

> <i_epik_Tot_Q>
1

> <i_epik_Tot_abs_Q>
1

> <s_lp_Force_Field>
OPLS_2005

> <r_lp_Energy>
21.3199

> <b_lp_Chiralities_Consistent>
1

> <s_lp_Variant>
BACE_105.smi:1-1

> <chiral flag>
1

> <version>
0

> <s_i_glide_gridfile>
second_dock_grid_2

> <i_i_glide_lignum>
214

> <i_i_glide_rotatable_bonds>
7

> <r_i_docking_score>
-7.11844

> <r_i_glide_ligand_efficiency>
-0.182524

> <r_i_glide_ligand_efficiency_sa>
-0.618978

> <r_i_glide_ligand_efficiency_ln>
-1.5264

> <r_glide_XP_GScore>
-7.13454

> <r_i_glide_gscore>
-7.13454

> <r_i_glide_evdw>
-35.9094

> <r_i_glide_ecoul>
-17.099

> <r_i_glide_energy>
-53.0084

> <r_i_glide_einternal>
5.6247

> <r_i_glide_emodel>
-73.7196

> <r_glide_XP_HBond>
-1.43579

> <i_i_glide_confnum>
1

> <i_i_glide_posenum>
4

> <r_i_glide_eff_state_penalty>
0.0161

> <i_glide_XP_PoseRank>
1

$$$$
BACE_105.smi:1
                    3D
 Structure written by MMmdl.
 78 81  0  0  1  0            999 V2000
   19.3491   42.6910   -1.6639 C   0  0  0  0  0  0
   20.8119   42.2903   -1.5854 C   0  0  0  0  0  0
   21.5027   43.1987   -0.5549 C   0  0  0  0  0  0
   21.4522   42.2668   -2.9714 C   0  0  0  0  0  0
   22.4596   43.1828   -3.3381 C   0  0  0  0  0  0
   23.0232   43.1456   -4.6232 C   0  0  0  0  0  0
   22.5896   42.1902   -5.5505 C   0  0  0  0  0  0
   21.5861   41.2612   -5.2105 C   0  0  0  0  0  0
   21.0917   40.2461   -6.2303 C   0  0  0  0  0  0
   22.1954   39.5721   -6.9104 N   0  0  0  0  0  0
   22.1319   39.4992   -8.3705 C   0  0  0  0  0  0
   22.4833   40.8431   -9.0715 C   0  0  1  0  0  0
   23.2502   40.5501  -10.2206 O   0  0  0  0  0  0
   21.3114   41.7680   -9.5349 C   0  0  2  0  0  0
   21.1411   43.0241   -8.6420 C   0  0  0  0  0  0
   19.9937   43.9443   -9.0372 C   0  0  0  0  0  0
   20.1511   44.8440  -10.1093 C   0  0  0  0  0  0
   19.0947   45.6988  -10.4767 C   0  0  0  0  0  0
   19.2817   46.6689  -11.6232 C   0  0  0  0  0  0
   17.8706   45.6502   -9.7778 C   0  0  0  0  0  0
   17.6959   44.7412   -8.7048 C   0  0  0  0  0  0
   18.7690   43.9035   -8.3379 C   0  0  0  0  0  0
   16.5337   44.6156   -7.9734 O   0  0  0  0  0  0
   15.3272   45.2083   -8.4470 C   0  0  0  0  0  0
   14.7634   44.4714   -9.6755 C   0  0  0  0  0  0
   14.4711   42.9881   -9.4125 C   0  0  0  0  0  0
   14.0717   42.2562  -10.7065 C   0  0  0  0  0  0
   14.2223   40.8117  -10.6123 N   0  0  0  0  0  0
   15.4868   40.2368  -10.4386 C   0  0  0  0  0  0
   16.6783   40.9448  -10.7115 C   0  0  0  0  0  0
   17.9124   40.3306  -10.4266 C   0  0  0  0  0  0
   17.9095   39.0166   -9.9196 C   0  0  0  0  0  0
   16.6722   38.3720   -9.7240 C   0  0  0  0  0  0
   16.6653   36.7191   -9.2391 Cl  0  0  0  0  0  0
   15.4880   38.9732   -9.9740 N   0  0  0  0  0  0
   19.1864   41.0770  -10.6680 C   0  0  0  0  0  0
   19.3539   41.7345  -11.6968 O   0  0  0  0  0  0
   20.0458   41.0382   -9.6372 N   0  0  0  0  0  0
   21.0290   41.3006   -3.9144 C   0  0  0  0  0  0
   23.1739   41.4091   -8.4496 H   0  0  0  0  0  0
   21.5635   42.1581  -10.5241 H   0  0  0  0  0  0
   18.8602   42.1058   -2.4313 H   0  0  0  0  0  0
   19.2625   43.7417   -1.9266 H   0  0  0  0  0  0
   18.8299   42.5373   -0.7190 H   0  0  0  0  0  0
   20.8547   41.2586   -1.2402 H   0  0  0  0  0  0
   22.5523   42.9576   -0.4604 H   0  0  0  0  0  0
   21.0459   43.0904    0.4285 H   0  0  0  0  0  0
   21.4292   44.2482   -0.8348 H   0  0  0  0  0  0
   22.8173   43.9330   -2.6481 H   0  0  0  0  0  0
   23.7969   43.8520   -4.8884 H   0  0  0  0  0  0
   23.0391   42.1865   -6.5291 H   0  0  0  0  0  0
   20.4691   39.5079   -5.7247 H   0  0  0  0  0  0
   20.4365   40.7495   -6.9361 H   0  0  0  0  0  0
   23.0708   39.9897   -6.6121 H   0  0  0  0  0  0
   22.8607   38.7516   -8.6783 H   0  0  0  0  0  0
   21.1809   39.0855   -8.7009 H   0  0  0  0  0  0
   23.8988   39.8872  -10.0073 H   0  0  0  0  0  0
   20.9810   42.7353   -7.6071 H   0  0  0  0  0  0
   22.0631   43.6095   -8.6504 H   0  0  0  0  0  0
   21.0854   44.8809  -10.6509 H   0  0  0  0  0  0
   18.3372   47.1269  -11.9218 H   0  0  0  0  0  0
   19.6912   46.1498  -12.4896 H   0  0  0  0  0  0
   19.9752   47.4621  -11.3384 H   0  0  0  0  0  0
   17.0823   46.3196  -10.0796 H   0  0  0  0  0  0
   18.6410   43.2116   -7.5178 H   0  0  0  0  0  0
   14.5966   45.1526   -7.6405 H   0  0  0  0  0  0
   15.4618   46.2698   -8.6438 H   0  0  0  0  0  0
   13.8460   44.9498  -10.0125 H   0  0  0  0  0  0
   15.4674   44.5526  -10.5031 H   0  0  0  0  0  0
   15.3610   42.5363   -8.9736 H   0  0  0  0  0  0
   13.6853   42.8789   -8.6617 H   0  0  0  0  0  0
   13.0309   42.4789  -10.9438 H   0  0  0  0  0  0
   14.6542   42.6191  -11.5513 H   0  0  0  0  0  0
   13.4185   40.2721  -10.3062 H   0  0  0  0  0  0
   16.6717   41.9558  -11.0871 H   0  0  0  0  0  0
   18.8304   38.4879   -9.7145 H   0  0  0  0  0  0
   19.7693   40.4868   -8.8375 H   0  0  0  0  0  0
   20.2525   40.5935   -3.6494 H   0  0  0  0  0  0
  1  2  1  0  0  0
  1 42  1  0  0  0
  1 43  1  0  0  0
  1 44  1  0  0  0
  2  3  1  0  0  0
  2  4  1  0  0  0
  2 45  1  0  0  0
  3 46  1  0  0  0
  3 47  1  0  0  0
  3 48  1  0  0  0
  4 39  1  0  0  0
  4  5  2  0  0  0
  5  6  1  0  0  0
  5 49  1  0  0  0
  6  7  2  0  0  0
  6 50  1  0  0  0
  7  8  1  0  0  0
  7 51  1  0  0  0
  8  9  1  0  0  0
  8 39  2  0  0  0
  9 10  1  0  0  0
  9 52  1  0  0  0
  9 53  1  0  0  0
 10 11  1  0  0  0
 10 54  1  0  0  0
 11 12  1  0  0  0
 11 55  1  0  0  0
 11 56  1  0  0  0
 12 40  1  0  0  0
 12 13  1  0  0  0
 12 14  1  0  0  0
 13 57  1  0  0  0
 14 41  1  0  0  0
 14 38  1  0  0  0
 14 15  1  0  0  0
 15 16  1  0  0  0
 15 58  1  0  0  0
 15 59  1  0  0  0
 16 22  1  0  0  0
 16 17  2  0  0  0
 17 18  1  0  0  0
 17 60  1  0  0  0
 18 19  1  0  0  0
 18 20  2  0  0  0
 19 61  1  0  0  0
 19 62  1  0  0  0
 19 63  1  0  0  0
 20 21  1  0  0  0
 20 64  1  0  0  0
 21 22  2  0  0  0
 21 23  1  0  0  0
 22 65  1  0  0  0
 23 24  1  0  0  0
 24 25  1  0  0  0
 24 66  1  0  0  0
 24 67  1  0  0  0
 25 26  1  0  0  0
 25 68  1  0  0  0
 25 69  1  0  0  0
 26 27  1  0  0  0
 26 70  1  0  0  0
 26 71  1  0  0  0
 27 28  1  0  0  0
 27 72  1  0  0  0
 27 73  1  0  0  0
 28 29  1  0  0  0
 28 74  1  0  0  0
 29 35  1  0  0  0
 29 30  2  0  0  0
 30 31  1  0  0  0
 30 75  1  0  0  0
 31 32  2  0  0  0
 31 36  1  0  0  0
 32 33  1  0  0  0
 32 76  1  0  0  0
 33 34  1  0  0  0
 33 35  2  0  0  0
 36 37  2  0  0  0
 36 38  1  0  0  0
 38 77  1  0  0  0
 39 78  1  0  0  0
M  END
> <s_m_source_file>
BACE_105.smi

> <i_m_source_file_index>
1

> <i_lp_mmshare_version>
42013

> <i_f3d_flags>
0

> <s_epik_input>
W0NIM11bQ0hdKFtDSDNdKWMxW2NIXVtjSF1bY0hdYyhbY0hdMSlbQ0gyXVtOSF1bQ0gyXVtDQEBIXShbT0hdKVtDQEhdKFtDSDJdMilbTkhdQyg9TyljKFtjSF1jKENsKW4zKVtjSF1jM1tOSF1bQ0gyXVtDSDJdW0NIMl1bQ0gyXU9jKFtjSF00KVtjSF1jKFtjSF1jMjQpW0NIM10=

> <s_epik_cmdline>
J2VwaWtfcHl0aG9uJywgJy1waCcsICc3LjAnLCAnLXRuJywgJzgnLCAnLW1hJywgJzIwMCcsICctaW1hZScsICc8aW5maWxlLm1hZT4nLCAnLW9tYWUnLCAnPG91dGZpbGUubWFlPic=

> <r_lp_tautomer_probability>
1

> <r_epik_Ionization_Penalty>
  2.0161

> <r_epik_Ionization_Penalty_Charging>
  0.0000

> <r_epik_Ionization_Penalty_Neutral>
  2.0161

> <r_epik_State_Penalty>
  2.1460

> <r_epik_Charging_Adjusted_Penalty>
2.14597

> <i_epik_Tot_Q>
0

> <i_epik_Tot_abs_Q>
0

> <s_lp_Force_Field>
OPLS_2005

> <r_lp_Energy>
28.8296

> <b_lp_Chiralities_Consistent>
1

> <s_lp_Variant>
BACE_105.smi:1-2

> <chiral flag>
1

> <version>
0

> <s_i_glide_gridfile>
second_dock_grid_2

> <i_i_glide_lignum>
215

> <i_i_glide_rotatable_bonds>
7

> <r_i_docking_score>
-2.80641

> <r_i_glide_ligand_efficiency>
-0.0719593

> <r_i_glide_ligand_efficiency_sa>
-0.244029

> <r_i_glide_ligand_efficiency_ln>
-0.601775

> <r_glide_XP_GScore>
-4.95241

> <r_i_glide_gscore>
-4.95241

> <r_i_glide_evdw>
-42.1973

> <r_i_glide_ecoul>
-6.10501

> <r_i_glide_energy>
-48.3023

> <r_i_glide_einternal>
7.69133

> <r_i_glide_emodel>
-61.5694

> <r_glide_XP_HBond>
-0.677161

> <i_i_glide_confnum>
1

> <i_i_glide_posenum>
11

> <r_i_glide_eff_state_penalty>
2.146

> <i_glide_XP_PoseRank>
1

$$$$
BACE_106.smi:1
                    3D
 Structure written by MMmdl.
 83 86  0  0  1  0            999 V2000
   22.5161   39.9174   -8.5148 C   0  0  0  0  0  0
   21.2730   39.9591   -7.6065 C   0  0  0  0  0  0
   21.5284   39.2188   -6.2891 C   0  0  0  0  0  0
   19.9885   39.4682   -8.2752 C   0  0  0  0  0  0
   20.0081   38.5580   -9.3525 C   0  0  0  0  0  0
   18.8017   38.1536   -9.9536 C   0  0  0  0  0  0
   17.5704   38.6601   -9.4965 C   0  0  0  0  0  0
   17.5205   39.5745   -8.4161 C   0  0  0  0  0  0
   18.7453   39.9397   -7.8008 C   0  0  0  0  0  0
   16.1705   40.1180   -7.8925 C   0  0  0  0  0  0
   15.1109   40.2372   -9.0160 C   0  0  0  0  0  0
   15.6339   39.1370   -6.8390 C   0  0  0  0  0  0
   16.3329   41.4507   -7.2401 N   0  3  0  0  0  0
   16.7294   42.5858   -8.1084 C   0  0  0  0  0  0
   17.4751   43.7239   -7.3594 C   0  0  1  0  0  0
   18.7081   43.2223   -6.8658 O   0  0  0  0  0  0
   17.7243   45.0042   -8.2351 C   0  0  2  0  0  0
   17.8565   44.7168   -9.7572 C   0  0  0  0  0  0
   18.1058   45.9527  -10.6110 C   0  0  0  0  0  0
   17.0190   46.7326  -11.0612 C   0  0  0  0  0  0
   17.2490   47.8808  -11.8429 C   0  0  0  0  0  0
   18.5648   48.2660  -12.1677 C   0  0  0  0  0  0
   19.6552   47.4953  -11.7171 C   0  0  0  0  0  0
   21.0820   47.9393  -11.9843 C   0  0  0  0  0  0
   21.6537   48.6754  -10.7626 C   0  0  0  0  0  0
   23.1903   48.7049  -10.6909 C   0  0  0  0  0  0
   23.7304   49.0616   -9.2909 C   0  0  0  0  0  0
   23.4887   47.9756   -8.3946 O   0  0  0  0  0  0
   22.4494   48.1192   -7.5064 C   0  0  0  0  0  0
   21.4284   47.1484   -7.4852 C   0  0  0  0  0  0
   20.3130   47.3529   -6.6468 C   0  0  0  0  0  0
   20.3286   48.4766   -5.7914 C   0  0  0  0  0  0
   21.4339   49.3481   -5.8305 C   0  0  0  0  0  0
   21.5310   50.5112   -4.8655 C   0  0  0  0  0  0
   22.4583   49.2050   -6.6973 N   0  0  0  0  0  0
   19.1451   46.4053   -6.6473 C   0  0  0  0  0  0
   18.4600   46.2618   -5.6400 O   0  0  0  0  0  0
   18.8781   45.8246   -7.8269 N   0  0  0  0  0  0
   19.4211   46.3293  -10.9571 C   0  0  0  0  0  0
   16.8618   44.0231   -6.5004 H   0  0  0  0  0  0
   16.8436   45.6381   -8.1233 H   0  0  0  0  0  0
   22.3442   40.4522   -9.4494 H   0  0  0  0  0  0
   22.8152   38.8977   -8.7608 H   0  0  0  0  0  0
   23.3696   40.3865   -8.0235 H   0  0  0  0  0  0
   21.1063   41.0092   -7.3607 H   0  0  0  0  0  0
   20.6921   39.3494   -5.6027 H   0  0  0  0  0  0
   22.4216   39.5962   -5.7896 H   0  0  0  0  0  0
   21.6640   38.1488   -6.4509 H   0  0  0  0  0  0
   20.9361   38.1552   -9.7301 H   0  0  0  0  0  0
   18.8230   37.4508  -10.7720 H   0  0  0  0  0  0
   16.6703   38.3164   -9.9819 H   0  0  0  0  0  0
   18.7555   40.5984   -6.9480 H   0  0  0  0  0  0
   14.8010   39.2626   -9.3941 H   0  0  0  0  0  0
   15.4755   40.8157   -9.8642 H   0  0  0  0  0  0
   14.2031   40.7202   -8.6554 H   0  0  0  0  0  0
   15.4294   38.1562   -7.2742 H   0  0  0  0  0  0
   14.7070   39.4880   -6.3825 H   0  0  0  0  0  0
   16.3571   38.9767   -6.0402 H   0  0  0  0  0  0
   15.4783   41.6899   -6.7501 H   0  0  0  0  0  0
   17.3552   42.2142   -8.9182 H   0  0  0  0  0  0
   15.8205   42.9783   -8.5616 H   0  0  0  0  0  0
   18.5474   42.7026   -6.0862 H   0  0  0  0  0  0
   18.6671   44.0051   -9.9276 H   0  0  0  0  0  0
   16.9528   44.2464  -10.1443 H   0  0  0  0  0  0
   16.0075   46.4535  -10.8057 H   0  0  0  0  0  0
   16.4158   48.4757  -12.1868 H   0  0  0  0  0  0
   18.7339   49.1626  -12.7458 H   0  0  0  0  0  0
   21.6745   47.0502  -12.2031 H   0  0  0  0  0  0
   21.1296   48.5691  -12.8733 H   0  0  0  0  0  0
   21.2418   49.6823  -10.6991 H   0  0  0  0  0  0
   21.2861   48.1566   -9.8846 H   0  0  0  0  0  0
   23.5956   47.7347  -10.9812 H   0  0  0  0  0  0
   23.5668   49.4203  -11.4225 H   0  0  0  0  0  0
   24.8104   49.2011   -9.3456 H   0  0  0  0  0  0
   23.3139   50.0110   -8.9537 H   0  0  0  0  0  0
   21.4942   46.2941   -8.1444 H   0  0  0  0  0  0
   19.5148   48.6613   -5.1057 H   0  0  0  0  0  0
   21.2605   50.1888   -3.8591 H   0  0  0  0  0  0
   20.8595   51.3157   -5.1613 H   0  0  0  0  0  0
   22.5478   50.9021   -4.8245 H   0  0  0  0  0  0
   19.5239   46.0456   -8.5698 H   0  0  0  0  0  0
   20.2587   45.7401  -10.6116 H   0  0  0  0  0  0
   17.0436   41.3425   -6.5239 H   0  0  0  0  0  0
  1  2  1  0  0  0
  1 42  1  0  0  0
  1 43  1  0  0  0
  1 44  1  0  0  0
  2  3  1  0  0  0
  2  4  1  0  0  0
  2 45  1  0  0  0
  3 46  1  0  0  0
  3 47  1  0  0  0
  3 48  1  0  0  0
  4  9  1  0  0  0
  4  5  2  0  0  0
  5  6  1  0  0  0
  5 49  1  0  0  0
  6  7  2  0  0  0
  6 50  1  0  0  0
  7  8  1  0  0  0
  7 51  1  0  0  0
  8  9  2  0  0  0
  8 10  1  0  0  0
  9 52  1  0  0  0
 10 11  1  0  0  0
 10 12  1  0  0  0
 10 13  1  0  0  0
 11 53  1  0  0  0
 11 54  1  0  0  0
 11 55  1  0  0  0
 12 56  1  0  0  0
 12 57  1  0  0  0
 12 58  1  0  0  0
 13 14  1  0  0  0
 13 59  1  0  0  0
 13 83  1  0  0  0
 14 15  1  0  0  0
 14 60  1  0  0  0
 14 61  1  0  0  0
 15 40  1  0  0  0
 15 16  1  0  0  0
 15 17  1  0  0  0
 16 62  1  0  0  0
 17 41  1  0  0  0
 17 38  1  0  0  0
 17 18  1  0  0  0
 18 19  1  0  0  0
 18 63  1  0  0  0
 18 64  1  0  0  0
 19 39  1  0  0  0
 19 20  2  0  0  0
 20 21  1  0  0  0
 20 65  1  0  0  0
 21 22  2  0  0  0
 21 66  1  0  0  0
 22 23  1  0  0  0
 22 67  1  0  0  0
 23 24  1  0  0  0
 23 39  2  0  0  0
 24 25  1  0  0  0
 24 68  1  0  0  0
 24 69  1  0  0  0
 25 26  1  0  0  0
 25 70  1  0  0  0
 25 71  1  0  0  0
 26 27  1  0  0  0
 26 72  1  0  0  0
 26 73  1  0  0  0
 27 28  1  0  0  0
 27 74  1  0  0  0
 27 75  1  0  0  0
 28 29  1  0  0  0
 29 35  1  0  0  0
 29 30  2  0  0  0
 30 31  1  0  0  0
 30 76  1  0  0  0
 31 32  2  0  0  0
 31 36  1  0  0  0
 32 33  1  0  0  0
 32 77  1  0  0  0
 33 34  1  0  0  0
 33 35  2  0  0  0
 34 78  1  0  0  0
 34 79  1  0  0  0
 34 80  1  0  0  0
 36 37  2  0  0  0
 36 38  1  0  0  0
 38 81  1  0  0  0
 39 82  1  0  0  0
M  CHG  1  13   1
M  END
> <s_m_source_file>
BACE_106.smi

> <i_m_source_file_index>
1

> <i_lp_mmshare_version>
42013

> <i_f3d_flags>
0

> <s_epik_input>
W0NIM11bQ0hdKFtDSDNdKWMxW2NIXVtjSF1bY0hdYyhbY0hdMSlDKFtDSDNdKShbQ0gzXSlbTkhdW0NIMl1bQ0BASF0oW09IXSlbQ0BIXShbQ0gyXTIpW05IXUMoPU8pYyhbY0hdYyhuMylbQ0gzXSlbY0hdYzNPW0NIMl1bQ0gyXVtDSDJdW0NIMl1jKFtjSF00KVtjSF1bY0hdW2NIXWMyNA==

> <s_epik_cmdline>
J2VwaWtfcHl0aG9uJywgJy1waCcsICc3LjAnLCAnLXRuJywgJzgnLCAnLW1hJywgJzIwMCcsICctaW1hZScsICc8aW5maWxlLm1hZT4nLCAnLW9tYWUnLCAnPG91dGZpbGUubWFlPic=

> <r_lp_tautomer_probability>
1

> <r_epik_Ionization_Penalty>
  0.0201

> <r_epik_Ionization_Penalty_Charging>
  0.0201

> <r_epik_Ionization_Penalty_Neutral>
  0.0000

> <r_epik_State_Penalty>
  0.0161

> <r_epik_Charging_Adjusted_Penalty>
0.0361071

> <i_epik_Tot_Q>
1

> <i_epik_Tot_abs_Q>
1

> <s_lp_Force_Field>
OPLS_2005

> <r_lp_Energy>
32.9889

> <b_lp_Chiralities_Consistent>
1

> <s_lp_Variant>
BACE_106.smi:1-1

> <chiral flag>
1

> <version>
0

> <s_i_glide_gridfile>
second_dock_grid_2

> <i_i_glide_lignum>
216

> <i_i_glide_rotatable_bonds>
7

> <r_i_docking_score>
-4.95175

> <r_i_glide_ligand_efficiency>
-0.126968

> <r_i_glide_ligand_efficiency_sa>
-0.430575

> <r_i_glide_ligand_efficiency_ln>
-1.0618

> <r_glide_XP_GScore>
-4.96785

> <r_i_glide_gscore>
-4.96785

> <r_i_glide_evdw>
-32.5995

> <r_i_glide_ecoul>
-18.8801

> <r_i_glide_energy>
-51.4797

> <r_i_glide_einternal>
2.03856

> <r_i_glide_emodel>
-68.431

> <r_glide_XP_HBond>
-1.59327

> <i_i_glide_confnum>
1

> <i_i_glide_posenum>
15

> <r_i_glide_eff_state_penalty>
0.0161

> <i_glide_XP_PoseRank>
1

$$$$
BACE_106.smi:1
                    3D
 Structure written by MMmdl.
 82 85  0  0  1  0            999 V2000
   15.5152   41.6217   -8.4888 C   0  0  0  0  0  0
   15.6831   40.1012   -8.3339 C   0  0  0  0  0  0
   15.2623   39.6295   -6.9306 C   0  0  0  0  0  0
   17.0946   39.6368   -8.6751 C   0  0  0  0  0  0
   17.2959   38.6422   -9.6488 C   0  0  0  0  0  0
   18.5936   38.1781   -9.9322 C   0  0  0  0  0  0
   19.6973   38.6945   -9.2288 C   0  0  0  0  0  0
   19.5262   39.6991   -8.2447 C   0  0  0  0  0  0
   18.2116   40.1642   -7.9917 C   0  0  0  0  0  0
   20.7201   40.1526   -7.3808 C   0  0  0  0  0  0
   20.9459   39.0330   -6.3436 C   0  0  0  0  0  0
   22.0071   40.3241   -8.2223 C   0  0  0  0  0  0
   20.4493   41.4405   -6.7118 N   0  0  0  0  0  0
   21.1774   41.7342   -5.4688 C   0  0  0  0  0  0
   21.1506   43.2346   -5.1232 C   0  0  1  0  0  0
   21.5661   43.3491   -3.7755 O   0  0  0  0  0  0
   22.0797   44.0838   -6.0389 C   0  0  2  0  0  0
   23.5635   43.6145   -6.0248 C   0  0  0  0  0  0
   24.5397   44.5470   -6.7298 C   0  0  0  0  0  0
   24.8415   44.3634   -8.0959 C   0  0  0  0  0  0
   25.7514   45.2258   -8.7396 C   0  0  0  0  0  0
   26.3501   46.2843   -8.0271 C   0  0  0  0  0  0
   26.0464   46.4770   -6.6646 C   0  0  0  0  0  0
   26.6176   47.6554   -5.8974 C   0  0  0  0  0  0
   25.6002   48.8080   -5.8328 C   0  0  0  0  0  0
   25.7896   49.7586   -4.6373 C   0  0  0  0  0  0
   24.6125   50.7290   -4.4074 C   0  0  0  0  0  0
   23.4717   50.0399   -3.8984 O   0  0  0  0  0  0
   22.5240   49.6210   -4.8035 C   0  0  0  0  0  0
   22.1865   48.2561   -4.8407 C   0  0  0  0  0  0
   21.2741   47.8011   -5.8190 C   0  0  0  0  0  0
   20.6714   48.7658   -6.6521 C   0  0  0  0  0  0
   21.0565   50.1166   -6.5198 C   0  0  0  0  0  0
   20.4497   51.1743   -7.4185 C   0  0  0  0  0  0
   21.9806   50.5469   -5.6304 N   0  0  0  0  0  0
   20.9561   46.3401   -5.9744 C   0  0  0  0  0  0
   19.8365   45.9624   -6.3162 O   0  0  0  0  0  0
   21.9964   45.5188   -5.7578 N   0  0  0  0  0  0
   25.1574   45.5962   -6.0176 C   0  0  0  0  0  0
   20.1200   43.5863   -5.1760 H   0  0  0  0  0  0
   21.7276   43.9665   -7.0658 H   0  0  0  0  0  0
   15.7928   41.9478   -9.4928 H   0  0  0  0  0  0
   16.1285   42.1713   -7.7729 H   0  0  0  0  0  0
   14.4795   41.9149   -8.3191 H   0  0  0  0  0  0
   15.0004   39.6326   -9.0451 H   0  0  0  0  0  0
   15.3386   38.5460   -6.8469 H   0  0  0  0  0  0
   14.2296   39.8970   -6.7100 H   0  0  0  0  0  0
   15.8854   40.0645   -6.1487 H   0  0  0  0  0  0
   16.4548   38.2160  -10.1766 H   0  0  0  0  0  0
   18.7427   37.4079  -10.6705 H   0  0  0  0  0  0
   20.6716   38.2800   -9.4364 H   0  0  0  0  0  0
   18.0217   40.9083   -7.2394 H   0  0  0  0  0  0
   21.1027   38.0656   -6.8305 H   0  0  0  0  0  0
   20.0709   38.9487   -5.6943 H   0  0  0  0  0  0
   21.8135   39.2122   -5.7103 H   0  0  0  0  0  0
   22.3531   39.3910   -8.6680 H   0  0  0  0  0  0
   22.8401   40.6928   -7.6233 H   0  0  0  0  0  0
   21.8487   41.0378   -9.0352 H   0  0  0  0  0  0
   19.4488   41.5384   -6.5531 H   0  0  0  0  0  0
   20.7045   41.1811   -4.6572 H   0  0  0  0  0  0
   22.2033   41.3658   -5.5146 H   0  0  0  0  0  0
   21.2632   44.1851   -3.4294 H   0  0  0  0  0  0
   23.9096   43.4837   -4.9977 H   0  0  0  0  0  0
   23.6529   42.6359   -6.4956 H   0  0  0  0  0  0
   24.3798   43.5598   -8.6525 H   0  0  0  0  0  0
   25.9816   45.0826   -9.7838 H   0  0  0  0  0  0
   27.0315   46.9536   -8.5324 H   0  0  0  0  0  0
   26.8672   47.3118   -4.8917 H   0  0  0  0  0  0
   27.5510   47.9908   -6.3486 H   0  0  0  0  0  0
   25.5957   49.3582   -6.7748 H   0  0  0  0  0  0
   24.6171   48.3567   -5.7557 H   0  0  0  0  0  0
   25.9446   49.1806   -3.7258 H   0  0  0  0  0  0
   26.7054   50.3318   -4.7898 H   0  0  0  0  0  0
   24.9079   51.4507   -3.6449 H   0  0  0  0  0  0
   24.4094   51.3108   -5.3073 H   0  0  0  0  0  0
   22.6685   47.5738   -4.1585 H   0  0  0  0  0  0
   19.9501   48.4685   -7.3997 H   0  0  0  0  0  0
   19.4432   50.8860   -7.7276 H   0  0  0  0  0  0
   21.0594   51.2997   -8.3132 H   0  0  0  0  0  0
   20.3815   52.1346   -6.9061 H   0  0  0  0  0  0
   22.8732   45.9598   -5.5220 H   0  0  0  0  0  0
   24.9319   45.7375   -4.9693 H   0  0  0  0  0  0
  1  2  1  0  0  0
  1 42  1  0  0  0
  1 43  1  0  0  0
  1 44  1  0  0  0
  2  3  1  0  0  0
  2  4  1  0  0  0
  2 45  1  0  0  0
  3 46  1  0  0  0
  3 47  1  0  0  0
  3 48  1  0  0  0
  4  9  1  0  0  0
  4  5  2  0  0  0
  5  6  1  0  0  0
  5 49  1  0  0  0
  6  7  2  0  0  0
  6 50  1  0  0  0
  7  8  1  0  0  0
  7 51  1  0  0  0
  8  9  2  0  0  0
  8 10  1  0  0  0
  9 52  1  0  0  0
 10 11  1  0  0  0
 10 12  1  0  0  0
 10 13  1  0  0  0
 11 53  1  0  0  0
 11 54  1  0  0  0
 11 55  1  0  0  0
 12 56  1  0  0  0
 12 57  1  0  0  0
 12 58  1  0  0  0
 13 14  1  0  0  0
 13 59  1  0  0  0
 14 15  1  0  0  0
 14 60  1  0  0  0
 14 61  1  0  0  0
 15 40  1  0  0  0
 15 16  1  0  0  0
 15 17  1  0  0  0
 16 62  1  0  0  0
 17 41  1  0  0  0
 17 38  1  0  0  0
 17 18  1  0  0  0
 18 19  1  0  0  0
 18 63  1  0  0  0
 18 64  1  0  0  0
 19 39  1  0  0  0
 19 20  2  0  0  0
 20 21  1  0  0  0
 20 65  1  0  0  0
 21 22  2  0  0  0
 21 66  1  0  0  0
 22 23  1  0  0  0
 22 67  1  0  0  0
 23 24  1  0  0  0
 23 39  2  0  0  0
 24 25  1  0  0  0
 24 68  1  0  0  0
 24 69  1  0  0  0
 25 26  1  0  0  0
 25 70  1  0  0  0
 25 71  1  0  0  0
 26 27  1  0  0  0
 26 72  1  0  0  0
 26 73  1  0  0  0
 27 28  1  0  0  0
 27 74  1  0  0  0
 27 75  1  0  0  0
 28 29  1  0  0  0
 29 35  1  0  0  0
 29 30  2  0  0  0
 30 31  1  0  0  0
 30 76  1  0  0  0
 31 32  2  0  0  0
 31 36  1  0  0  0
 32 33  1  0  0  0
 32 77  1  0  0  0
 33 34  1  0  0  0
 33 35  2  0  0  0
 34 78  1  0  0  0
 34 79  1  0  0  0
 34 80  1  0  0  0
 36 37  2  0  0  0
 36 38  1  0  0  0
 38 81  1  0  0  0
 39 82  1  0  0  0
M  END
> <s_m_source_file>
BACE_106.smi

> <i_m_source_file_index>
1

> <i_lp_mmshare_version>
42013

> <i_f3d_flags>
0

> <s_epik_input>
W0NIM11bQ0hdKFtDSDNdKWMxW2NIXVtjSF1bY0hdYyhbY0hdMSlDKFtDSDNdKShbQ0gzXSlbTkhdW0NIMl1bQ0BASF0oW09IXSlbQ0BIXShbQ0gyXTIpW05IXUMoPU8pYyhbY0hdYyhuMylbQ0gzXSlbY0hdYzNPW0NIMl1bQ0gyXVtDSDJdW0NIMl1jKFtjSF00KVtjSF1bY0hdW2NIXWMyNA==

> <s_epik_cmdline>
J2VwaWtfcHl0aG9uJywgJy1waCcsICc3LjAnLCAnLXRuJywgJzgnLCAnLW1hJywgJzIwMCcsICctaW1hZScsICc8aW5maWxlLm1hZT4nLCAnLW9tYWUnLCAnPG91dGZpbGUubWFlPic=

> <r_lp_tautomer_probability>
1

> <r_epik_Ionization_Penalty>
  2.0161

> <r_epik_Ionization_Penalty_Charging>
  0.0000

> <r_epik_Ionization_Penalty_Neutral>
  2.0161

> <r_epik_State_Penalty>
  2.1460

> <r_epik_Charging_Adjusted_Penalty>
2.14597

> <i_epik_Tot_Q>
0

> <i_epik_Tot_abs_Q>
0

> <s_lp_Force_Field>
OPLS_2005

> <r_lp_Energy>
39.8527

> <b_lp_Chiralities_Consistent>
1

> <s_lp_Variant>
BACE_106.smi:1-2

> <chiral flag>
1

> <version>
0

> <s_i_glide_gridfile>
second_dock_grid_2

> <i_i_glide_lignum>
217

> <i_i_glide_rotatable_bonds>
7

> <r_i_docking_score>
-0.713147

> <r_i_glide_ligand_efficiency>
-0.0182858

> <r_i_glide_ligand_efficiency_sa>
-0.0620111

> <r_i_glide_ligand_efficiency_ln>
-0.152919

> <r_glide_XP_GScore>
-2.85915

> <r_i_glide_gscore>
-2.85915

> <r_i_glide_evdw>
-36.4275

> <r_i_glide_ecoul>
-9.05023

> <r_i_glide_energy>
-45.4777

> <r_i_glide_einternal>
3.45131

> <r_i_glide_emodel>
-60.8434

> <r_glide_XP_HBond>
-1.26572

> <i_i_glide_confnum>
1

> <i_i_glide_posenum>
8

> <r_i_glide_eff_state_penalty>
2.146

> <i_glide_XP_PoseRank>
1

$$$$
BACE_107.smi:1
                    3D
 Structure written by MMmdl.
 84 87  0  0  1  0            999 V2000
   25.6355   43.9864   -7.8468 C   0  0  0  0  0  0
   24.7457   43.1532   -8.7870 C   0  0  0  0  0  0
   23.9554   44.0525   -9.7461 C   0  0  0  0  0  0
   23.8193   42.1973   -8.0412 C   0  0  0  0  0  0
   23.6595   40.8805   -8.5138 C   0  0  0  0  0  0
   22.8290   39.9801   -7.8275 C   0  0  0  0  0  0
   22.1286   40.3956   -6.6801 C   0  0  0  0  0  0
   22.2551   41.7200   -6.1916 C   0  0  0  0  0  0
   23.1234   42.6018   -6.8830 C   0  0  0  0  0  0
   21.4763   42.2054   -4.9480 C   0  0  0  0  0  0
   20.9551   41.0232   -4.0966 C   0  0  0  0  0  0
   22.3733   43.0395   -3.9998 C   0  0  0  0  0  0
   20.2745   42.9724   -5.3781 N   0  3  0  0  0  0
   20.4674   44.3086   -5.9993 C   0  0  0  0  0  0
   19.1434   44.9417   -6.4828 C   0  0  1  0  0  0
   19.3932   46.3077   -6.7370 O   0  0  0  0  0  0
   18.4221   44.3333   -7.7291 C   0  0  2  0  0  0
   16.9242   44.1157   -7.4356 C   0  0  0  0  0  0
   16.1400   43.3740   -8.5069 C   0  0  0  0  0  0
   15.5706   44.0712   -9.5904 C   0  0  0  0  0  0
   14.8431   43.3765  -10.5768 C   0  0  0  0  0  0
   14.1166   44.2789  -11.8588 Cl  0  0  0  0  0  0
   14.7073   41.9695  -10.5054 C   0  0  0  0  0  0
   14.0600   41.2902  -11.5017 O   0  0  0  0  0  0
   15.2582   41.2706   -9.4062 C   0  0  0  0  0  0
   15.2112   39.7515   -9.3017 C   0  0  0  0  0  0
   16.5374   39.1668   -9.8109 C   0  0  0  0  0  0
   16.8981   37.7708   -9.2792 C   0  0  0  0  0  0
   18.3290   37.3267   -9.6568 C   0  0  0  0  0  0
   19.3170   38.0928   -8.9658 O   0  0  0  0  0  0
   19.8175   39.1959   -9.6186 C   0  0  0  0  0  0
   19.7610   40.4444   -8.9715 C   0  0  0  0  0  0
   20.1570   41.5986   -9.6827 C   0  0  0  0  0  0
   20.6732   41.4364  -10.9827 C   0  0  0  0  0  0
   20.7244   40.1403  -11.5300 C   0  0  0  0  0  0
   21.2340   39.9415  -12.9385 C   0  0  0  0  0  0
   20.2931   39.0401  -10.8757 N   0  0  0  0  0  0
   19.9955   42.9671   -9.0971 C   0  0  0  0  0  0
   20.6677   43.9236   -9.4789 O   0  0  0  0  0  0
   18.9992   43.0811   -8.2069 N   0  0  0  0  0  0
   15.9539   41.9820   -8.4062 C   0  0  0  0  0  0
   18.4600   44.9558   -5.6401 H   0  0  0  0  0  0
   18.4762   45.0389   -8.5618 H   0  0  0  0  0  0
   26.1736   43.3530   -7.1428 H   0  0  0  0  0  0
   25.0583   44.7065   -7.2684 H   0  0  0  0  0  0
   26.3767   44.5490   -8.4149 H   0  0  0  0  0  0
   25.4181   42.5414   -9.3924 H   0  0  0  0  0  0
   23.3695   43.4583  -10.4495 H   0  0  0  0  0  0
   24.6241   44.6848  -10.3288 H   0  0  0  0  0  0
   23.2704   44.7031   -9.2051 H   0  0  0  0  0  0
   24.1806   40.5509   -9.4016 H   0  0  0  0  0  0
   22.7210   38.9698   -8.1942 H   0  0  0  0  0  0
   21.4911   39.6665   -6.2031 H   0  0  0  0  0  0
   23.2588   43.6126   -6.5370 H   0  0  0  0  0  0
   21.7662   40.3604   -3.7908 H   0  0  0  0  0  0
   20.2144   40.4225   -4.6260 H   0  0  0  0  0  0
   20.4670   41.3714   -3.1841 H   0  0  0  0  0  0
   23.2317   42.4558   -3.6602 H   0  0  0  0  0  0
   21.8258   43.3481   -3.1082 H   0  0  0  0  0  0
   22.7711   43.9458   -4.4526 H   0  0  0  0  0  0
   19.7643   42.3865   -6.0247 H   0  0  0  0  0  0
   20.9018   44.9661   -5.2448 H   0  0  0  0  0  0
   21.1693   44.2829   -6.8241 H   0  0  0  0  0  0
   19.9482   46.3808   -7.5026 H   0  0  0  0  0  0
   16.8608   43.5250   -6.5226 H   0  0  0  0  0  0
   16.4351   45.0698   -7.2400 H   0  0  0  0  0  0
   15.6857   45.1413   -9.6646 H   0  0  0  0  0  0
   13.4808   40.6214  -11.1505 H   0  0  0  0  0  0
   15.0594   39.4872   -8.2531 H   0  0  0  0  0  0
   14.3637   39.3318   -9.8430 H   0  0  0  0  0  0
   16.5702   39.1934  -10.8987 H   0  0  0  0  0  0
   17.3138   39.8467   -9.4805 H   0  0  0  0  0  0
   16.7919   37.7465   -8.1923 H   0  0  0  0  0  0
   16.1818   37.0487   -9.6736 H   0  0  0  0  0  0
   18.4599   36.2858   -9.3648 H   0  0  0  0  0  0
   18.4597   37.3499  -10.7366 H   0  0  0  0  0  0
   19.3640   40.4913   -7.9690 H   0  0  0  0  0  0
   21.0030   42.2889  -11.5597 H   0  0  0  0  0  0
   21.9995   40.6795  -13.1730 H   0  0  0  0  0  0
   20.4177   40.0749  -13.6434 H   0  0  0  0  0  0
   21.6598   38.9487  -13.0772 H   0  0  0  0  0  0
   18.4661   42.2422   -8.0276 H   0  0  0  0  0  0
   16.3724   41.4443   -7.5670 H   0  0  0  0  0  0
   19.6929   43.0882   -4.5618 H   0  0  0  0  0  0
  1  2  1  0  0  0
  1 44  1  0  0  0
  1 45  1  0  0  0
  1 46  1  0  0  0
  2  3  1  0  0  0
  2  4  1  0  0  0
  2 47  1  0  0  0
  3 48  1  0  0  0
  3 49  1  0  0  0
  3 50  1  0  0  0
  4  9  1  0  0  0
  4  5  2  0  0  0
  5  6  1  0  0  0
  5 51  1  0  0  0
  6  7  2  0  0  0
  6 52  1  0  0  0
  7  8  1  0  0  0
  7 53  1  0  0  0
  8  9  2  0  0  0
  8 10  1  0  0  0
  9 54  1  0  0  0
 10 11  1  0  0  0
 10 12  1  0  0  0
 10 13  1  0  0  0
 11 55  1  0  0  0
 11 56  1  0  0  0
 11 57  1  0  0  0
 12 58  1  0  0  0
 12 59  1  0  0  0
 12 60  1  0  0  0
 13 14  1  0  0  0
 13 61  1  0  0  0
 13 84  1  0  0  0
 14 15  1  0  0  0
 14 62  1  0  0  0
 14 63  1  0  0  0
 15 42  1  0  0  0
 15 16  1  0  0  0
 15 17  1  0  0  0
 16 64  1  0  0  0
 17 43  1  0  0  0
 17 40  1  0  0  0
 17 18  1  0  0  0
 18 19  1  0  0  0
 18 65  1  0  0  0
 18 66  1  0  0  0
 19 41  1  0  0  0
 19 20  2  0  0  0
 20 21  1  0  0  0
 20 67  1  0  0  0
 21 22  1  0  0  0
 21 23  2  0  0  0
 23 24  1  0  0  0
 23 25  1  0  0  0
 24 68  1  0  0  0
 25 26  1  0  0  0
 25 41  2  0  0  0
 26 27  1  0  0  0
 26 69  1  0  0  0
 26 70  1  0  0  0
 27 28  1  0  0  0
 27 71  1  0  0  0
 27 72  1  0  0  0
 28 29  1  0  0  0
 28 73  1  0  0  0
 28 74  1  0  0  0
 29 30  1  0  0  0
 29 75  1  0  0  0
 29 76  1  0  0  0
 30 31  1  0  0  0
 31 37  1  0  0  0
 31 32  2  0  0  0
 32 33  1  0  0  0
 32 77  1  0  0  0
 33 34  2  0  0  0
 33 38  1  0  0  0
 34 35  1  0  0  0
 34 78  1  0  0  0
 35 36  1  0  0  0
 35 37  2  0  0  0
 36 79  1  0  0  0
 36 80  1  0  0  0
 36 81  1  0  0  0
 38 39  2  0  0  0
 38 40  1  0  0  0
 40 82  1  0  0  0
 41 83  1  0  0  0
M  CHG  1  13   1
M  END
> <s_m_source_file>
BACE_107.smi

> <i_m_source_file_index>
1

> <i_lp_mmshare_version>
42013

> <i_f3d_flags>
0

> <s_epik_input>
W0NIM11bQ0hdKFtDSDNdKWMxW2NIXVtjSF1bY0hdYyhbY0hdMSlDKFtDSDNdKShbQ0gzXSlbTkhdW0NIMl1bQ0BASF0oW09IXSlbQ0BIXShbQ0gyXTIpW05IXUMoPU8pYyhbY0hdYyhuMylbQ0gzXSlbY0hdYzNPW0NIMl1bQ0gyXVtDSDJdW0NIMl1jKFtjSF00KWMoW09IXSljKENsKVtjSF1jMjQ=

> <s_epik_cmdline>
J2VwaWtfcHl0aG9uJywgJy1waCcsICc3LjAnLCAnLXRuJywgJzgnLCAnLW1hJywgJzIwMCcsICctaW1hZScsICc8aW5maWxlLm1hZT4nLCAnLW9tYWUnLCAnPG91dGZpbGUubWFlPic=

> <r_lp_tautomer_probability>
1

> <r_epik_Ionization_Penalty>
  0.0227

> <r_epik_Ionization_Penalty_Charging>
  0.0203

> <r_epik_Ionization_Penalty_Neutral>
  0.0024

> <r_epik_State_Penalty>
  0.0163

> <r_epik_Charging_Adjusted_Penalty>
0.0365456

> <i_epik_Tot_Q>
1

> <i_epik_Tot_abs_Q>
1

> <s_lp_Force_Field>
OPLS_2005

> <r_lp_Energy>
33.1618

> <b_lp_Chiralities_Consistent>
1

> <s_lp_Variant>
BACE_107.smi:1-1

> <chiral flag>
1

> <version>
0

> <s_i_glide_gridfile>
second_dock_grid_2

> <i_i_glide_lignum>
218

> <i_i_glide_rotatable_bonds>
8

> <r_i_docking_score>
-4.82091

> <r_i_glide_ligand_efficiency>
-0.117583

> <r_i_glide_ligand_efficiency_sa>
-0.405452

> <r_i_glide_ligand_efficiency_ln>
-1.02277

> <r_glide_XP_GScore>
-4.83721

> <r_i_glide_gscore>
-4.83721

> <r_i_glide_evdw>
-42.8636

> <r_i_glide_ecoul>
-15.6807

> <r_i_glide_energy>
-58.5443

> <r_i_glide_einternal>
0

> <r_i_glide_emodel>
-80.9525

> <r_glide_XP_HBond>
-0.867077

> <i_i_glide_confnum>
1

> <i_i_glide_posenum>
8

> <r_i_glide_eff_state_penalty>
0.0163

> <i_glide_XP_PoseRank>
1

$$$$
BACE_107.smi:1
                    3D
 Structure written by MMmdl.
 83 86  0  0  1  0            999 V2000
   22.8006   43.8521    2.2877 C   0  0  0  0  0  0
   22.7053   44.3233    0.8274 C   0  0  0  0  0  0
   22.4600   45.8275    0.7454 C   0  0  0  0  0  0
   21.6824   43.5830   -0.0120 C   0  0  0  0  0  0
   20.4632   43.1505    0.5313 C   0  0  0  0  0  0
   19.5516   42.4594   -0.2685 C   0  0  0  0  0  0
   19.8504   42.1586   -1.6056 C   0  0  0  0  0  0
   21.0670   42.5811   -2.1813 C   0  0  0  0  0  0
   21.9578   43.3282   -1.3716 C   0  0  0  0  0  0
   21.3328   42.3413   -3.6734 C   0  0  0  0  0  0
   22.8120   42.5695   -4.0623 C   0  0  0  0  0  0
   20.9823   40.8767   -4.0508 C   0  0  0  0  0  0
   20.4889   43.3135   -4.3908 N   0  0  0  0  0  0
   20.3459   43.1417   -5.8348 C   0  0  0  0  0  0
   19.6121   44.3446   -6.4695 C   0  0  1  0  0  0
   20.5632   45.3118   -6.8642 O   0  0  0  0  0  0
   18.7260   44.0024   -7.6963 C   0  0  2  0  0  0
   17.2889   43.6659   -7.2485 C   0  0  0  0  0  0
   16.4098   43.0168   -8.3008 C   0  0  0  0  0  0
   15.9562   43.7683   -9.3968 C   0  0  0  0  0  0
   15.1418   43.1668  -10.3710 C   0  0  0  0  0  0
   14.5403   44.1515  -11.6498 Cl  0  0  0  0  0  0
   14.8028   41.7992  -10.2779 C   0  0  0  0  0  0
   14.0600   41.2182  -11.2684 O   0  0  0  0  0  0
   15.2179   41.0465   -9.1527 C   0  0  0  0  0  0
   14.8148   39.5836   -8.9715 C   0  0  0  0  0  0
   15.7801   38.5841   -9.6419 C   0  0  0  0  0  0
   17.2061   38.6458   -9.0711 C   0  0  0  0  0  0
   18.2025   37.6904   -9.7560 C   0  0  0  0  0  0
   19.5385   37.9498   -9.3237 O   0  0  0  0  0  0
   20.0938   39.0693   -9.8891 C   0  0  0  0  0  0
   20.1409   40.2685   -9.1585 C   0  0  0  0  0  0
   20.5155   41.4519   -9.8293 C   0  0  0  0  0  0
   20.9412   41.3622  -11.1667 C   0  0  0  0  0  0
   20.8938   40.1049  -11.7969 C   0  0  0  0  0  0
   21.2601   39.9730  -13.2520 C   0  0  0  0  0  0
   20.4603   38.9824  -11.1862 N   0  0  0  0  0  0
   20.3618   42.7805   -9.1619 C   0  0  0  0  0  0
   21.1616   43.7043   -9.3156 O   0  0  0  0  0  0
   19.2363   42.8618   -8.4445 N   0  0  0  0  0  0
   16.0160   41.6674   -8.1673 C   0  0  0  0  0  0
   18.9882   44.8329   -5.7192 H   0  0  0  0  0  0
   18.6664   44.8555   -8.3739 H   0  0  0  0  0  0
   22.9065   42.7679    2.3527 H   0  0  0  0  0  0
   21.9243   44.1499    2.8630 H   0  0  0  0  0  0
   23.6653   44.2914    2.7869 H   0  0  0  0  0  0
   23.6600   44.1035    0.3620 H   0  0  0  0  0  0
   22.4600   46.1552   -0.2909 H   0  0  0  0  0  0
   23.2487   46.3845    1.2531 H   0  0  0  0  0  0
   21.4823   46.0785    1.1599 H   0  0  0  0  0  0
   20.2144   43.3502    1.5598 H   0  0  0  0  0  0
   18.6094   42.1520    0.1583 H   0  0  0  0  0  0
   19.1133   41.6348   -2.1879 H   0  0  0  0  0  0
   22.8601   43.7268   -1.7888 H   0  0  0  0  0  0
   23.4783   41.9662   -3.4438 H   0  0  0  0  0  0
   23.1109   43.6122   -3.9666 H   0  0  0  0  0  0
   23.0102   42.2833   -5.0959 H   0  0  0  0  0  0
   21.5243   40.1654   -3.4225 H   0  0  0  0  0  0
   21.2497   40.6495   -5.0842 H   0  0  0  0  0  0
   19.9216   40.6561   -3.9512 H   0  0  0  0  0  0
   20.8591   44.2436   -4.2070 H   0  0  0  0  0  0
   21.3105   42.9902   -6.3216 H   0  0  0  0  0  0
   19.7661   42.2358   -6.0104 H   0  0  0  0  0  0
   21.0508   44.9556   -7.5955 H   0  0  0  0  0  0
   17.3481   42.9500   -6.4396 H   0  0  0  0  0  0
   16.7945   44.5496   -6.8433 H   0  0  0  0  0  0
   16.2259   44.8094   -9.4887 H   0  0  0  0  0  0
   13.4928   40.5326  -10.9314 H   0  0  0  0  0  0
   14.7488   39.3647   -7.9041 H   0  0  0  0  0  0
   13.8044   39.4326   -9.3555 H   0  0  0  0  0  0
   15.3892   37.5732   -9.5219 H   0  0  0  0  0  0
   15.8072   38.7818  -10.7148 H   0  0  0  0  0  0
   17.5635   39.6655   -9.1827 H   0  0  0  0  0  0
   17.1870   38.4403   -7.9995 H   0  0  0  0  0  0
   17.9495   36.6566   -9.5211 H   0  0  0  0  0  0
   18.1301   37.7861  -10.8396 H   0  0  0  0  0  0
   19.8055   40.2783   -8.1316 H   0  0  0  0  0  0
   21.2454   42.2440  -11.7134 H   0  0  0  0  0  0
   22.0062   40.7181  -13.5274 H   0  0  0  0  0  0
   20.3794   40.1496  -13.8674 H   0  0  0  0  0  0
   21.6600   38.9840  -13.4778 H   0  0  0  0  0  0
   18.6566   42.0348   -8.4311 H   0  0  0  0  0  0
   16.3299   41.0996   -7.3045 H   0  0  0  0  0  0
  1  2  1  0  0  0
  1 44  1  0  0  0
  1 45  1  0  0  0
  1 46  1  0  0  0
  2  3  1  0  0  0
  2  4  1  0  0  0
  2 47  1  0  0  0
  3 48  1  0  0  0
  3 49  1  0  0  0
  3 50  1  0  0  0
  4  9  1  0  0  0
  4  5  2  0  0  0
  5  6  1  0  0  0
  5 51  1  0  0  0
  6  7  2  0  0  0
  6 52  1  0  0  0
  7  8  1  0  0  0
  7 53  1  0  0  0
  8  9  2  0  0  0
  8 10  1  0  0  0
  9 54  1  0  0  0
 10 11  1  0  0  0
 10 12  1  0  0  0
 10 13  1  0  0  0
 11 55  1  0  0  0
 11 56  1  0  0  0
 11 57  1  0  0  0
 12 58  1  0  0  0
 12 59  1  0  0  0
 12 60  1  0  0  0
 13 14  1  0  0  0
 13 61  1  0  0  0
 14 15  1  0  0  0
 14 62  1  0  0  0
 14 63  1  0  0  0
 15 42  1  0  0  0
 15 16  1  0  0  0
 15 17  1  0  0  0
 16 64  1  0  0  0
 17 43  1  0  0  0
 17 40  1  0  0  0
 17 18  1  0  0  0
 18 19  1  0  0  0
 18 65  1  0  0  0
 18 66  1  0  0  0
 19 41  1  0  0  0
 19 20  2  0  0  0
 20 21  1  0  0  0
 20 67  1  0  0  0
 21 22  1  0  0  0
 21 23  2  0  0  0
 23 24  1  0  0  0
 23 25  1  0  0  0
 24 68  1  0  0  0
 25 26  1  0  0  0
 25 41  2  0  0  0
 26 27  1  0  0  0
 26 69  1  0  0  0
 26 70  1  0  0  0
 27 28  1  0  0  0
 27 71  1  0  0  0
 27 72  1  0  0  0
 28 29  1  0  0  0
 28 73  1  0  0  0
 28 74  1  0  0  0
 29 30  1  0  0  0
 29 75  1  0  0  0
 29 76  1  0  0  0
 30 31  1  0  0  0
 31 37  1  0  0  0
 31 32  2  0  0  0
 32 33  1  0  0  0
 32 77  1  0  0  0
 33 34  2  0  0  0
 33 38  1  0  0  0
 34 35  1  0  0  0
 34 78  1  0  0  0
 35 36  1  0  0  0
 35 37  2  0  0  0
 36 79  1  0  0  0
 36 80  1  0  0  0
 36 81  1  0  0  0
 38 39  2  0  0  0
 38 40  1  0  0  0
 40 82  1  0  0  0
 41 83  1  0  0  0
M  END
> <s_m_source_file>
BACE_107.smi

> <i_m_source_file_index>
1

> <i_lp_mmshare_version>
42013

> <i_f3d_flags>
0

> <s_epik_input>
W0NIM11bQ0hdKFtDSDNdKWMxW2NIXVtjSF1bY0hdYyhbY0hdMSlDKFtDSDNdKShbQ0gzXSlbTkhdW0NIMl1bQ0BASF0oW09IXSlbQ0BIXShbQ0gyXTIpW05IXUMoPU8pYyhbY0hdYyhuMylbQ0gzXSlbY0hdYzNPW0NIMl1bQ0gyXVtDSDJdW0NIMl1jKFtjSF00KWMoW09IXSljKENsKVtjSF1jMjQ=

> <s_epik_cmdline>
J2VwaWtfcHl0aG9uJywgJy1waCcsICc3LjAnLCAnLXRuJywgJzgnLCAnLW1hJywgJzIwMCcsICctaW1hZScsICc8aW5maWxlLm1hZT4nLCAnLW9tYWUnLCAnPG91dGZpbGUubWFlPic=

> <r_lp_tautomer_probability>
1

> <r_epik_Ionization_Penalty>
  2.0113

> <r_epik_Ionization_Penalty_Charging>
  0.0000

> <r_epik_Ionization_Penalty_Neutral>
  2.0113

> <r_epik_State_Penalty>
  2.1387

> <r_epik_Charging_Adjusted_Penalty>
2.13865

> <i_epik_Tot_Q>
0

> <i_epik_Tot_abs_Q>
0

> <s_lp_Force_Field>
OPLS_2005

> <r_lp_Energy>
33.351

> <b_lp_Chiralities_Consistent>
1

> <s_lp_Variant>
BACE_107.smi:1-2

> <chiral flag>
1

> <version>
0

> <s_i_glide_gridfile>
second_dock_grid_2

> <i_i_glide_lignum>
219

> <i_i_glide_rotatable_bonds>
8

> <r_i_docking_score>
-3.4197

> <r_i_glide_ligand_efficiency>
-0.0834073

> <r_i_glide_ligand_efficiency_sa>
-0.287606

> <r_i_glide_ligand_efficiency_ln>
-0.7255

> <r_glide_XP_GScore>
-5.5584

> <r_i_glide_gscore>
-5.5584

> <r_i_glide_evdw>
-49.0873

> <r_i_glide_ecoul>
-10.1981

> <r_i_glide_energy>
-59.2854

> <r_i_glide_einternal>
3.71227

> <r_i_glide_emodel>
-64.9429

> <r_glide_XP_HBond>
-1.03353

> <i_i_glide_confnum>
1

> <i_i_glide_posenum>
1

> <r_i_glide_eff_state_penalty>
2.1387

> <i_glide_XP_PoseRank>
1

$$$$
BACE_108.smi:1
                    3D
 Structure written by MMmdl.
 86 89  0  0  1  0            999 V2000
   21.2057   40.3461  -13.1856 C   0  0  0  0  0  0
   19.9987   40.6895  -12.3469 C   0  0  0  0  0  0
   19.6988   39.9356  -11.1961 C   0  0  0  0  0  0
   18.5685   40.2969  -10.4409 C   0  0  0  0  0  0
   17.7480   41.3477  -10.8999 C   0  0  0  0  0  0
   18.1520   42.0611  -12.0402 C   0  0  0  0  0  0
   19.2597   41.7451  -12.7563 N   0  0  0  0  0  0
   17.4077   43.1513  -12.4327 O   0  0  0  0  0  0
   18.1365   44.3076  -12.8322 C   0  0  0  0  0  0
   17.5530   45.5344  -12.1155 C   0  0  0  0  0  0
   18.5500   46.7033  -11.9756 C   0  0  0  0  0  0
   19.7330   46.4494  -11.0123 C   0  0  0  0  0  0
   19.3010   46.0995   -9.5920 C   0  0  0  0  0  0
   19.1100   44.7417   -9.2471 C   0  0  0  0  0  0
   18.6682   44.3766   -7.9550 C   0  0  0  0  0  0
   18.3669   42.9315   -7.5537 C   0  0  0  0  0  0
   19.3232   41.8346   -8.0892 C   0  0  2  0  0  0
   18.6432   40.5279   -8.0366 N   0  0  0  0  0  0
   18.3539   39.7203   -9.0768 C   0  0  0  0  0  0
   17.9507   38.5705   -8.9331 O   0  0  0  0  0  0
   20.7393   41.7973   -7.4351 C   0  0  2  0  0  0
   21.6886   41.6858   -8.4771 O   0  0  0  0  0  0
   21.0788   40.6759   -6.4076 C   0  0  0  0  0  0
   20.4601   40.8186   -5.0620 N   0  3  0  0  0  0
   21.1652   41.6116   -4.0134 C   0  0  0  0  0  0
   20.3292   41.5746   -2.7145 C   0  0  0  0  0  0
   22.5339   40.9895   -3.6689 C   0  0  0  0  0  0
   21.3188   43.0445   -4.4732 C   0  0  0  0  0  0
   22.4937   43.7662   -4.8389 C   0  0  0  0  0  0
   22.0192   44.9483   -5.3360 C   0  0  0  0  0  0
   22.6293   46.1379   -6.0212 C   0  0  0  0  0  0
   23.8771   46.8025   -5.3788 C   0  0  0  0  0  0
   24.0600   48.1989   -6.0081 C   0  0  0  0  0  0
   25.1459   45.9757   -5.6720 C   0  0  0  0  0  0
   23.7113   46.9819   -3.8572 C   0  0  0  0  0  0
   20.6669   44.9669   -5.2401 O   0  0  0  0  0  0
   20.2276   43.7500   -4.7175 N   0  0  0  0  0  0
   18.4204   45.3971   -7.0189 C   0  0  0  0  0  0
   18.6369   46.7494   -7.3320 C   0  0  0  0  0  0
   18.3538   47.9462   -6.1168 Cl  0  0  0  0  0  0
   19.0700   47.1085   -8.6252 C   0  0  0  0  0  0
   19.2480   48.4280   -8.9365 O   0  0  0  0  0  0
   19.4933   42.1088   -9.1225 H   0  0  0  0  0  0
   20.9518   42.7791   -7.0301 H   0  0  0  0  0  0
   21.9288   39.7667  -12.6109 H   0  0  0  0  0  0
   21.7010   41.2485  -13.5428 H   0  0  0  0  0  0
   20.8908   39.7510  -14.0400 H   0  0  0  0  0  0
   20.3438   39.1306  -10.8741 H   0  0  0  0  0  0
   16.8834   41.6645  -10.3350 H   0  0  0  0  0  0
   19.1967   44.2255  -12.5974 H   0  0  0  0  0  0
   18.0601   44.4320  -13.9088 H   0  0  0  0  0  0
   16.6699   45.8694  -12.6605 H   0  0  0  0  0  0
   17.1855   45.2499  -11.1297 H   0  0  0  0  0  0
   18.9346   46.9685  -12.9607 H   0  0  0  0  0  0
   18.0030   47.5783  -11.6243 H   0  0  0  0  0  0
   20.3697   45.6506  -11.3926 H   0  0  0  0  0  0
   20.3797   47.3272  -10.9916 H   0  0  0  0  0  0
   19.2714   43.9927  -10.0068 H   0  0  0  0  0  0
   18.3245   42.8860   -6.4672 H   0  0  0  0  0  0
   17.3509   42.7280   -7.8957 H   0  0  0  0  0  0
   18.3784   40.1802   -7.1256 H   0  0  0  0  0  0
   21.5112   40.9068   -8.9813 H   0  0  0  0  0  0
   20.7802   39.7064   -6.8063 H   0  0  0  0  0  0
   22.1592   40.5985   -6.3027 H   0  0  0  0  0  0
   19.5220   41.2034   -5.1697 H   0  0  0  0  0  0
   20.8190   42.1350   -1.9160 H   0  0  0  0  0  0
   20.1892   40.5543   -2.3552 H   0  0  0  0  0  0
   19.3383   42.0158   -2.8395 H   0  0  0  0  0  0
   22.9805   41.5383   -2.8410 H   0  0  0  0  0  0
   23.2501   41.0270   -4.4884 H   0  0  0  0  0  0
   22.4412   39.9493   -3.3553 H   0  0  0  0  0  0
   23.5212   43.4392   -4.7982 H   0  0  0  0  0  0
   22.8520   45.8663   -7.0541 H   0  0  0  0  0  0
   21.8488   46.8966   -6.0996 H   0  0  0  0  0  0
   24.9459   48.7010   -5.6162 H   0  0  0  0  0  0
   23.2054   48.8451   -5.8083 H   0  0  0  0  0  0
   24.1774   48.1359   -7.0909 H   0  0  0  0  0  0
   25.3050   45.8589   -6.7444 H   0  0  0  0  0  0
   25.0958   44.9781   -5.2399 H   0  0  0  0  0  0
   26.0341   46.4558   -5.2616 H   0  0  0  0  0  0
   24.5583   47.5231   -3.4325 H   0  0  0  0  0  0
   23.6570   46.0302   -3.3377 H   0  0  0  0  0  0
   22.8106   47.5503   -3.6250 H   0  0  0  0  0  0
   18.0609   45.1399   -6.0387 H   0  0  0  0  0  0
   19.5363   48.5607   -9.8259 H   0  0  0  0  0  0
   20.3531   39.8873   -4.6892 H   0  0  0  0  0  0
  1  2  1  0  0  0
  1 45  1  0  0  0
  1 46  1  0  0  0
  1 47  1  0  0  0
  2  7  1  0  0  0
  2  3  2  0  0  0
  3  4  1  0  0  0
  3 48  1  0  0  0
  4 19  1  0  0  0
  4  5  2  0  0  0
  5  6  1  0  0  0
  5 49  1  0  0  0
  6  7  2  0  0  0
  6  8  1  0  0  0
  8  9  1  0  0  0
  9 10  1  0  0  0
  9 50  1  0  0  0
  9 51  1  0  0  0
 10 11  1  0  0  0
 10 52  1  0  0  0
 10 53  1  0  0  0
 11 12  1  0  0  0
 11 54  1  0  0  0
 11 55  1  0  0  0
 12 13  1  0  0  0
 12 56  1  0  0  0
 12 57  1  0  0  0
 13 41  1  0  0  0
 13 14  2  0  0  0
 14 15  1  0  0  0
 14 58  1  0  0  0
 15 16  1  0  0  0
 15 38  2  0  0  0
 16 17  1  0  0  0
 16 59  1  0  0  0
 16 60  1  0  0  0
 17 43  1  0  0  0
 17 18  1  0  0  0
 17 21  1  0  0  0
 18 19  1  0  0  0
 18 61  1  0  0  0
 19 20  2  0  0  0
 21 44  1  0  0  0
 21 22  1  0  0  0
 21 23  1  0  0  0
 22 62  1  0  0  0
 23 24  1  0  0  0
 23 63  1  0  0  0
 23 64  1  0  0  0
 24 25  1  0  0  0
 24 65  1  0  0  0
 24 86  1  0  0  0
 25 26  1  0  0  0
 25 27  1  0  0  0
 25 28  1  0  0  0
 26 66  1  0  0  0
 26 67  1  0  0  0
 26 68  1  0  0  0
 27 69  1  0  0  0
 27 70  1  0  0  0
 27 71  1  0  0  0
 28 37  2  0  0  0
 28 29  1  0  0  0
 29 30  2  0  0  0
 29 72  1  0  0  0
 30 31  1  0  0  0
 30 36  1  0  0  0
 31 32  1  0  0  0
 31 73  1  0  0  0
 31 74  1  0  0  0
 32 33  1  0  0  0
 32 34  1  0  0  0
 32 35  1  0  0  0
 33 75  1  0  0  0
 33 76  1  0  0  0
 33 77  1  0  0  0
 34 78  1  0  0  0
 34 79  1  0  0  0
 34 80  1  0  0  0
 35 81  1  0  0  0
 35 82  1  0  0  0
 35 83  1  0  0  0
 36 37  1  0  0  0
 38 39  1  0  0  0
 38 84  1  0  0  0
 39 40  1  0  0  0
 39 41  2  0  0  0
 41 42  1  0  0  0
 42 85  1  0  0  0
M  CHG  1  24   1
M  END
> <s_m_source_file>
BACE_108.smi

> <i_m_source_file_index>
1

> <i_lp_mmshare_version>
42013

> <i_f3d_flags>
0

> <s_epik_input>
YzEyW2NIXWMoW0NIM10pbmMoW2NIXTEpT1tDSDJdW0NIMl1bQ0gyXVtDSDJdYzNbY0hdYyhbY0hdYyhDbCljM1tPSF0pW0NIMl1bQ0BIXShbTkhdQzI9TylbQ0BIXShbT0hdKVtDSDJdW05IXUMoW0NIM10pKFtDSDNdKWM0W2NIXWMob240KVtDSDJdQyhbQ0gzXSkoW0NIM10pW0NIM10=

> <s_epik_cmdline>
J2VwaWtfcHl0aG9uJywgJy1waCcsICc3LjAnLCAnLXRuJywgJzgnLCAnLW1hJywgJzIwMCcsICctaW1hZScsICc8aW5maWxlLm1hZT4nLCAnLW9tYWUnLCAnPG91dGZpbGUubWFlPic=

> <r_lp_tautomer_probability>
1

> <r_epik_Ionization_Penalty>
  0.2413

> <r_epik_Ionization_Penalty_Charging>
  0.2389

> <r_epik_Ionization_Penalty_Neutral>
  0.0024

> <r_epik_State_Penalty>
  0.2392

> <r_epik_Charging_Adjusted_Penalty>
0.478089

> <i_epik_Tot_Q>
1

> <i_epik_Tot_abs_Q>
1

> <s_lp_Force_Field>
OPLS_2005

> <r_lp_Energy>
32.6213

> <b_lp_Chiralities_Consistent>
1

> <s_lp_Variant>
BACE_108.smi:1-1

> <chiral flag>
1

> <version>
0

> <s_i_glide_gridfile>
second_dock_grid_2

> <i_i_glide_lignum>
220

> <i_i_glide_rotatable_bonds>
9

> <r_i_docking_score>
-5.55155

> <r_i_glide_ligand_efficiency>
-0.13218

> <r_i_glide_ligand_efficiency_sa>
-0.459461

> <r_i_glide_ligand_efficiency_ln>
-1.17179

> <r_glide_XP_GScore>
-5.79075

> <r_i_glide_gscore>
-5.79075

> <r_i_glide_evdw>
-43.4648

> <r_i_glide_ecoul>
-11.7485

> <r_i_glide_energy>
-55.2133

> <r_i_glide_einternal>
15.0104

> <r_i_glide_emodel>
-70.423

> <r_glide_XP_HBond>
-0.929459

> <i_i_glide_confnum>
1

> <i_i_glide_posenum>
2

> <r_i_glide_eff_state_penalty>
0.2392

> <i_glide_XP_PoseRank>
1

$$$$
BACE_108.smi:1
                    3D
 Structure written by MMmdl.
 85 88  0  0  1  0            999 V2000
   15.3402   39.6293   -6.8767 C   0  0  0  0  0  0
   15.9952   40.4203   -7.9916 C   0  0  0  0  0  0
   15.8767   41.8239   -8.0390 C   0  0  0  0  0  0
   16.5451   42.5342   -9.0550 C   0  0  0  0  0  0
   17.2400   41.7974  -10.0341 C   0  0  0  0  0  0
   17.3224   40.4008   -9.8919 C   0  0  0  0  0  0
   16.7127   39.7201   -8.8938 N   0  0  0  0  0  0
   18.0993   39.6925  -10.7776 O   0  0  0  0  0  0
   18.9966   38.7471  -10.2030 C   0  0  0  0  0  0
   20.3917   39.0191  -10.7839 C   0  0  0  0  0  0
   21.5415   38.5481   -9.8653 C   0  0  0  0  0  0
   21.8235   39.4350   -8.6368 C   0  0  0  0  0  0
   22.0868   40.8876   -8.9990 C   0  0  0  0  0  0
   20.9890   41.7695   -9.0828 C   0  0  0  0  0  0
   21.1605   43.1132   -9.4747 C   0  0  0  0  0  0
   19.9497   44.0043   -9.7131 C   0  0  0  0  0  0
   19.0010   44.1562   -8.4979 C   0  0  2  0  0  0
   17.7028   44.6892   -8.9378 N   0  0  0  0  0  0
   16.5308   44.0368   -9.0743 C   0  0  0  0  0  0
   15.4730   44.6491   -9.2180 O   0  0  0  0  0  0
   19.6181   45.0685   -7.4064 C   0  0  2  0  0  0
   18.8667   44.9456   -6.2174 O   0  0  0  0  0  0
   19.6669   46.5643   -7.7550 C   0  0  0  0  0  0
   20.5430   47.2663   -6.8167 N   0  0  0  0  0  0
   20.6960   48.7214   -6.9598 C   0  0  0  0  0  0
   21.2806   49.0448   -8.3539 C   0  0  0  0  0  0
   19.3300   49.4159   -6.7826 C   0  0  0  0  0  0
   21.6564   49.2031   -5.8894 C   0  0  0  0  0  0
   22.2846   48.4600   -4.8430 C   0  0  0  0  0  0
   23.0936   49.3686   -4.2218 C   0  0  0  0  0  0
   24.0692   49.2664   -3.0895 C   0  0  0  0  0  0
   23.9399   50.2915   -1.9168 C   0  0  0  0  0  0
   25.0963   51.3056   -2.0042 C   0  0  0  0  0  0
   24.0691   49.5317   -0.5792 C   0  0  0  0  0  0
   22.6091   51.0823   -1.9113 C   0  0  0  0  0  0
   22.9867   50.5692   -4.8409 O   0  0  0  0  0  0
   22.0282   50.4746   -5.8505 N   0  0  0  0  0  0
   22.4621   43.5903   -9.7186 C   0  0  0  0  0  0
   23.5735   42.7278   -9.6167 C   0  0  0  0  0  0
   25.1522   43.3478   -9.9428 Cl  0  0  0  0  0  0
   23.3909   41.3662   -9.2771 C   0  0  0  0  0  0
   24.4900   40.5501   -9.2240 O   0  0  0  0  0  0
   18.8478   43.1728   -8.0527 H   0  0  0  0  0  0
   20.6248   44.7107   -7.1917 H   0  0  0  0  0  0
   16.0281   39.5061   -6.0401 H   0  0  0  0  0  0
   15.0416   38.6345   -7.2124 H   0  0  0  0  0  0
   14.4481   40.1411   -6.5076 H   0  0  0  0  0  0
   15.3263   42.3408   -7.2705 H   0  0  0  0  0  0
   17.7401   42.2833  -10.8549 H   0  0  0  0  0  0
   19.0455   38.8234   -9.1164 H   0  0  0  0  0  0
   18.6707   37.7344  -10.4363 H   0  0  0  0  0  0
   20.4586   38.5496  -11.7645 H   0  0  0  0  0  0
   20.5055   40.0788  -11.0074 H   0  0  0  0  0  0
   21.3534   37.5254   -9.5390 H   0  0  0  0  0  0
   22.4601   38.5077  -10.4401 H   0  0  0  0  0  0
   20.9850   39.3894   -7.9408 H   0  0  0  0  0  0
   22.6754   39.0362   -8.0848 H   0  0  0  0  0  0
   19.9934   41.3899   -8.9001 H   0  0  0  0  0  0
   20.2825   44.9790  -10.0671 H   0  0  0  0  0  0
   19.4203   43.5754  -10.5600 H   0  0  0  0  0  0
   17.6378   45.6937   -8.9824 H   0  0  0  0  0  0
   18.7929   44.0248   -6.0146 H   0  0  0  0  0  0
   20.0423   46.6864   -8.7690 H   0  0  0  0  0  0
   18.6569   46.9743   -7.7388 H   0  0  0  0  0  0
   20.2490   47.0374   -5.8719 H   0  0  0  0  0  0
   21.4539   50.1141   -8.4766 H   0  0  0  0  0  0
   20.6171   48.7468   -9.1657 H   0  0  0  0  0  0
   22.2370   48.5427   -8.5051 H   0  0  0  0  0  0
   19.4334   50.4987   -6.8390 H   0  0  0  0  0  0
   18.8892   49.1735   -5.8161 H   0  0  0  0  0  0
   18.6166   49.1381   -7.5592 H   0  0  0  0  0  0
   22.1858   47.4109   -4.6137 H   0  0  0  0  0  0
   23.9690   48.2582   -2.6900 H   0  0  0  0  0  0
   25.0780   49.2860   -3.5008 H   0  0  0  0  0  0
   25.0461   52.0426   -1.2012 H   0  0  0  0  0  0
   25.0800   51.8461   -2.9502 H   0  0  0  0  0  0
   26.0678   50.8139   -1.9286 H   0  0  0  0  0  0
   25.0055   48.9747   -0.5285 H   0  0  0  0  0  0
   23.2617   48.8150   -0.4400 H   0  0  0  0  0  0
   24.0580   50.2111    0.2729 H   0  0  0  0  0  0
   22.5598   51.7495   -1.0517 H   0  0  0  0  0  0
   21.7402   50.4284   -1.8768 H   0  0  0  0  0  0
   22.4870   51.7310   -2.7768 H   0  0  0  0  0  0
   22.6202   44.6195  -10.0150 H   0  0  0  0  0  0
   24.4153   39.6248   -9.4624 H   0  0  0  0  0  0
  1  2  1  0  0  0
  1 45  1  0  0  0
  1 46  1  0  0  0
  1 47  1  0  0  0
  2  7  1  0  0  0
  2  3  2  0  0  0
  3  4  1  0  0  0
  3 48  1  0  0  0
  4 19  1  0  0  0
  4  5  2  0  0  0
  5  6  1  0  0  0
  5 49  1  0  0  0
  6  7  2  0  0  0
  6  8  1  0  0  0
  8  9  1  0  0  0
  9 10  1  0  0  0
  9 50  1  0  0  0
  9 51  1  0  0  0
 10 11  1  0  0  0
 10 52  1  0  0  0
 10 53  1  0  0  0
 11 12  1  0  0  0
 11 54  1  0  0  0
 11 55  1  0  0  0
 12 13  1  0  0  0
 12 56  1  0  0  0
 12 57  1  0  0  0
 13 41  1  0  0  0
 13 14  2  0  0  0
 14 15  1  0  0  0
 14 58  1  0  0  0
 15 16  1  0  0  0
 15 38  2  0  0  0
 16 17  1  0  0  0
 16 59  1  0  0  0
 16 60  1  0  0  0
 17 43  1  0  0  0
 17 18  1  0  0  0
 17 21  1  0  0  0
 18 19  1  0  0  0
 18 61  1  0  0  0
 19 20  2  0  0  0
 21 44  1  0  0  0
 21 22  1  0  0  0
 21 23  1  0  0  0
 22 62  1  0  0  0
 23 24  1  0  0  0
 23 63  1  0  0  0
 23 64  1  0  0  0
 24 25  1  0  0  0
 24 65  1  0  0  0
 25 26  1  0  0  0
 25 27  1  0  0  0
 25 28  1  0  0  0
 26 66  1  0  0  0
 26 67  1  0  0  0
 26 68  1  0  0  0
 27 69  1  0  0  0
 27 70  1  0  0  0
 27 71  1  0  0  0
 28 37  2  0  0  0
 28 29  1  0  0  0
 29 30  2  0  0  0
 29 72  1  0  0  0
 30 31  1  0  0  0
 30 36  1  0  0  0
 31 32  1  0  0  0
 31 73  1  0  0  0
 31 74  1  0  0  0
 32 33  1  0  0  0
 32 34  1  0  0  0
 32 35  1  0  0  0
 33 75  1  0  0  0
 33 76  1  0  0  0
 33 77  1  0  0  0
 34 78  1  0  0  0
 34 79  1  0  0  0
 34 80  1  0  0  0
 35 81  1  0  0  0
 35 82  1  0  0  0
 35 83  1  0  0  0
 36 37  1  0  0  0
 38 39  1  0  0  0
 38 84  1  0  0  0
 39 40  1  0  0  0
 39 41  2  0  0  0
 41 42  1  0  0  0
 42 85  1  0  0  0
M  END
> <s_m_source_file>
BACE_108.smi

> <i_m_source_file_index>
1

> <i_lp_mmshare_version>
42013

> <i_f3d_flags>
0

> <s_epik_input>
YzEyW2NIXWMoW0NIM10pbmMoW2NIXTEpT1tDSDJdW0NIMl1bQ0gyXVtDSDJdYzNbY0hdYyhbY0hdYyhDbCljM1tPSF0pW0NIMl1bQ0BIXShbTkhdQzI9TylbQ0BIXShbT0hdKVtDSDJdW05IXUMoW0NIM10pKFtDSDNdKWM0W2NIXWMob240KVtDSDJdQyhbQ0gzXSkoW0NIM10pW0NIM10=

> <s_epik_cmdline>
J2VwaWtfcHl0aG9uJywgJy1waCcsICc3LjAnLCAnLXRuJywgJzgnLCAnLW1hJywgJzIwMCcsICctaW1hZScsICc8aW5maWxlLm1hZT4nLCAnLW9tYWUnLCAnPG91dGZpbGUubWFlPic=

> <r_lp_tautomer_probability>
1

> <r_epik_Ionization_Penalty>
  0.6556

> <r_epik_Ionization_Penalty_Charging>
  0.0000

> <r_epik_Ionization_Penalty_Neutral>
  0.6556

> <r_epik_State_Penalty>
  0.6577

> <r_epik_Charging_Adjusted_Penalty>
0.65772

> <i_epik_Tot_Q>
0

> <i_epik_Tot_abs_Q>
0

> <s_lp_Force_Field>
OPLS_2005

> <r_lp_Energy>
41.1006

> <b_lp_Chiralities_Consistent>
1

> <s_lp_Variant>
BACE_108.smi:1-2

> <chiral flag>
1

> <version>
0

> <s_i_glide_gridfile>
second_dock_grid_2

> <i_i_glide_lignum>
221

> <i_i_glide_rotatable_bonds>
9

> <r_i_docking_score>
-4.14425

> <r_i_glide_ligand_efficiency>
-0.0986725

> <r_i_glide_ligand_efficiency_sa>
-0.342988

> <r_i_glide_ligand_efficiency_ln>
-0.874744

> <r_glide_XP_GScore>
-4.80195

> <r_i_glide_gscore>
-4.80195

> <r_i_glide_evdw>
-38.2718

> <r_i_glide_ecoul>
-12.4514

> <r_i_glide_energy>
-50.7231

> <r_i_glide_einternal>
7.20574

> <r_i_glide_emodel>
-61.9952

> <r_glide_XP_HBond>
-0.556304

> <i_i_glide_confnum>
1

> <i_i_glide_posenum>
3

> <r_i_glide_eff_state_penalty>
0.6577

> <i_glide_XP_PoseRank>
1

$$$$
BACE_109.smi:1
                    3D
 Structure written by MMmdl.
 83 86  0  0  1  0            999 V2000
   21.0521   40.4350   -9.6467 C   0  0  0  0  0  0
   20.7554   38.9562   -9.3089 C   0  0  0  0  0  0
   19.7255   38.4153  -10.3197 C   0  0  0  0  0  0
   22.0598   38.1549   -9.4365 C   0  0  0  0  0  0
   20.1855   38.7968   -7.8793 C   0  0  0  0  0  0
   20.8388   39.6307   -6.8266 C   0  0  0  0  0  0
   20.4597   40.7858   -6.2167 C   0  0  0  0  0  0
   21.4754   41.0143   -5.2476 C   0  0  0  0  0  0
   22.4596   40.1437   -5.3810 N   0  0  0  0  0  0
   22.0527   39.2377   -6.3650 O   0  0  0  0  0  0
   21.6284   42.1426   -4.2510 C   0  0  0  0  0  0
   20.3175   42.9302   -4.0849 C   0  0  0  0  0  0
   21.9542   41.5780   -2.8510 C   0  0  0  0  0  0
   22.7393   43.0241   -4.7055 N   0  3  0  0  0  0
   22.5249   43.7684   -5.9785 C   0  0  0  0  0  0
   23.7988   44.4998   -6.4519 C   0  0  1  0  0  0
   23.5631   44.9107   -7.7831 O   0  0  0  0  0  0
   24.1757   45.7201   -5.5611 C   0  0  2  0  0  0
   23.6068   47.1093   -5.9545 C   0  0  0  0  0  0
   24.0974   48.2810   -5.1034 C   0  0  0  0  0  0
   24.2686   48.1655   -3.7055 C   0  0  0  0  0  0
   24.7876   49.2321   -2.9419 C   0  0  0  0  0  0
   25.0629   50.4621   -3.5873 C   0  0  0  0  0  0
   24.8867   50.5869   -4.9760 C   0  0  0  0  0  0
   24.4097   49.5023   -5.7327 C   0  0  0  0  0  0
   25.0155   48.9880   -1.6017 O   0  0  0  0  0  0
   25.8705   49.8632   -0.8638 C   0  0  0  0  0  0
   27.3286   49.8658   -1.3717 C   0  0  0  0  0  0
   28.0012   48.4845   -1.4011 C   0  0  0  0  0  0
   29.2905   48.5041   -2.2427 C   0  0  0  0  0  0
   29.8223   47.1974   -2.4085 O   0  0  0  0  0  0
   29.4493   46.4718   -3.5163 C   0  0  0  0  0  0
   28.2350   46.6381   -4.2272 C   0  0  0  0  0  0
   27.9609   45.7948   -5.3246 C   0  0  0  0  0  0
   28.9369   44.8523   -5.6997 C   0  0  0  0  0  0
   30.0876   44.6680   -5.0211 N   0  0  0  0  0  0
   30.3326   45.4742   -3.9662 C   0  0  0  0  0  0
   26.6570   45.8674   -6.0502 C   0  0  0  0  0  0
   26.5925   45.9684   -7.2730 O   0  0  0  0  0  0
   25.5967   45.7511   -5.2401 N   0  0  0  0  0  0
   24.6213   43.7801   -6.4774 H   0  0  0  0  0  0
   23.7445   45.5093   -4.5854 H   0  0  0  0  0  0
   21.3830   40.5440  -10.6791 H   0  0  0  0  0  0
   21.8441   40.8452   -9.0179 H   0  0  0  0  0  0
   20.1666   41.0574   -9.5158 H   0  0  0  0  0  0
   18.7894   38.9732  -10.2739 H   0  0  0  0  0  0
   19.4903   37.3706  -10.1246 H   0  0  0  0  0  0
   20.0916   38.4872  -11.3426 H   0  0  0  0  0  0
   22.4607   38.2447  -10.4407 H   0  0  0  0  0  0
   21.9093   37.0947   -9.2397 H   0  0  0  0  0  0
   22.8244   38.5196   -8.7544 H   0  0  0  0  0  0
   19.1285   39.0645   -7.8891 H   0  0  0  0  0  0
   20.2038   37.7502   -7.5796 H   0  0  0  0  0  0
   19.5623   41.3462   -6.4325 H   0  0  0  0  0  0
   19.5577   42.2931   -3.6434 H   0  0  0  0  0  0
   19.9198   43.3226   -5.0200 H   0  0  0  0  0  0
   20.4393   43.7500   -3.3869 H   0  0  0  0  0  0
   21.1513   40.9319   -2.4941 H   0  0  0  0  0  0
   22.0800   42.3739   -2.1156 H   0  0  0  0  0  0
   22.8601   40.9784   -2.8435 H   0  0  0  0  0  0
   22.9635   43.6783   -3.9684 H   0  0  0  0  0  0
   22.2161   43.0657   -6.7517 H   0  0  0  0  0  0
   21.7116   44.4849   -5.8643 H   0  0  0  0  0  0
   23.6479   44.1648   -8.3622 H   0  0  0  0  0  0
   23.8663   47.3238   -6.9929 H   0  0  0  0  0  0
   22.5158   47.0851   -5.9160 H   0  0  0  0  0  0
   24.0532   47.2372   -3.2016 H   0  0  0  0  0  0
   25.4392   51.3141   -3.0401 H   0  0  0  0  0  0
   25.1408   51.5166   -5.4626 H   0  0  0  0  0  0
   24.2995   49.6067   -6.8033 H   0  0  0  0  0  0
   25.4625   50.8749   -0.8489 H   0  0  0  0  0  0
   25.8617   49.5313    0.1741 H   0  0  0  0  0  0
   27.3760   50.3037   -2.3677 H   0  0  0  0  0  0
   27.9189   50.5320   -0.7470 H   0  0  0  0  0  0
   28.2173   48.1469   -0.3878 H   0  0  0  0  0  0
   27.3073   47.7513   -1.8093 H   0  0  0  0  0  0
   29.1287   48.9800   -3.2106 H   0  0  0  0  0  0
   30.0552   49.1067   -1.7438 H   0  0  0  0  0  0
   27.5076   47.3826   -3.9391 H   0  0  0  0  0  0
   28.7664   44.1793   -6.5272 H   0  0  0  0  0  0
   31.2666   45.3077   -3.4494 H   0  0  0  0  0  0
   25.8058   45.5716   -4.2653 H   0  0  0  0  0  0
   23.5358   42.4154   -4.8424 H   0  0  0  0  0  0
  1  2  1  0  0  0
  1 43  1  0  0  0
  1 44  1  0  0  0
  1 45  1  0  0  0
  2  3  1  0  0  0
  2  4  1  0  0  0
  2  5  1  0  0  0
  3 46  1  0  0  0
  3 47  1  0  0  0
  3 48  1  0  0  0
  4 49  1  0  0  0
  4 50  1  0  0  0
  4 51  1  0  0  0
  5  6  1  0  0  0
  5 52  1  0  0  0
  5 53  1  0  0  0
  6 10  1  0  0  0
  6  7  2  0  0  0
  7  8  1  0  0  0
  7 54  1  0  0  0
  8  9  2  0  0  0
  8 11  1  0  0  0
  9 10  1  0  0  0
 11 12  1  0  0  0
 11 13  1  0  0  0
 11 14  1  0  0  0
 12 55  1  0  0  0
 12 56  1  0  0  0
 12 57  1  0  0  0
 13 58  1  0  0  0
 13 59  1  0  0  0
 13 60  1  0  0  0
 14 15  1  0  0  0
 14 61  1  0  0  0
 14 83  1  0  0  0
 15 16  1  0  0  0
 15 62  1  0  0  0
 15 63  1  0  0  0
 16 41  1  0  0  0
 16 17  1  0  0  0
 16 18  1  0  0  0
 17 64  1  0  0  0
 18 42  1  0  0  0
 18 40  1  0  0  0
 18 19  1  0  0  0
 19 20  1  0  0  0
 19 65  1  0  0  0
 19 66  1  0  0  0
 20 25  1  0  0  0
 20 21  2  0  0  0
 21 22  1  0  0  0
 21 67  1  0  0  0
 22 23  2  0  0  0
 22 26  1  0  0  0
 23 24  1  0  0  0
 23 68  1  0  0  0
 24 25  2  0  0  0
 24 69  1  0  0  0
 25 70  1  0  0  0
 26 27  1  0  0  0
 27 28  1  0  0  0
 27 71  1  0  0  0
 27 72  1  0  0  0
 28 29  1  0  0  0
 28 73  1  0  0  0
 28 74  1  0  0  0
 29 30  1  0  0  0
 29 75  1  0  0  0
 29 76  1  0  0  0
 30 31  1  0  0  0
 30 77  1  0  0  0
 30 78  1  0  0  0
 31 32  1  0  0  0
 32 37  1  0  0  0
 32 33  2  0  0  0
 33 34  1  0  0  0
 33 79  1  0  0  0
 34 35  2  0  0  0
 34 38  1  0  0  0
 35 36  1  0  0  0
 35 80  1  0  0  0
 36 37  2  0  0  0
 37 81  1  0  0  0
 38 39  2  0  0  0
 38 40  1  0  0  0
 40 82  1  0  0  0
M  CHG  1  14   1
M  END
> <s_m_source_file>
BACE_109.smi

> <i_m_source_file_index>
1

> <i_lp_mmshare_version>
42013

> <i_f3d_flags>
0

> <s_epik_input>
W0NIM11DKFtDSDNdKShbQ0gzXSlbQ0gyXWMxW2NIXWMobm8xKUMoW0NIM10pKFtDSDNdKVtOSF1bQ0gyXVtDQEBIXShbT0hdKVtDQEhdKFtDSDJdMilbTkhdQyg9TyljKFtjSF1uW2NIXTMpW2NIXWMzT1tDSDJdW0NIMl1bQ0gyXVtDSDJdT2MoW2NIXWMyNClbY0hdW2NIXVtjSF00

> <s_epik_cmdline>
J2VwaWtfcHl0aG9uJywgJy1waCcsICc3LjAnLCAnLXRuJywgJzgnLCAnLW1hJywgJzIwMCcsICctaW1hZScsICc8aW5maWxlLm1hZT4nLCAnLW9tYWUnLCAnPG91dGZpbGUubWFlPic=

> <r_lp_tautomer_probability>
1

> <r_epik_Ionization_Penalty>
  0.2373

> <r_epik_Ionization_Penalty_Charging>
  0.2371

> <r_epik_Ionization_Penalty_Neutral>
  0.0002

> <r_epik_State_Penalty>
  0.2280

> <r_epik_Charging_Adjusted_Penalty>
0.465097

> <i_epik_Tot_Q>
1

> <i_epik_Tot_abs_Q>
1

> <s_lp_Force_Field>
OPLS_2005

> <r_lp_Energy>
29.2501

> <b_lp_Chiralities_Consistent>
1

> <s_lp_Variant>
BACE_109.smi:1-1

> <chiral flag>
1

> <version>
0

> <s_i_glide_gridfile>
second_dock_grid_2

> <i_i_glide_lignum>
222

> <i_i_glide_rotatable_bonds>
8

> <r_i_docking_score>
-4.78704

> <r_i_glide_ligand_efficiency>
-0.119676

> <r_i_glide_ligand_efficiency_sa>
-0.409286

> <r_i_glide_ligand_efficiency_ln>
-1.02093

> <r_glide_XP_GScore>
-5.01504

> <r_i_glide_gscore>
-5.01504

> <r_i_glide_evdw>
-42.1133

> <r_i_glide_ecoul>
-8.40433

> <r_i_glide_energy>
-50.5177

> <r_i_glide_einternal>
6.74474

> <r_i_glide_emodel>
-65.2593

> <r_glide_XP_HBond>
-0.626014

> <i_i_glide_confnum>
1

> <i_i_glide_posenum>
3

> <r_i_glide_eff_state_penalty>
0.228

> <i_glide_XP_PoseRank>
1

$$$$
BACE_109.smi:1
                    3D
 Structure written by MMmdl.
 82 85  0  0  1  0            999 V2000
   30.9198   42.8854  -12.2734 C   0  0  0  0  0  0
   29.5673   42.4079  -12.8438 C   0  0  0  0  0  0
   28.6261   43.6227  -12.9594 C   0  0  0  0  0  0
   29.7916   41.8233  -14.2529 C   0  0  0  0  0  0
   28.9036   41.3506  -11.9205 C   0  0  0  0  0  0
   27.7697   41.8420  -11.0761 C   0  0  0  0  0  0
   26.5064   41.3725  -10.8549 C   0  0  0  0  0  0
   25.9357   42.3188   -9.9546 C   0  0  0  0  0  0
   26.8035   43.2819   -9.6676 N   0  0  0  0  0  0
   27.9731   42.9838  -10.3731 O   0  0  0  0  0  0
   24.5390   42.3530   -9.3572 C   0  0  0  0  0  0
   24.5431   43.3497   -8.1777 C   0  0  0  0  0  0
   23.5153   42.8331  -10.4115 C   0  0  0  0  0  0
   24.1884   40.9948   -8.8962 N   0  0  0  0  0  0
   23.0904   40.8509   -7.9349 C   0  0  0  0  0  0
   21.9732   41.8784   -8.2120 C   0  0  1  0  0  0
   21.3741   41.5102   -9.4403 O   0  0  0  0  0  0
   20.8664   41.9180   -7.1219 C   0  0  2  0  0  0
   20.3148   40.5162   -6.7512 C   0  0  0  0  0  0
   19.5286   39.8441   -7.8663 C   0  0  0  0  0  0
   18.1574   40.1264   -8.0320 C   0  0  0  0  0  0
   17.4380   39.5979   -9.1200 C   0  0  0  0  0  0
   18.0907   38.7120  -10.0115 C   0  0  0  0  0  0
   19.4487   38.3893   -9.8234 C   0  0  0  0  0  0
   20.1698   38.9606   -8.7584 C   0  0  0  0  0  0
   16.1285   39.9946   -9.2602 O   0  0  0  0  0  0
   15.5965   39.9948  -10.5771 C   0  0  0  0  0  0
   14.3981   40.9498  -10.6511 C   0  0  0  0  0  0
   14.7510   42.4165  -10.3347 C   0  0  0  0  0  0
   14.5712   42.7874   -8.8528 C   0  0  0  0  0  0
   14.7363   44.1913   -8.6824 O   0  0  0  0  0  0
   15.9837   44.7251   -8.4324 C   0  0  0  0  0  0
   17.1126   44.0067   -7.9615 C   0  0  0  0  0  0
   18.3093   44.7072   -7.6782 C   0  0  0  0  0  0
   18.3275   46.1012   -7.8996 C   0  0  0  0  0  0
   17.2697   46.7948   -8.3657 N   0  0  0  0  0  0
   16.1307   46.1161   -8.6127 C   0  0  0  0  0  0
   19.5091   44.0241   -7.0882 C   0  0  0  0  0  0
   20.2335   44.6141   -6.2863 O   0  0  0  0  0  0
   19.7572   42.7831   -7.5379 N   0  0  0  0  0  0
   22.4146   42.8702   -8.3164 H   0  0  0  0  0  0
   21.3162   42.3246   -6.2141 H   0  0  0  0  0  0
   31.3437   43.6869  -12.8795 H   0  0  0  0  0  0
   31.6574   42.0825  -12.2453 H   0  0  0  0  0  0
   30.8076   43.2672  -11.2578 H   0  0  0  0  0  0
   28.4579   44.0903  -11.9885 H   0  0  0  0  0  0
   27.6526   43.3343  -13.3580 H   0  0  0  0  0  0
   29.0379   44.3856  -13.6213 H   0  0  0  0  0  0
   30.2090   42.5702  -14.9292 H   0  0  0  0  0  0
   28.8578   41.4706  -14.6923 H   0  0  0  0  0  0
   30.4854   40.9827  -14.2358 H   0  0  0  0  0  0
   28.5194   40.5373  -12.5377 H   0  0  0  0  0  0
   29.6572   40.8899  -11.2806 H   0  0  0  0  0  0
   26.0601   40.4870  -11.2818 H   0  0  0  0  0  0
   24.8907   44.3322   -8.4994 H   0  0  0  0  0  0
   25.2026   43.0182   -7.3746 H   0  0  0  0  0  0
   23.5491   43.4921   -7.7535 H   0  0  0  0  0  0
   23.7721   43.8220  -10.7925 H   0  0  0  0  0  0
   22.5080   42.9161  -10.0042 H   0  0  0  0  0  0
   23.4724   42.1523  -11.2627 H   0  0  0  0  0  0
   24.0302   40.3916   -9.6979 H   0  0  0  0  0  0
   22.6708   39.8454   -7.9581 H   0  0  0  0  0  0
   23.4819   41.0015   -6.9322 H   0  0  0  0  0  0
   20.7794   40.7932   -9.2810 H   0  0  0  0  0  0
   21.1224   39.8560   -6.4334 H   0  0  0  0  0  0
   19.6602   40.6079   -5.8833 H   0  0  0  0  0  0
   17.6615   40.7955   -7.3448 H   0  0  0  0  0  0
   17.5639   38.2717  -10.8449 H   0  0  0  0  0  0
   19.9423   37.7151  -10.5078 H   0  0  0  0  0  0
   21.2186   38.7312   -8.6370 H   0  0  0  0  0  0
   16.3449   40.3145  -11.3049 H   0  0  0  0  0  0
   15.2852   38.9842  -10.8446 H   0  0  0  0  0  0
   14.0004   40.9024  -11.6654 H   0  0  0  0  0  0
   13.5939   40.6018  -10.0019 H   0  0  0  0  0  0
   15.7638   42.6471  -10.6672 H   0  0  0  0  0  0
   14.0919   43.0588  -10.9199 H   0  0  0  0  0  0
   13.5452   42.5627   -8.5598 H   0  0  0  0  0  0
   15.1903   42.1834   -8.1940 H   0  0  0  0  0  0
   17.0706   42.9469   -7.7745 H   0  0  0  0  0  0
   19.2133   46.6843   -7.6922 H   0  0  0  0  0  0
   15.2972   46.7077   -8.9620 H   0  0  0  0  0  0
   19.1201   42.3952   -8.2189 H   0  0  0  0  0  0
  1  2  1  0  0  0
  1 43  1  0  0  0
  1 44  1  0  0  0
  1 45  1  0  0  0
  2  3  1  0  0  0
  2  4  1  0  0  0
  2  5  1  0  0  0
  3 46  1  0  0  0
  3 47  1  0  0  0
  3 48  1  0  0  0
  4 49  1  0  0  0
  4 50  1  0  0  0
  4 51  1  0  0  0
  5  6  1  0  0  0
  5 52  1  0  0  0
  5 53  1  0  0  0
  6 10  1  0  0  0
  6  7  2  0  0  0
  7  8  1  0  0  0
  7 54  1  0  0  0
  8  9  2  0  0  0
  8 11  1  0  0  0
  9 10  1  0  0  0
 11 12  1  0  0  0
 11 13  1  0  0  0
 11 14  1  0  0  0
 12 55  1  0  0  0
 12 56  1  0  0  0
 12 57  1  0  0  0
 13 58  1  0  0  0
 13 59  1  0  0  0
 13 60  1  0  0  0
 14 15  1  0  0  0
 14 61  1  0  0  0
 15 16  1  0  0  0
 15 62  1  0  0  0
 15 63  1  0  0  0
 16 41  1  0  0  0
 16 17  1  0  0  0
 16 18  1  0  0  0
 17 64  1  0  0  0
 18 42  1  0  0  0
 18 40  1  0  0  0
 18 19  1  0  0  0
 19 20  1  0  0  0
 19 65  1  0  0  0
 19 66  1  0  0  0
 20 25  1  0  0  0
 20 21  2  0  0  0
 21 22  1  0  0  0
 21 67  1  0  0  0
 22 23  2  0  0  0
 22 26  1  0  0  0
 23 24  1  0  0  0
 23 68  1  0  0  0
 24 25  2  0  0  0
 24 69  1  0  0  0
 25 70  1  0  0  0
 26 27  1  0  0  0
 27 28  1  0  0  0
 27 71  1  0  0  0
 27 72  1  0  0  0
 28 29  1  0  0  0
 28 73  1  0  0  0
 28 74  1  0  0  0
 29 30  1  0  0  0
 29 75  1  0  0  0
 29 76  1  0  0  0
 30 31  1  0  0  0
 30 77  1  0  0  0
 30 78  1  0  0  0
 31 32  1  0  0  0
 32 37  1  0  0  0
 32 33  2  0  0  0
 33 34  1  0  0  0
 33 79  1  0  0  0
 34 35  2  0  0  0
 34 38  1  0  0  0
 35 36  1  0  0  0
 35 80  1  0  0  0
 36 37  2  0  0  0
 37 81  1  0  0  0
 38 39  2  0  0  0
 38 40  1  0  0  0
 40 82  1  0  0  0
M  END
> <s_m_source_file>
BACE_109.smi

> <i_m_source_file_index>
1

> <i_lp_mmshare_version>
42013

> <i_f3d_flags>
0

> <s_epik_input>
W0NIM11DKFtDSDNdKShbQ0gzXSlbQ0gyXWMxW2NIXWMobm8xKUMoW0NIM10pKFtDSDNdKVtOSF1bQ0gyXVtDQEBIXShbT0hdKVtDQEhdKFtDSDJdMilbTkhdQyg9TyljKFtjSF1uW2NIXTMpW2NIXWMzT1tDSDJdW0NIMl1bQ0gyXVtDSDJdT2MoW2NIXWMyNClbY0hdW2NIXVtjSF00

> <s_epik_cmdline>
J2VwaWtfcHl0aG9uJywgJy1waCcsICc3LjAnLCAnLXRuJywgJzgnLCAnLW1hJywgJzIwMCcsICctaW1hZScsICc8aW5maWxlLm1hZT4nLCAnLW9tYWUnLCAnPG91dGZpbGUubWFlPic=

> <r_lp_tautomer_probability>
1

> <r_epik_Ionization_Penalty>
  0.6575

> <r_epik_Ionization_Penalty_Charging>
  0.0000

> <r_epik_Ionization_Penalty_Neutral>
  0.6575

> <r_epik_State_Penalty>
  0.6762

> <r_epik_Charging_Adjusted_Penalty>
0.676214

> <i_epik_Tot_Q>
0

> <i_epik_Tot_abs_Q>
0

> <s_lp_Force_Field>
OPLS_2005

> <r_lp_Energy>
40.7185

> <b_lp_Chiralities_Consistent>
1

> <s_lp_Variant>
BACE_109.smi:1-2

> <chiral flag>
1

> <version>
0

> <s_i_glide_gridfile>
second_dock_grid_2

> <i_i_glide_lignum>
223

> <i_i_glide_rotatable_bonds>
8

> <r_i_docking_score>
-1.88869

> <r_i_glide_ligand_efficiency>
-0.0472172

> <r_i_glide_ligand_efficiency_sa>
-0.16148

> <r_i_glide_ligand_efficiency_ln>
-0.402801

> <r_glide_XP_GScore>
-2.56489

> <r_i_glide_gscore>
-2.56489

> <r_i_glide_evdw>
-40.3875

> <r_i_glide_ecoul>
-4.33125

> <r_i_glide_energy>
-44.7187

> <r_i_glide_einternal>
7.5788

> <r_i_glide_emodel>
-58.7528

> <r_glide_XP_HBond>
0

> <i_i_glide_confnum>
1

> <i_i_glide_posenum>
3

> <r_i_glide_eff_state_penalty>
0.6762

> <i_glide_XP_PoseRank>
1

$$$$
BACE_110.smi:1
                    3D
 Structure written by MMmdl.
 83 86  0  0  1  0            999 V2000
   15.5192   45.2100   -8.9759 C   0  0  0  0  0  0
   16.9348   44.6737   -8.9571 C   0  0  0  0  0  0
   17.6632   44.6374   -7.7535 C   0  0  0  0  0  0
   18.9635   44.1003   -7.7731 C   0  0  0  0  0  0
   19.4954   43.6644   -9.0064 C   0  0  0  0  0  0
   18.6854   43.7271  -10.1512 C   0  0  0  0  0  0
   17.4261   44.2280  -10.1345 N   0  0  0  0  0  0
   19.1759   43.2072  -11.3296 O   0  0  0  0  0  0
   18.2514   42.5686  -12.2077 C   0  0  0  0  0  0
   17.7326   41.2601  -11.5822 C   0  0  0  0  0  0
   18.8224   40.1848  -11.4449 C   0  0  0  0  0  0
   18.3613   38.9889  -10.5889 C   0  0  0  0  0  0
   18.4117   39.3000   -9.1973 O   0  0  0  0  0  0
   19.6358   39.3425   -8.5597 C   0  0  0  0  0  0
   19.6735   39.9189   -7.2708 C   0  0  0  0  0  0
   20.8918   40.0585   -6.5650 C   0  0  0  0  0  0
   20.9392   40.7642   -5.2142 C   0  0  0  0  0  0
   21.1736   42.2987   -5.2930 C   0  0  2  0  0  0
   20.4557   42.8381   -6.4370 N   0  0  0  0  0  0
   19.7474   43.9729   -6.5060 C   0  0  0  0  0  0
   19.6721   44.8114   -5.6067 O   0  0  0  0  0  0
   22.6809   42.6517   -5.3667 C   0  0  2  0  0  0
   23.2604   42.3213   -4.1222 O   0  0  0  0  0  0
   23.0187   44.1376   -5.6364 C   0  0  0  0  0  0
   24.4880   44.3344   -5.6402 N   0  3  0  0  0  0
   25.0704   45.6416   -6.0495 C   0  0  0  0  0  0
   26.6007   45.4457   -6.0205 C   0  0  0  0  0  0
   24.6956   45.9778   -7.5092 C   0  0  0  0  0  0
   24.6581   46.7772   -5.1113 C   0  0  0  0  0  0
   25.5260   47.4834   -4.2032 C   0  0  0  0  0  0
   24.8886   48.4880   -3.5220 C   0  0  0  0  0  0
   23.2378   48.4845   -4.0391 S   0  0  0  0  0  0
   23.4056   47.1922   -5.0958 N   0  0  0  0  0  0
   25.4246   49.4893   -2.5254 C   0  0  0  0  0  0
   26.8664   49.1404   -2.1029 C   0  0  0  0  0  0
   24.5574   49.5255   -1.2515 C   0  0  0  0  0  0
   25.4289   50.8941   -3.1483 C   0  0  0  0  0  0
   22.0797   39.5664   -7.1351 C   0  0  0  0  0  0
   22.0498   38.9633   -8.4026 C   0  0  0  0  0  0
   20.8448   38.8607   -9.1183 C   0  0  0  0  0  0
   20.7661   42.7508   -4.3852 H   0  0  0  0  0  0
   23.1522   42.0487   -6.1428 H   0  0  0  0  0  0
   15.4170   46.0263   -8.2614 H   0  0  0  0  0  0
   14.8145   44.4188   -8.7120 H   0  0  0  0  0  0
   15.2534   45.5872   -9.9641 H   0  0  0  0  0  0
   17.2194   44.9653   -6.8239 H   0  0  0  0  0  0
   20.4870   43.2413   -9.0779 H   0  0  0  0  0  0
   17.4269   43.2305  -12.4807 H   0  0  0  0  0  0
   18.7764   42.3450  -13.1373 H   0  0  0  0  0  0
   17.2918   41.4578  -10.6047 H   0  0  0  0  0  0
   16.9143   40.8694  -12.1850 H   0  0  0  0  0  0
   19.1012   39.8341  -12.4389 H   0  0  0  0  0  0
   19.7305   40.6171  -11.0252 H   0  0  0  0  0  0
   17.3266   38.7510  -10.8357 H   0  0  0  0  0  0
   18.9177   38.0811  -10.8239 H   0  0  0  0  0  0
   18.7570   40.2985   -6.8442 H   0  0  0  0  0  0
   19.9981   40.5707   -4.7044 H   0  0  0  0  0  0
   21.6836   40.2831   -4.5822 H   0  0  0  0  0  0
   20.3651   42.2111   -7.2260 H   0  0  0  0  0  0
   23.4090   41.3810   -4.0903 H   0  0  0  0  0  0
   22.6105   44.4403   -6.6004 H   0  0  0  0  0  0
   22.5545   44.7588   -4.8710 H   0  0  0  0  0  0
   24.7866   44.1610   -4.6832 H   0  0  0  0  0  0
   27.1307   46.3526   -6.3167 H   0  0  0  0  0  0
   26.9208   44.6572   -6.7033 H   0  0  0  0  0  0
   26.9547   45.1632   -5.0281 H   0  0  0  0  0  0
   25.2015   46.8856   -7.8432 H   0  0  0  0  0  0
   23.6274   46.1540   -7.6363 H   0  0  0  0  0  0
   24.9796   45.1722   -8.1872 H   0  0  0  0  0  0
   26.5762   47.2550   -4.0924 H   0  0  0  0  0  0
   27.2496   49.8568   -1.3778 H   0  0  0  0  0  0
   27.5504   49.1544   -2.9536 H   0  0  0  0  0  0
   26.9301   48.1505   -1.6522 H   0  0  0  0  0  0
   24.5125   48.5523   -0.7602 H   0  0  0  0  0  0
   23.5328   49.8295   -1.4696 H   0  0  0  0  0  0
   24.9535   50.2320   -0.5204 H   0  0  0  0  0  0
   25.7828   51.6389   -2.4395 H   0  0  0  0  0  0
   24.4340   51.2018   -3.4673 H   0  0  0  0  0  0
   26.0787   50.9344   -4.0192 H   0  0  0  0  0  0
   23.0189   39.6590   -6.6125 H   0  0  0  0  0  0
   22.9595   38.5833   -8.8388 H   0  0  0  0  0  0
   20.8830   38.4099  -10.0967 H   0  0  0  0  0  0
   24.8922   43.6176   -6.2254 H   0  0  0  0  0  0
  1  2  1  0  0  0
  1 43  1  0  0  0
  1 44  1  0  0  0
  1 45  1  0  0  0
  2  7  1  0  0  0
  2  3  2  0  0  0
  3  4  1  0  0  0
  3 46  1  0  0  0
  4 20  1  0  0  0
  4  5  2  0  0  0
  5  6  1  0  0  0
  5 47  1  0  0  0
  6  7  2  0  0  0
  6  8  1  0  0  0
  8  9  1  0  0  0
  9 10  1  0  0  0
  9 48  1  0  0  0
  9 49  1  0  0  0
 10 11  1  0  0  0
 10 50  1  0  0  0
 10 51  1  0  0  0
 11 12  1  0  0  0
 11 52  1  0  0  0
 11 53  1  0  0  0
 12 13  1  0  0  0
 12 54  1  0  0  0
 12 55  1  0  0  0
 13 14  1  0  0  0
 14 40  1  0  0  0
 14 15  2  0  0  0
 15 16  1  0  0  0
 15 56  1  0  0  0
 16 17  1  0  0  0
 16 38  2  0  0  0
 17 18  1  0  0  0
 17 57  1  0  0  0
 17 58  1  0  0  0
 18 41  1  0  0  0
 18 19  1  0  0  0
 18 22  1  0  0  0
 19 20  1  0  0  0
 19 59  1  0  0  0
 20 21  2  0  0  0
 22 42  1  0  0  0
 22 23  1  0  0  0
 22 24  1  0  0  0
 23 60  1  0  0  0
 24 25  1  0  0  0
 24 61  1  0  0  0
 24 62  1  0  0  0
 25 26  1  0  0  0
 25 63  1  0  0  0
 25 83  1  0  0  0
 26 27  1  0  0  0
 26 28  1  0  0  0
 26 29  1  0  0  0
 27 64  1  0  0  0
 27 65  1  0  0  0
 27 66  1  0  0  0
 28 67  1  0  0  0
 28 68  1  0  0  0
 28 69  1  0  0  0
 29 33  2  0  0  0
 29 30  1  0  0  0
 30 31  2  0  0  0
 30 70  1  0  0  0
 31 32  1  0  0  0
 31 34  1  0  0  0
 32 33  1  0  0  0
 34 35  1  0  0  0
 34 36  1  0  0  0
 34 37  1  0  0  0
 35 71  1  0  0  0
 35 72  1  0  0  0
 35 73  1  0  0  0
 36 74  1  0  0  0
 36 75  1  0  0  0
 36 76  1  0  0  0
 37 77  1  0  0  0
 37 78  1  0  0  0
 37 79  1  0  0  0
 38 39  1  0  0  0
 38 80  1  0  0  0
 39 40  2  0  0  0
 39 81  1  0  0  0
 40 82  1  0  0  0
M  CHG  1  25   1
M  END
> <s_m_source_file>
BACE_110.smi

> <i_m_source_file_index>
1

> <i_lp_mmshare_version>
42013

> <i_f3d_flags>
0

> <s_epik_input>
YzEyW2NIXWMoW0NIM10pbmMoW2NIXTEpT1tDSDJdW0NIMl1bQ0gyXVtDSDJdT2MzW2NIXWMoW2NIXVtjSF1bY0hdMylbQ0gyXVtDQEhdKFtOSF1DMj1PKVtDQEhdKFtPSF0pW0NIMl1bTkhdQyhbQ0gzXSkoW0NIM10pYzRbY0hdYyhzbjQpQyhbQ0gzXSkoW0NIM10pW0NIM10=

> <s_epik_cmdline>
J2VwaWtfcHl0aG9uJywgJy1waCcsICc3LjAnLCAnLXRuJywgJzgnLCAnLW1hJywgJzIwMCcsICctaW1hZScsICc8aW5maWxlLm1hZT4nLCAnLW9tYWUnLCAnPG91dGZpbGUubWFlPic=

> <r_lp_tautomer_probability>
1

> <r_epik_Ionization_Penalty>
  0.0131

> <r_epik_Ionization_Penalty_Charging>
  0.0131

> <r_epik_Ionization_Penalty_Neutral>
  0.0000

> <r_epik_State_Penalty>
  0.0102

> <r_epik_Charging_Adjusted_Penalty>
0.0232515

> <i_epik_Tot_Q>
1

> <i_epik_Tot_abs_Q>
1

> <s_lp_Force_Field>
OPLS_2005

> <r_lp_Energy>
15.3855

> <b_lp_Chiralities_Consistent>
1

> <s_lp_Variant>
BACE_110.smi:1-1

> <chiral flag>
1

> <version>
0

> <s_i_glide_gridfile>
second_dock_grid_2

> <i_i_glide_lignum>
224

> <i_i_glide_rotatable_bonds>
7

> <r_i_docking_score>
-3.76405

> <r_i_glide_ligand_efficiency>
-0.0941013

> <r_i_glide_ligand_efficiency_sa>
-0.321822

> <r_i_glide_ligand_efficiency_ln>
-0.802762

> <r_glide_XP_GScore>
-3.77425

> <r_i_glide_gscore>
-3.77425

> <r_i_glide_evdw>
-42.7637

> <r_i_glide_ecoul>
-7.76864

> <r_i_glide_energy>
-50.5324

> <r_i_glide_einternal>
1.51381

> <r_i_glide_emodel>
-64.4683

> <r_glide_XP_HBond>
-0.508174

> <i_i_glide_confnum>
1

> <i_i_glide_posenum>
8

> <r_i_glide_eff_state_penalty>
0.0102

> <i_glide_XP_PoseRank>
1

$$$$
BACE_110.smi:1
                    3D
 Structure written by MMmdl.
 82 85  0  0  1  0            999 V2000
   26.1266   44.6337   -7.7445 C   0  0  0  0  0  0
   24.7054   44.1371   -7.8887 C   0  0  0  0  0  0
   24.2562   43.5769   -9.1011 C   0  0  0  0  0  0
   22.9409   43.0759   -9.1605 C   0  0  0  0  0  0
   22.1165   43.2101   -8.0238 C   0  0  0  0  0  0
   22.6555   43.7820   -6.8593 C   0  0  0  0  0  0
   23.9290   44.2354   -6.7873 N   0  0  0  0  0  0
   21.8508   43.8734   -5.7446 O   0  0  0  0  0  0
   22.4640   43.8714   -4.4572 C   0  0  0  0  0  0
   22.9416   42.4618   -4.0893 C   0  0  0  0  0  0
   21.7621   41.4920   -3.9051 C   0  0  0  0  0  0
   22.1571   40.0220   -4.0955 C   0  0  0  0  0  0
   22.4600   39.7511   -5.4607 O   0  0  0  0  0  0
   21.4455   39.5103   -6.3622 C   0  0  0  0  0  0
   21.8319   39.2393   -7.6901 C   0  0  0  0  0  0
   20.8699   38.9870   -8.6913 C   0  0  0  0  0  0
   21.2978   38.8120  -10.1429 C   0  0  0  0  0  0
   21.4172   40.1266  -10.9575 C   0  0  2  0  0  0
   21.8601   41.1916  -10.0665 N   0  0  0  0  0  0
   22.4439   42.3540  -10.3725 C   0  0  0  0  0  0
   22.6096   42.7752  -11.5159 O   0  0  0  0  0  0
   20.0975   40.4768  -11.6969 C   0  0  2  0  0  0
   20.4582   41.2197  -12.8403 O   0  0  0  0  0  0
   19.0792   41.2880  -10.8690 C   0  0  0  0  0  0
   17.6943   40.9130  -11.1803 N   0  0  0  0  0  0
   16.6545   41.6656  -10.4638 C   0  0  0  0  0  0
   15.2946   41.0896  -10.9097 C   0  0  0  0  0  0
   16.7544   41.3615   -8.9475 C   0  0  0  0  0  0
   16.6872   43.1612  -10.7329 C   0  0  0  0  0  0
   17.0392   44.1715   -9.7748 C   0  0  0  0  0  0
   17.1833   45.4114  -10.3359 C   0  0  0  0  0  0
   16.8090   45.2556  -12.0238 S   0  0  0  0  0  0
   16.5185   43.6033  -11.9678 N   0  0  0  0  0  0
   17.6440   46.7030   -9.7082 C   0  0  0  0  0  0
   16.6514   47.8377  -10.0173 C   0  0  0  0  0  0
   19.0333   47.0825  -10.2550 C   0  0  0  0  0  0
   17.7497   46.5747   -8.1729 C   0  0  0  0  0  0
   19.5044   38.9360   -8.3455 C   0  0  0  0  0  0
   19.1053   39.2071   -7.0242 C   0  0  0  0  0  0
   20.0661   39.5180   -6.0440 C   0  0  0  0  0  0
   22.1847   39.9535  -11.7132 H   0  0  0  0  0  0
   19.6331   39.5589  -12.0591 H   0  0  0  0  0  0
   26.5715   44.8420   -8.7184 H   0  0  0  0  0  0
   26.7351   43.8799   -7.2415 H   0  0  0  0  0  0
   26.1550   45.5512   -7.1556 H   0  0  0  0  0  0
   24.9187   43.4885   -9.9511 H   0  0  0  0  0  0
   21.0978   42.8511   -8.0193 H   0  0  0  0  0  0
   23.2611   44.6115   -4.3741 H   0  0  0  0  0  0
   21.7014   44.1500   -3.7376 H   0  0  0  0  0  0
   23.6311   42.1018   -4.8495 H   0  0  0  0  0  0
   23.5168   42.5056   -3.1663 H   0  0  0  0  0  0
   21.3447   41.6299   -2.9074 H   0  0  0  0  0  0
   20.9594   41.7384   -4.5998 H   0  0  0  0  0  0
   23.0467   39.8031   -3.5056 H   0  0  0  0  0  0
   21.3876   39.3572   -3.7140 H   0  0  0  0  0  0
   22.8827   39.2554   -7.9465 H   0  0  0  0  0  0
   22.2653   38.3029  -10.1416 H   0  0  0  0  0  0
   20.5953   38.1475  -10.6340 H   0  0  0  0  0  0
   21.7968   40.9771   -9.0802 H   0  0  0  0  0  0
   21.1026   41.8625  -12.5660 H   0  0  0  0  0  0
   19.2663   41.1100   -9.8134 H   0  0  0  0  0  0
   19.2384   42.3562  -11.0218 H   0  0  0  0  0  0
   17.5562   39.9148  -11.0618 H   0  0  0  0  0  0
   14.4637   41.6150  -10.4362 H   0  0  0  0  0  0
   15.2008   40.0328  -10.6521 H   0  0  0  0  0  0
   15.1617   41.1608  -11.9870 H   0  0  0  0  0  0
   15.9271   41.8129   -8.3971 H   0  0  0  0  0  0
   17.6739   41.7301   -8.4926 H   0  0  0  0  0  0
   16.7112   40.2895   -8.7524 H   0  0  0  0  0  0
   17.2310   43.9472   -8.7372 H   0  0  0  0  0  0
   16.9580   48.7743   -9.5508 H   0  0  0  0  0  0
   15.6601   47.5895   -9.6439 H   0  0  0  0  0  0
   16.5659   48.0222  -11.0884 H   0  0  0  0  0  0
   19.0129   47.2292  -11.3353 H   0  0  0  0  0  0
   19.7666   46.3016  -10.0463 H   0  0  0  0  0  0
   19.4013   48.0067   -9.8079 H   0  0  0  0  0  0
   18.0682   47.5125   -7.7143 H   0  0  0  0  0  0
   18.4774   45.8142   -7.8838 H   0  0  0  0  0  0
   16.7929   46.2995   -7.7268 H   0  0  0  0  0  0
   18.7567   38.7227   -9.0950 H   0  0  0  0  0  0
   18.0569   39.1948   -6.7624 H   0  0  0  0  0  0
   19.7099   39.7501   -5.0523 H   0  0  0  0  0  0
  1  2  1  0  0  0
  1 43  1  0  0  0
  1 44  1  0  0  0
  1 45  1  0  0  0
  2  7  1  0  0  0
  2  3  2  0  0  0
  3  4  1  0  0  0
  3 46  1  0  0  0
  4 20  1  0  0  0
  4  5  2  0  0  0
  5  6  1  0  0  0
  5 47  1  0  0  0
  6  7  2  0  0  0
  6  8  1  0  0  0
  8  9  1  0  0  0
  9 10  1  0  0  0
  9 48  1  0  0  0
  9 49  1  0  0  0
 10 11  1  0  0  0
 10 50  1  0  0  0
 10 51  1  0  0  0
 11 12  1  0  0  0
 11 52  1  0  0  0
 11 53  1  0  0  0
 12 13  1  0  0  0
 12 54  1  0  0  0
 12 55  1  0  0  0
 13 14  1  0  0  0
 14 40  1  0  0  0
 14 15  2  0  0  0
 15 16  1  0  0  0
 15 56  1  0  0  0
 16 17  1  0  0  0
 16 38  2  0  0  0
 17 18  1  0  0  0
 17 57  1  0  0  0
 17 58  1  0  0  0
 18 41  1  0  0  0
 18 19  1  0  0  0
 18 22  1  0  0  0
 19 20  1  0  0  0
 19 59  1  0  0  0
 20 21  2  0  0  0
 22 42  1  0  0  0
 22 23  1  0  0  0
 22 24  1  0  0  0
 23 60  1  0  0  0
 24 25  1  0  0  0
 24 61  1  0  0  0
 24 62  1  0  0  0
 25 26  1  0  0  0
 25 63  1  0  0  0
 26 27  1  0  0  0
 26 28  1  0  0  0
 26 29  1  0  0  0
 27 64  1  0  0  0
 27 65  1  0  0  0
 27 66  1  0  0  0
 28 67  1  0  0  0
 28 68  1  0  0  0
 28 69  1  0  0  0
 29 33  2  0  0  0
 29 30  1  0  0  0
 30 31  2  0  0  0
 30 70  1  0  0  0
 31 32  1  0  0  0
 31 34  1  0  0  0
 32 33  1  0  0  0
 34 35  1  0  0  0
 34 36  1  0  0  0
 34 37  1  0  0  0
 35 71  1  0  0  0
 35 72  1  0  0  0
 35 73  1  0  0  0
 36 74  1  0  0  0
 36 75  1  0  0  0
 36 76  1  0  0  0
 37 77  1  0  0  0
 37 78  1  0  0  0
 37 79  1  0  0  0
 38 39  1  0  0  0
 38 80  1  0  0  0
 39 40  2  0  0  0
 39 81  1  0  0  0
 40 82  1  0  0  0
M  END
> <s_m_source_file>
BACE_110.smi

> <i_m_source_file_index>
1

> <i_lp_mmshare_version>
42013

> <i_f3d_flags>
0

> <s_epik_input>
YzEyW2NIXWMoW0NIM10pbmMoW2NIXTEpT1tDSDJdW0NIMl1bQ0gyXVtDSDJdT2MzW2NIXWMoW2NIXVtjSF1bY0hdMylbQ0gyXVtDQEhdKFtOSF1DMj1PKVtDQEhdKFtPSF0pW0NIMl1bTkhdQyhbQ0gzXSkoW0NIM10pYzRbY0hdYyhzbjQpQyhbQ0gzXSkoW0NIM10pW0NIM10=

> <s_epik_cmdline>
J2VwaWtfcHl0aG9uJywgJy1waCcsICc3LjAnLCAnLXRuJywgJzgnLCAnLW1hJywgJzIwMCcsICctaW1hZScsICc8aW5maWxlLm1hZT4nLCAnLW9tYWUnLCAnPG91dGZpbGUubWFlPic=

> <r_lp_tautomer_probability>
1

> <r_epik_Ionization_Penalty>
  2.2656

> <r_epik_Ionization_Penalty_Charging>
  0.0000

> <r_epik_Ionization_Penalty_Neutral>
  2.2656

> <r_epik_State_Penalty>
  2.4137

> <r_epik_Charging_Adjusted_Penalty>
2.41373

> <i_epik_Tot_Q>
0

> <i_epik_Tot_abs_Q>
0

> <s_lp_Force_Field>
OPLS_2005

> <r_lp_Energy>
31.3902

> <b_lp_Chiralities_Consistent>
1

> <s_lp_Variant>
BACE_110.smi:1-2

> <chiral flag>
1

> <version>
0

> <s_i_glide_gridfile>
second_dock_grid_2

> <i_i_glide_lignum>
225

> <i_i_glide_rotatable_bonds>
7

> <r_i_docking_score>
-2.72837

> <r_i_glide_ligand_efficiency>
-0.0682093

> <r_i_glide_ligand_efficiency_sa>
-0.233273

> <r_i_glide_ligand_efficiency_ln>
-0.581882

> <r_glide_XP_GScore>
-5.14207

> <r_i_glide_gscore>
-5.14207

> <r_i_glide_evdw>
-40.6502

> <r_i_glide_ecoul>
-8.55719

> <r_i_glide_energy>
-49.2074

> <r_i_glide_einternal>
8.71984

> <r_i_glide_emodel>
-59.3369

> <r_glide_XP_HBond>
-1.18

> <i_i_glide_confnum>
1

> <i_i_glide_posenum>
1

> <r_i_glide_eff_state_penalty>
2.4137

> <i_glide_XP_PoseRank>
1

$$$$
BACE_111.smi:1
                    3D
 Structure written by MMmdl.
 89 93  0  0  1  0            999 V2000
   26.7869   46.4586   -6.4563 C   0  0  0  0  0  0
   28.1306   45.7118   -6.4280 C   0  0  0  0  0  0
   28.1201   44.5608   -5.4107 C   0  0  0  0  0  0
   28.5568   45.2287   -7.8088 C   0  0  0  0  0  0
   27.6898   44.4403   -8.5940 C   0  0  0  0  0  0
   28.0718   43.9880   -9.8786 C   0  0  0  0  0  0
   29.3724   44.2892  -10.3570 C   0  0  0  0  0  0
   30.2338   45.0845   -9.5767 C   0  0  0  0  0  0
   29.8312   45.5552   -8.3127 C   0  0  0  0  0  0
   29.8468   43.8417  -11.5722 O   0  0  0  0  0  0
   29.1942   42.7350  -12.1938 C   0  0  0  0  0  0
   29.6396   41.4259  -11.5160 C   0  0  0  0  0  0
   29.6788   42.7271  -13.6523 C   0  0  0  0  0  0
   27.6717   42.9572  -12.1500 C   0  0  0  0  0  0
   27.1252   43.1369  -10.7218 C   0  0  2  0  0  0
   25.7527   43.7006  -10.8259 N   0  3  0  0  0  0
   24.7095   43.2487   -9.8671 C   0  0  0  0  0  0
   24.1353   41.8511  -10.1779 C   0  0  1  0  0  0
   25.1638   40.9500   -9.8567 O   0  0  0  0  0  0
   22.8429   41.5034   -9.3813 C   0  0  2  0  0  0
   22.7344   40.0037   -8.9874 C   0  0  0  0  0  0
   21.4414   39.6296   -8.2775 C   0  0  0  0  0  0
   20.4254   38.9206   -8.9528 C   0  0  0  0  0  0
   19.2234   38.5722   -8.2990 C   0  0  0  0  0  0
   19.0675   38.9150   -6.9328 C   0  0  0  0  0  0
   20.0774   39.6280   -6.2613 C   0  0  0  0  0  0
   21.2623   39.9840   -6.9267 C   0  0  0  0  0  0
   18.2708   37.9202   -9.0539 O   0  0  0  0  0  0
   16.9510   37.7610   -8.5327 C   0  0  0  0  0  0
   15.9478   37.7586   -9.6946 C   0  0  0  0  0  0
   15.6574   39.1361  -10.3366 C   0  0  0  0  0  0
   16.9172   39.9426  -10.6786 C   0  0  0  0  0  0
   16.6170   41.0991  -11.4538 O   0  0  0  0  0  0
   17.5799   42.0895  -11.4984 C   0  0  0  0  0  0
   18.8598   41.9820  -10.9015 C   0  0  0  0  0  0
   19.7236   43.0977  -10.9079 C   0  0  0  0  0  0
   19.2774   44.2727  -11.5471 C   0  0  0  0  0  0
   18.0059   44.2754  -12.1509 C   0  0  0  0  0  0
   17.4962   45.5257  -12.8320 C   0  0  0  0  0  0
   17.1755   43.2083  -12.1399 N   0  0  0  0  0  0
   21.0389   43.0644  -10.1807 C   0  0  0  0  0  0
   21.5107   44.0855   -9.6810 O   0  0  0  0  0  0
   21.6456   41.8673  -10.1442 N   0  0  0  0  0  0
   27.1300   42.1596  -10.2500 H   0  0  0  0  0  0
   23.9354   41.7511  -11.2403 H   0  0  0  0  0  0
   22.8449   42.0704   -8.4486 H   0  0  0  0  0  0
   26.8203   47.2938   -7.1565 H   0  0  0  0  0  0
   26.5481   46.8642   -5.4721 H   0  0  0  0  0  0
   25.9623   45.8078   -6.7468 H   0  0  0  0  0  0
   28.8779   46.4295   -6.0868 H   0  0  0  0  0  0
   29.1148   44.1270   -5.3137 H   0  0  0  0  0  0
   27.4342   43.7637   -5.7067 H   0  0  0  0  0  0
   27.8124   44.9070   -4.4220 H   0  0  0  0  0  0
   26.7341   44.1843   -8.1770 H   0  0  0  0  0  0
   31.2209   45.3250   -9.9443 H   0  0  0  0  0  0
   30.5114   46.1556   -7.7263 H   0  0  0  0  0  0
   29.2334   40.5559  -12.0356 H   0  0  0  0  0  0
   29.3331   41.3634  -10.4749 H   0  0  0  0  0  0
   30.7249   41.3335  -11.5337 H   0  0  0  0  0  0
   29.2492   41.8928  -14.2104 H   0  0  0  0  0  0
   30.7627   42.6295  -13.7087 H   0  0  0  0  0  0
   29.4066   43.6476  -14.1695 H   0  0  0  0  0  0
   27.1449   42.1493  -12.6554 H   0  0  0  0  0  0
   27.4590   43.8600  -12.7257 H   0  0  0  0  0  0
   25.8350   44.7055  -10.7643 H   0  0  0  0  0  0
   25.0412   43.2897   -8.8332 H   0  0  0  0  0  0
   23.9215   43.9889   -9.9465 H   0  0  0  0  0  0
   24.8764   40.0524  -10.0112 H   0  0  0  0  0  0
   22.8484   39.3713   -9.8705 H   0  0  0  0  0  0
   23.5508   39.7325   -8.3169 H   0  0  0  0  0  0
   20.5565   38.6500   -9.9914 H   0  0  0  0  0  0
   18.1844   38.6470   -6.3746 H   0  0  0  0  0  0
   19.9383   39.8987   -5.2240 H   0  0  0  0  0  0
   22.0314   40.5260   -6.3960 H   0  0  0  0  0  0
   16.6448   38.5265   -7.8215 H   0  0  0  0  0  0
   16.9137   36.7928   -8.0398 H   0  0  0  0  0  0
   16.3101   37.0530  -10.4388 H   0  0  0  0  0  0
   15.0014   37.3512   -9.3400 H   0  0  0  0  0  0
   15.0588   38.9924  -11.2364 H   0  0  0  0  0  0
   15.0400   39.7253   -9.6577 H   0  0  0  0  0  0
   17.6388   39.3296  -11.2220 H   0  0  0  0  0  0
   17.3528   40.2344   -9.7251 H   0  0  0  0  0  0
   19.1715   41.0818  -10.3972 H   0  0  0  0  0  0
   19.8954   45.1584  -11.5627 H   0  0  0  0  0  0
   17.4529   46.3498  -12.1209 H   0  0  0  0  0  0
   16.4965   45.3762  -13.2397 H   0  0  0  0  0  0
   18.1677   45.8097  -13.6400 H   0  0  0  0  0  0
   21.1678   41.1096  -10.6084 H   0  0  0  0  0  0
   25.4055   43.4699  -11.7439 H   0  0  0  0  0  0
  1  2  1  0  0  0
  1 47  1  0  0  0
  1 48  1  0  0  0
  1 49  1  0  0  0
  2  3  1  0  0  0
  2  4  1  0  0  0
  2 50  1  0  0  0
  3 51  1  0  0  0
  3 52  1  0  0  0
  3 53  1  0  0  0
  4  9  1  0  0  0
  4  5  2  0  0  0
  5  6  1  0  0  0
  5 54  1  0  0  0
  6 15  1  0  0  0
  6  7  2  0  0  0
  7  8  1  0  0  0
  7 10  1  0  0  0
  8  9  2  0  0  0
  8 55  1  0  0  0
  9 56  1  0  0  0
 10 11  1  0  0  0
 11 12  1  0  0  0
 11 13  1  0  0  0
 11 14  1  0  0  0
 12 57  1  0  0  0
 12 58  1  0  0  0
 12 59  1  0  0  0
 13 60  1  0  0  0
 13 61  1  0  0  0
 13 62  1  0  0  0
 14 15  1  0  0  0
 14 63  1  0  0  0
 14 64  1  0  0  0
 15 44  1  0  0  0
 15 16  1  0  0  0
 16 17  1  0  0  0
 16 65  1  0  0  0
 16 89  1  0  0  0
 17 18  1  0  0  0
 17 66  1  0  0  0
 17 67  1  0  0  0
 18 45  1  0  0  0
 18 19  1  0  0  0
 18 20  1  0  0  0
 19 68  1  0  0  0
 20 46  1  0  0  0
 20 43  1  0  0  0
 20 21  1  0  0  0
 21 22  1  0  0  0
 21 69  1  0  0  0
 21 70  1  0  0  0
 22 27  1  0  0  0
 22 23  2  0  0  0
 23 24  1  0  0  0
 23 71  1  0  0  0
 24 25  2  0  0  0
 24 28  1  0  0  0
 25 26  1  0  0  0
 25 72  1  0  0  0
 26 27  2  0  0  0
 26 73  1  0  0  0
 27 74  1  0  0  0
 28 29  1  0  0  0
 29 30  1  0  0  0
 29 75  1  0  0  0
 29 76  1  0  0  0
 30 31  1  0  0  0
 30 77  1  0  0  0
 30 78  1  0  0  0
 31 32  1  0  0  0
 31 79  1  0  0  0
 31 80  1  0  0  0
 32 33  1  0  0  0
 32 81  1  0  0  0
 32 82  1  0  0  0
 33 34  1  0  0  0
 34 40  1  0  0  0
 34 35  2  0  0  0
 35 36  1  0  0  0
 35 83  1  0  0  0
 36 37  2  0  0  0
 36 41  1  0  0  0
 37 38  1  0  0  0
 37 84  1  0  0  0
 38 39  1  0  0  0
 38 40  2  0  0  0
 39 85  1  0  0  0
 39 86  1  0  0  0
 39 87  1  0  0  0
 41 42  2  0  0  0
 41 43  1  0  0  0
 43 88  1  0  0  0
M  CHG  1  16   1
M  END
> <s_m_source_file>
BACE_111.smi

> <i_m_source_file_index>
1

> <i_lp_mmshare_version>
42013

> <i_f3d_flags>
0

> <s_epik_input>
W0NIM11bQ0hdKFtDSDNdKWMoW2NIXTEpW2NIXVtjSF1jKGMxMilPQyhbQ0gzXSkoW0NIM10pW0NIMl1bQ0BASF0yW05IXVtDSDJdW0NAQEhdKFtPSF0pW0NASF0oW0NIMl0zKVtOSF1DKD1PKWMoW2NIXWMobjQpW0NIM10pW2NIXWM0T1tDSDJdW0NIMl1bQ0gyXVtDSDJdT2MoW2NIXWMzNSlbY0hdW2NIXVtjSF01

> <s_epik_cmdline>
J2VwaWtfcHl0aG9uJywgJy1waCcsICc3LjAnLCAnLXRuJywgJzgnLCAnLW1hJywgJzIwMCcsICctaW1hZScsICc8aW5maWxlLm1hZT4nLCAnLW9tYWUnLCAnPG91dGZpbGUubWFlPic=

> <r_lp_tautomer_probability>
1

> <r_epik_Ionization_Penalty>
  0.0207

> <r_epik_Ionization_Penalty_Charging>
  0.0207

> <r_epik_Ionization_Penalty_Neutral>
  0.0000

> <r_epik_State_Penalty>
  0.0166

> <r_epik_Charging_Adjusted_Penalty>
0.0372807

> <i_epik_Tot_Q>
1

> <i_epik_Tot_abs_Q>
1

> <s_lp_Force_Field>
OPLS_2005

> <r_lp_Energy>
37.0547

> <b_lp_Chiralities_Consistent>
1

> <s_lp_Variant>
BACE_111.smi:1-1

> <chiral flag>
1

> <version>
0

> <s_i_glide_gridfile>
second_dock_grid_2

> <i_i_glide_lignum>
226

> <i_i_glide_rotatable_bonds>
6

> <r_i_docking_score>
-3.58655

> <r_i_glide_ligand_efficiency>
-0.0834082

> <r_i_glide_ligand_efficiency_sa>
-0.292212

> <r_i_glide_ligand_efficiency_ln>
-0.753288

> <r_glide_XP_GScore>
-3.60315

> <r_i_glide_gscore>
-3.60315

> <r_i_glide_evdw>
-41.7737

> <r_i_glide_ecoul>
-11.8565

> <r_i_glide_energy>
-53.6302

> <r_i_glide_einternal>
3.08659

> <r_i_glide_emodel>
-73.3621

> <r_glide_XP_HBond>
-0.844865

> <i_i_glide_confnum>
1

> <i_i_glide_posenum>
4

> <r_i_glide_eff_state_penalty>
0.0166

> <i_glide_XP_PoseRank>
1

$$$$
