BACE_127.smi:1
                    3D
 Structure written by MMmdl.
 83 86  0  0  1  0            999 V2000
   19.7355   49.5527   -6.5223 C   0  0  0  0  0  0
   19.6303   48.1772   -6.2046 O   0  0  0  0  0  0
   19.2591   47.3884   -7.3241 C   0  0  0  0  0  0
   19.3182   45.9010   -7.0340 C   0  0  0  0  0  0
   19.9832   45.4110   -5.8916 C   0  0  0  0  0  0
   20.0602   44.0290   -5.6362 C   0  0  0  0  0  0
   19.4842   43.1264   -6.5612 C   0  0  0  0  0  0
   18.7693   43.6036   -7.6828 C   0  0  0  0  0  0
   18.7146   44.9929   -7.9255 C   0  0  0  0  0  0
   18.0633   42.6652   -8.6180 C   0  0  0  0  0  0
   18.1197   42.8486   -9.8339 O   0  0  0  0  0  0
   17.2898   41.7261   -8.0400 N   0  0  0  0  0  0
   16.3461   40.8236   -8.7305 C   0  0  1  0  0  0
   16.5512   39.3425   -8.3130 C   0  0  0  0  0  0
   18.0187   38.9539   -8.2458 C   0  0  0  0  0  0
   18.7463   39.2564   -7.0814 C   0  0  0  0  0  0
   20.1405   39.1231   -7.0346 C   0  0  0  0  0  0
   20.8080   38.5528   -8.1460 C   0  0  0  0  0  0
   20.0738   38.1748   -9.2906 C   0  0  0  0  0  0
   18.6826   38.3926   -9.3535 C   0  0  0  0  0  0
   20.7446   39.6107   -5.8994 O   0  0  0  0  0  0
   22.1522   39.5884   -5.8252 C   0  0  0  0  0  0
   22.6167   40.3184   -4.5551 C   0  0  0  0  0  0
   22.3716   41.8344   -4.6132 C   0  0  0  0  0  0
   20.9746   42.2430   -4.1228 C   0  0  0  0  0  0
   20.6773   43.6326   -4.4399 N   0  0  0  0  0  0
   14.8693   41.3004   -8.5701 C   0  0  2  0  0  0
   14.1346   40.7310   -9.6398 O   0  0  0  0  0  0
   14.7690   42.8493   -8.5976 C   0  0  0  0  0  0
   13.4306   43.4407   -8.7476 N   0  0  0  0  0  0
   12.9245   43.5617  -10.1151 C   0  0  0  0  0  0
   13.6597   44.5439  -10.9949 C   0  0  0  0  0  0
   13.2418   44.9406  -12.2903 C   0  0  0  0  0  0
   14.0720   45.7849  -12.8577 N   0  0  0  0  0  0
   15.1124   45.8772  -12.0062 N   0  0  0  0  0  0
   16.2794   46.6644  -12.3717 C   0  0  0  0  0  0
   17.6276   45.9511  -12.1021 C   0  0  0  0  0  0
   17.6746   44.4858  -12.5817 C   0  0  0  0  0  0
   18.7987   46.7506  -12.6928 C   0  0  0  0  0  0
   14.8600   45.1872  -10.8417 C   0  0  0  0  0  0
   16.5938   40.8657   -9.7941 H   0  0  0  0  0  0
   14.4606   40.9337   -7.6250 H   0  0  0  0  0  0
   20.0594   50.1046   -5.6387 H   0  0  0  0  0  0
   18.7750   49.9547   -6.8527 H   0  0  0  0  0  0
   20.4722   49.7216   -7.3124 H   0  0  0  0  0  0
   19.9262   47.5894   -8.1633 H   0  0  0  0  0  0
   18.2493   47.6562   -7.6392 H   0  0  0  0  0  0
   20.4514   46.1009   -5.2039 H   0  0  0  0  0  0
   19.5352   42.0606   -6.3993 H   0  0  0  0  0  0
   18.1913   45.3694   -8.7922 H   0  0  0  0  0  0
   17.3106   41.6662   -7.0288 H   0  0  0  0  0  0
   16.1128   39.1676   -7.3288 H   0  0  0  0  0  0
   16.0277   38.6770   -9.0003 H   0  0  0  0  0  0
   18.2344   39.6885   -6.2363 H   0  0  0  0  0  0
   21.8779   38.4132   -8.1535 H   0  0  0  0  0  0
   20.5866   37.7501  -10.1388 H   0  0  0  0  0  0
   18.1374   38.1497  -10.2550 H   0  0  0  0  0  0
   22.4599   38.5493   -5.7898 H   0  0  0  0  0  0
   22.6106   40.0480   -6.7007 H   0  0  0  0  0  0
   22.1519   39.8836   -3.6706 H   0  0  0  0  0  0
   23.6851   40.1501   -4.4389 H   0  0  0  0  0  0
   23.1175   42.3385   -3.9978 H   0  0  0  0  0  0
   22.5365   42.1930   -5.6309 H   0  0  0  0  0  0
   20.2099   41.5780   -4.5100 H   0  0  0  0  0  0
   20.9315   42.1216   -3.0373 H   0  0  0  0  0  0
   20.8605   44.3331   -3.7246 H   0  0  0  0  0  0
   13.2263   40.6681   -9.3600 H   0  0  0  0  0  0
   15.1901   43.2080   -7.6517 H   0  0  0  0  0  0
   15.4328   43.2037   -9.3807 H   0  0  0  0  0  0
   12.7676   42.8603   -8.2400 H   0  0  0  0  0  0
   12.8828   42.5851  -10.5967 H   0  0  0  0  0  0
   11.8815   43.8672  -10.0504 H   0  0  0  0  0  0
   12.3600   44.6387  -12.8301 H   0  0  0  0  0  0
   16.2068   46.9077  -13.4333 H   0  0  0  0  0  0
   16.2388   47.6103  -11.8321 H   0  0  0  0  0  0
   17.7709   45.9282  -11.0232 H   0  0  0  0  0  0
   16.9642   43.8563  -12.0422 H   0  0  0  0  0  0
   18.6630   44.0535  -12.4183 H   0  0  0  0  0  0
   17.4456   44.3995  -13.6398 H   0  0  0  0  0  0
   18.8050   47.7740  -12.3148 H   0  0  0  0  0  0
   18.7435   46.7968  -13.7801 H   0  0  0  0  0  0
   19.7577   46.2955  -12.4397 H   0  0  0  0  0  0
   15.5706   45.1968  -10.0295 H   0  0  0  0  0  0
  1  2  1  0  0  0
  1 43  1  0  0  0
  1 44  1  0  0  0
  1 45  1  0  0  0
  2  3  1  0  0  0
  3  4  1  0  0  0
  3 46  1  0  0  0
  3 47  1  0  0  0
  4  9  1  0  0  0
  4  5  2  0  0  0
  5  6  1  0  0  0
  5 48  1  0  0  0
  6 26  1  0  0  0
  6  7  2  0  0  0
  7  8  1  0  0  0
  7 49  1  0  0  0
  8  9  2  0  0  0
  8 10  1  0  0  0
  9 50  1  0  0  0
 10 11  2  0  0  0
 10 12  1  0  0  0
 12 13  1  0  0  0
 12 51  1  0  0  0
 13 41  1  0  0  0
 13 14  1  0  0  0
 13 27  1  0  0  0
 14 15  1  0  0  0
 14 52  1  0  0  0
 14 53  1  0  0  0
 15 20  1  0  0  0
 15 16  2  0  0  0
 16 17  1  0  0  0
 16 54  1  0  0  0
 17 18  2  0  0  0
 17 21  1  0  0  0
 18 19  1  0  0  0
 18 55  1  0  0  0
 19 20  2  0  0  0
 19 56  1  0  0  0
 20 57  1  0  0  0
 21 22  1  0  0  0
 22 23  1  0  0  0
 22 58  1  0  0  0
 22 59  1  0  0  0
 23 24  1  0  0  0
 23 60  1  0  0  0
 23 61  1  0  0  0
 24 25  1  0  0  0
 24 62  1  0  0  0
 24 63  1  0  0  0
 25 26  1  0  0  0
 25 64  1  0  0  0
 25 65  1  0  0  0
 26 66  1  0  0  0
 27 42  1  0  0  0
 27 28  1  0  0  0
 27 29  1  0  0  0
 28 67  1  0  0  0
 29 30  1  0  0  0
 29 68  1  0  0  0
 29 69  1  0  0  0
 30 31  1  0  0  0
 30 70  1  0  0  0
 31 32  1  0  0  0
 31 71  1  0  0  0
 31 72  1  0  0  0
 32 40  2  0  0  0
 32 33  1  0  0  0
 33 34  2  0  0  0
 33 73  1  0  0  0
 34 35  1  0  0  0
 35 36  1  0  0  0
 35 40  1  0  0  0
 36 37  1  0  0  0
 36 74  1  0  0  0
 36 75  1  0  0  0
 37 38  1  0  0  0
 37 39  1  0  0  0
 37 76  1  0  0  0
 38 77  1  0  0  0
 38 78  1  0  0  0
 38 79  1  0  0  0
 39 80  1  0  0  0
 39 81  1  0  0  0
 39 82  1  0  0  0
 40 83  1  0  0  0
M  END
> <s_m_source_file>
BACE_127.smi

> <i_m_source_file_index>
1

> <i_lp_mmshare_version>
42013

> <i_f3d_flags>
0

> <s_epik_input>
W05IXTFbQ0gyXVtDSDJdW0NIMl1bQ0gyXU9jKFtjSF1bY0hdW2NIXTIpW2NIXWMyW0NIMl1bQ0BIXShbTkhdQyg9TyljKFtjSF0zKVtjSF1jKFtjSF1jMTMpW0NIMl1PW0NIM10pW0NASF0oW09IXSlbQ0gyXVtOSF1bQ0gyXWM0W2NIXW5uKFtjSF00KVtDSDJdW0NIXShbQ0gzXSlbQ0gzXQ==

> <s_epik_cmdline>
J2VwaWtfcHl0aG9uJywgJy1waCcsICc3LjAnLCAnLXRuJywgJzgnLCAnLW1hJywgJzIwMCcsICctaW1hZScsICc8aW5maWxlLm1hZT4nLCAnLW9tYWUnLCAnPG91dGZpbGUubWFlPic=

> <r_lp_tautomer_probability>
1

> <r_epik_Ionization_Penalty>
  1.3539

> <r_epik_Ionization_Penalty_Charging>
  0.0000

> <r_epik_Ionization_Penalty_Neutral>
  1.3539

> <r_epik_State_Penalty>
  1.4315

> <r_epik_Charging_Adjusted_Penalty>
1.43151

> <i_epik_Tot_Q>
0

> <i_epik_Tot_abs_Q>
0

> <s_lp_Force_Field>
OPLS_2005

> <r_lp_Energy>
38.3918

> <b_lp_Chiralities_Consistent>
1

> <s_lp_Variant>
BACE_127.smi:1-2

> <chiral flag>
1

> <version>
0

> <s_i_glide_gridfile>
second_dock_grid_2

> <i_i_glide_lignum>
261

> <i_i_glide_rotatable_bonds>
10

> <r_i_docking_score>
-5.79536

> <r_i_glide_ligand_efficiency>
-0.144884

> <r_i_glide_ligand_efficiency_sa>
-0.495497

> <r_i_glide_ligand_efficiency_ln>
-1.23598

> <r_glide_XP_GScore>
-7.22686

> <r_i_glide_gscore>
-7.22686

> <r_i_glide_evdw>
-39.191

> <r_i_glide_ecoul>
-16.6671

> <r_i_glide_energy>
-55.858

> <r_i_glide_einternal>
0

> <r_i_glide_emodel>
-75.2245

> <r_glide_XP_HBond>
-0.766926

> <i_i_glide_confnum>
1

> <i_i_glide_posenum>
34

> <r_i_glide_eff_state_penalty>
1.4315

> <i_glide_XP_PoseRank>
1

$$$$
BACE_128.smi:1
                    3D
 Structure written by MMmdl.
 95 99  0  0  1  0            999 V2000
   13.6325   44.4079   -8.0718 C   0  0  0  0  0  0
   14.6910   45.3512   -7.9609 O   0  0  0  0  0  0
   15.5268   45.4909   -9.1103 C   0  0  0  0  0  0
   16.3516   44.2626   -9.4478 C   0  0  0  0  0  0
   15.7300   43.1786  -10.0913 C   0  0  0  0  0  0
   16.4464   42.0096  -10.3829 C   0  0  0  0  0  0
   17.8301   41.9570  -10.0978 C   0  0  0  0  0  0
   18.4875   43.0653   -9.5093 C   0  0  0  0  0  0
   17.7296   44.2064   -9.1594 C   0  0  0  0  0  0
   19.9650   43.0314   -9.2224 C   0  0  0  0  0  0
   20.4455   43.6497   -8.2725 O   0  0  0  0  0  0
   20.7051   42.3540  -10.1125 N   0  0  0  0  0  0
   22.1537   42.1233  -10.0699 C   0  0  1  0  0  0
   22.4319   40.5973  -10.1741 C   0  0  0  0  0  0
   21.6377   39.8074   -9.1548 C   0  0  0  0  0  0
   20.4212   39.1999   -9.5262 C   0  0  0  0  0  0
   19.5972   38.5919   -8.5612 C   0  0  0  0  0  0
   20.0391   38.5500   -7.2154 C   0  0  0  0  0  0
   21.2763   39.1144   -6.8500 C   0  0  0  0  0  0
   22.0749   39.7479   -7.8170 C   0  0  0  0  0  0
   18.3929   38.0932   -9.0030 O   0  0  0  0  0  0
   17.4046   37.7826   -8.0312 C   0  0  0  0  0  0
   16.0076   37.8481   -8.6660 C   0  0  0  0  0  0
   15.6084   39.2624   -9.1218 C   0  0  0  0  0  0
   16.0757   39.5979  -10.5461 C   0  0  0  0  0  0
   15.7195   40.9510  -10.9389 N   0  0  0  0  0  0
   22.8193   43.0079  -11.1567 C   0  0  2  0  0  0
   22.4674   42.5500  -12.4398 O   0  0  0  0  0  0
   24.3454   43.2762  -11.0594 C   0  0  0  0  0  0
   25.1592   42.0993  -10.6547 N   0  3  0  0  0  0
   26.6342   42.2687  -10.5226 C   0  0  1  0  0  0
   27.3443   41.9534  -11.8490 C   0  0  0  0  0  0
   28.7946   42.4839  -11.8879 C   0  0  0  0  0  0
   29.7223   41.8555  -10.8244 C   0  0  0  0  0  0
   29.4081   42.2512  -13.2749 C   0  0  0  0  0  0
   28.7621   43.8982  -11.7007 O   0  0  0  0  0  0
   28.0886   44.3629  -10.5913 C   0  0  0  0  0  0
   28.4535   45.6212  -10.0773 C   0  0  0  0  0  0
   27.8469   46.1228   -8.9109 C   0  0  0  0  0  0
   26.8644   45.3634   -8.2389 C   0  0  0  0  0  0
   26.5050   44.0987   -8.7492 C   0  0  0  0  0  0
   27.0759   43.6115   -9.9446 C   0  0  0  0  0  0
   26.1827   45.8674   -6.9729 C   0  0  0  0  0  0
   26.9432   45.4036   -5.7247 C   0  0  0  0  0  0
   25.9500   47.3896   -6.9619 C   0  0  0  0  0  0
   22.5240   42.4586   -9.0989 H   0  0  0  0  0  0
   22.3569   43.9943  -11.0910 H   0  0  0  0  0  0
   26.9636   41.5119   -9.8080 H   0  0  0  0  0  0
   12.9410   44.5285   -7.2402 H   0  0  0  0  0  0
   14.0008   43.3829   -8.0317 H   0  0  0  0  0  0
   13.0635   44.5464   -8.9912 H   0  0  0  0  0  0
   16.1944   46.3352   -8.9388 H   0  0  0  0  0  0
   14.9255   45.7495   -9.9815 H   0  0  0  0  0  0
   14.6795   43.2293  -10.3324 H   0  0  0  0  0  0
   18.3929   41.0673  -10.3316 H   0  0  0  0  0  0
   18.2106   45.0475   -8.6820 H   0  0  0  0  0  0
   20.2153   41.9292  -10.8857 H   0  0  0  0  0  0
   22.1834   40.2296  -11.1707 H   0  0  0  0  0  0
   23.4787   40.3541  -10.0141 H   0  0  0  0  0  0
   20.0817   39.2493  -10.5499 H   0  0  0  0  0  0
   19.4474   38.0803   -6.4432 H   0  0  0  0  0  0
   21.6034   39.0748   -5.8211 H   0  0  0  0  0  0
   23.0063   40.2071   -7.5236 H   0  0  0  0  0  0
   17.6109   36.7857   -7.6404 H   0  0  0  0  0  0
   17.4191   38.4781   -7.1905 H   0  0  0  0  0  0
   15.9148   37.1312   -9.4844 H   0  0  0  0  0  0
   15.2930   37.5399   -7.9051 H   0  0  0  0  0  0
   14.5196   39.3441   -9.0891 H   0  0  0  0  0  0
   15.9838   39.9951   -8.4069 H   0  0  0  0  0  0
   17.1384   39.4059  -10.6887 H   0  0  0  0  0  0
   15.5542   38.9457  -11.2393 H   0  0  0  0  0  0
   14.7202   41.0932  -10.8897 H   0  0  0  0  0  0
   23.0059   41.8035  -12.6839 H   0  0  0  0  0  0
   24.4692   44.0712  -10.3274 H   0  0  0  0  0  0
   24.7206   43.6765  -12.0029 H   0  0  0  0  0  0
   24.9883   41.3496  -11.3145 H   0  0  0  0  0  0
   27.3157   40.8798  -12.0397 H   0  0  0  0  0  0
   26.7993   42.4278  -12.6670 H   0  0  0  0  0  0
   29.7213   40.7681  -10.8927 H   0  0  0  0  0  0
   29.4378   42.1473   -9.8125 H   0  0  0  0  0  0
   30.7516   42.1907  -10.9612 H   0  0  0  0  0  0
   29.4065   41.1940  -13.5445 H   0  0  0  0  0  0
   30.4412   42.5988  -13.3169 H   0  0  0  0  0  0
   28.8594   42.7937  -14.0407 H   0  0  0  0  0  0
   29.2197   46.2006  -10.5727 H   0  0  0  0  0  0
   28.1579   47.0842   -8.5311 H   0  0  0  0  0  0
   25.7592   43.5147   -8.2288 H   0  0  0  0  0  0
   25.1930   45.4066   -6.9398 H   0  0  0  0  0  0
   27.0212   44.3159   -5.6882 H   0  0  0  0  0  0
   26.4233   45.7255   -4.8249 H   0  0  0  0  0  0
   27.9545   45.8130   -5.6947 H   0  0  0  0  0  0
   25.4177   47.7125   -7.8583 H   0  0  0  0  0  0
   26.8886   47.9440   -6.9028 H   0  0  0  0  0  0
   25.3491   47.6831   -6.0995 H   0  0  0  0  0  0
   24.8221   41.8018   -9.7517 H   0  0  0  0  0  0
  1  2  1  0  0  0
  1 49  1  0  0  0
  1 50  1  0  0  0
  1 51  1  0  0  0
  2  3  1  0  0  0
  3  4  1  0  0  0
  3 52  1  0  0  0
  3 53  1  0  0  0
  4  9  1  0  0  0
  4  5  2  0  0  0
  5  6  1  0  0  0
  5 54  1  0  0  0
  6 26  1  0  0  0
  6  7  2  0  0  0
  7  8  1  0  0  0
  7 55  1  0  0  0
  8  9  2  0  0  0
  8 10  1  0  0  0
  9 56  1  0  0  0
 10 11  2  0  0  0
 10 12  1  0  0  0
 12 13  1  0  0  0
 12 57  1  0  0  0
 13 46  1  0  0  0
 13 14  1  0  0  0
 13 27  1  0  0  0
 14 15  1  0  0  0
 14 58  1  0  0  0
 14 59  1  0  0  0
 15 20  1  0  0  0
 15 16  2  0  0  0
 16 17  1  0  0  0
 16 60  1  0  0  0
 17 18  2  0  0  0
 17 21  1  0  0  0
 18 19  1  0  0  0
 18 61  1  0  0  0
 19 20  2  0  0  0
 19 62  1  0  0  0
 20 63  1  0  0  0
 21 22  1  0  0  0
 22 23  1  0  0  0
 22 64  1  0  0  0
 22 65  1  0  0  0
 23 24  1  0  0  0
 23 66  1  0  0  0
 23 67  1  0  0  0
 24 25  1  0  0  0
 24 68  1  0  0  0
 24 69  1  0  0  0
 25 26  1  0  0  0
 25 70  1  0  0  0
 25 71  1  0  0  0
 26 72  1  0  0  0
 27 47  1  0  0  0
 27 28  1  0  0  0
 27 29  1  0  0  0
 28 73  1  0  0  0
 29 30  1  0  0  0
 29 74  1  0  0  0
 29 75  1  0  0  0
 30 31  1  0  0  0
 30 76  1  0  0  0
 30 95  1  0  0  0
 31 48  1  0  0  0
 31 42  1  0  0  0
 31 32  1  0  0  0
 32 33  1  0  0  0
 32 77  1  0  0  0
 32 78  1  0  0  0
 33 34  1  0  0  0
 33 35  1  0  0  0
 33 36  1  0  0  0
 34 79  1  0  0  0
 34 80  1  0  0  0
 34 81  1  0  0  0
 35 82  1  0  0  0
 35 83  1  0  0  0
 35 84  1  0  0  0
 36 37  1  0  0  0
 37 42  2  0  0  0
 37 38  1  0  0  0
 38 39  2  0  0  0
 38 85  1  0  0  0
 39 40  1  0  0  0
 39 86  1  0  0  0
 40 41  2  0  0  0
 40 43  1  0  0  0
 41 42  1  0  0  0
 41 87  1  0  0  0
 43 44  1  0  0  0
 43 45  1  0  0  0
 43 88  1  0  0  0
 44 89  1  0  0  0
 44 90  1  0  0  0
 44 91  1  0  0  0
 45 92  1  0  0  0
 45 93  1  0  0  0
 45 94  1  0  0  0
M  CHG  1  30   1
M  END
> <s_m_source_file>
BACE_128.smi

> <i_m_source_file_index>
1

> <i_lp_mmshare_version>
42013

> <i_f3d_flags>
0

> <s_epik_input>
W2NIXTFbY0hdYyhbQ0hdKFtDSDNdKVtDSDNdKVtjSF1jKGMxMilbQ0BIXShbQ0gyXUMoTzIpKFtDSDNdKVtDSDNdKVtOSF1bQ0gyXVtDQEBIXShbT0hdKVtDQEBIXShbTkhdQyg9TyljKFtjSF0zKVtjSF1jKFtjSF1jMzQpW0NIMl1PW0NIM10pW0NIMl1jNVtjSF1jKFtjSF1bY0hdW2NIXTUpT1tDSDJdW0NIMl1bQ0gyXVtDSDJdW05IXTQ=

> <s_epik_cmdline>
J2VwaWtfcHl0aG9uJywgJy1waCcsICc3LjAnLCAnLXRuJywgJzgnLCAnLW1hJywgJzIwMCcsICctaW1hZScsICc8aW5maWxlLm1hZT4nLCAnLW9tYWUnLCAnPG91dGZpbGUubWFlPic=

> <r_lp_tautomer_probability>
1

> <r_epik_Ionization_Penalty>
  0.0201

> <r_epik_Ionization_Penalty_Charging>
  0.0197

> <r_epik_Ionization_Penalty_Neutral>
  0.0003

> <r_epik_State_Penalty>
  0.0158

> <r_epik_Charging_Adjusted_Penalty>
0.0354898

> <i_epik_Tot_Q>
1

> <i_epik_Tot_abs_Q>
1

> <s_lp_Force_Field>
OPLS_2005

> <r_lp_Energy>
42.809

> <b_lp_Chiralities_Consistent>
1

> <s_lp_Variant>
BACE_128.smi:1-1

> <chiral flag>
1

> <version>
0

> <s_i_glide_gridfile>
second_dock_grid_2

> <i_i_glide_lignum>
262

> <i_i_glide_rotatable_bonds>
8

> <r_i_docking_score>
-2.41384

> <r_i_glide_ligand_efficiency>
-0.0536409

> <r_i_glide_ligand_efficiency_sa>
-0.190795

> <r_i_glide_ligand_efficiency_ln>
-0.502186

> <r_glide_XP_GScore>
-2.42964

> <r_i_glide_gscore>
-2.42964

> <r_i_glide_evdw>
-41.9712

> <r_i_glide_ecoul>
-11.7844

> <r_i_glide_energy>
-53.7556

> <r_i_glide_einternal>
6.36439

> <r_i_glide_emodel>
-71.1874

> <r_glide_XP_HBond>
-0.7

> <i_i_glide_confnum>
1

> <i_i_glide_posenum>
6

> <r_i_glide_eff_state_penalty>
0.0158

> <i_glide_XP_PoseRank>
1

$$$$
BACE_128.smi:1
                    3D
 Structure written by MMmdl.
 94 98  0  0  1  0            999 V2000
   16.1724   45.1276  -12.3714 C   0  0  0  0  0  0
   16.5333   43.8348  -12.8396 O   0  0  0  0  0  0
   17.8403   43.4343  -12.4646 C   0  0  0  0  0  0
   18.0353   43.1792  -10.9774 C   0  0  0  0  0  0
   16.9803   42.7525  -10.1451 C   0  0  0  0  0  0
   17.2102   42.4938   -8.7745 C   0  0  0  0  0  0
   18.5118   42.6294   -8.2454 C   0  0  0  0  0  0
   19.5847   42.9983   -9.0860 C   0  0  0  0  0  0
   19.3277   43.3113  -10.4411 C   0  0  0  0  0  0
   20.9946   42.9749   -8.5774 C   0  0  0  0  0  0
   21.2872   43.2511   -7.4152 O   0  0  0  0  0  0
   21.8508   42.5041   -9.4929 N   0  0  0  0  0  0
   23.2383   42.0670   -9.3735 C   0  0  1  0  0  0
   23.2855   40.5203   -9.2264 C   0  0  0  0  0  0
   22.2306   39.9579   -8.2802 C   0  0  0  0  0  0
   21.0724   39.3215   -8.7831 C   0  0  0  0  0  0
   20.0330   38.9149   -7.9186 C   0  0  0  0  0  0
   20.1747   39.1546   -6.5300 C   0  0  0  0  0  0
   21.3456   39.7475   -6.0223 C   0  0  0  0  0  0
   22.3774   40.1413   -6.8935 C   0  0  0  0  0  0
   18.9393   38.3045   -8.4974 O   0  0  0  0  0  0
   17.8334   37.9063   -7.6838 C   0  0  0  0  0  0
   16.9033   39.0918   -7.3661 C   0  0  0  0  0  0
   16.2186   39.6565   -8.6250 C   0  0  0  0  0  0
   15.3773   40.9214   -8.3677 C   0  0  0  0  0  0
   16.1793   42.0621   -7.9351 N   0  0  0  0  0  0
   23.9935   42.6279  -10.6194 C   0  0  2  0  0  0
   23.1599   42.5506  -11.7632 O   0  0  0  0  0  0
   25.3365   41.9516  -10.9911 C   0  0  0  0  0  0
   26.4246   42.1544  -10.0401 N   0  0  0  0  0  0
   26.8667   43.5373   -9.8311 C   0  0  1  0  0  0
   26.2924   44.0988   -8.5173 C   0  0  0  0  0  0
   27.0097   45.3804   -8.0512 C   0  0  0  0  0  0
   26.7973   46.5548   -9.0258 C   0  0  0  0  0  0
   26.5154   45.7753   -6.6504 C   0  0  0  0  0  0
   28.4079   45.1430   -7.9060 O   0  0  0  0  0  0
   29.0610   44.4637   -8.9105 C   0  0  0  0  0  0
   30.4639   44.5647   -8.9644 C   0  0  0  0  0  0
   31.1930   43.9196   -9.9795 C   0  0  0  0  0  0
   30.5341   43.1335  -10.9539 C   0  0  0  0  0  0
   29.1287   43.0024  -10.8703 C   0  0  0  0  0  0
   28.3848   43.6597   -9.8641 C   0  0  0  0  0  0
   31.3003   42.4024  -12.0670 C   0  0  0  0  0  0
   30.6484   42.5739  -13.4527 C   0  0  0  0  0  0
   32.7951   42.7593  -12.1634 C   0  0  0  0  0  0
   23.6700   42.4998   -8.4691 H   0  0  0  0  0  0
   24.1445   43.6991  -10.4770 H   0  0  0  0  0  0
   26.5217   44.1645  -10.6563 H   0  0  0  0  0  0
   15.2372   45.4399  -12.8389 H   0  0  0  0  0  0
   16.9339   45.8786  -12.6067 H   0  0  0  0  0  0
   16.0096   45.1264  -11.2885 H   0  0  0  0  0  0
   18.5663   44.1729  -12.8167 H   0  0  0  0  0  0
   18.0732   42.5070  -12.9865 H   0  0  0  0  0  0
   15.9909   42.6278  -10.5571 H   0  0  0  0  0  0
   18.6973   42.3794   -7.2095 H   0  0  0  0  0  0
   20.1359   43.6125  -11.0969 H   0  0  0  0  0  0
   21.4775   42.3517  -10.4177 H   0  0  0  0  0  0
   23.1500   40.0577  -10.2044 H   0  0  0  0  0  0
   24.2707   40.2122   -8.8733 H   0  0  0  0  0  0
   20.9602   39.1677   -9.8458 H   0  0  0  0  0  0
   19.4005   38.8918   -5.8274 H   0  0  0  0  0  0
   21.4463   39.9151   -4.9624 H   0  0  0  0  0  0
   23.2587   40.6254   -6.5033 H   0  0  0  0  0  0
   17.2689   37.1552   -8.2374 H   0  0  0  0  0  0
   18.1562   37.3987   -6.7767 H   0  0  0  0  0  0
   16.1336   38.7625   -6.6681 H   0  0  0  0  0  0
   17.4564   39.8676   -6.8404 H   0  0  0  0  0  0
   16.9646   39.8559   -9.3940 H   0  0  0  0  0  0
   15.5694   38.8888   -9.0448 H   0  0  0  0  0  0
   14.8127   41.1844   -9.2612 H   0  0  0  0  0  0
   14.6388   40.7136   -7.5943 H   0  0  0  0  0  0
   16.3707   42.0645   -6.9390 H   0  0  0  0  0  0
   23.4469   41.8084  -12.2886 H   0  0  0  0  0  0
   25.6597   42.3205  -11.9683 H   0  0  0  0  0  0
   25.1843   40.8800  -11.1256 H   0  0  0  0  0  0
   27.2186   41.5797  -10.3047 H   0  0  0  0  0  0
   25.2216   44.2810   -8.5988 H   0  0  0  0  0  0
   26.4114   43.3503   -7.7339 H   0  0  0  0  0  0
   25.7405   46.7865   -9.1392 H   0  0  0  0  0  0
   27.1954   46.3441  -10.0179 H   0  0  0  0  0  0
   27.2990   47.4554   -8.6664 H   0  0  0  0  0  0
   25.4453   45.9787   -6.6499 H   0  0  0  0  0  0
   27.0253   46.6707   -6.2910 H   0  0  0  0  0  0
   26.7032   44.9818   -5.9279 H   0  0  0  0  0  0
   30.9867   45.1631   -8.2293 H   0  0  0  0  0  0
   32.2631   44.0437   -9.9833 H   0  0  0  0  0  0
   28.6020   42.3995  -11.5937 H   0  0  0  0  0  0
   31.2444   41.3489  -11.8057 H   0  0  0  0  0  0
   29.6422   42.1617  -13.4918 H   0  0  0  0  0  0
   31.2242   42.0514  -14.2173 H   0  0  0  0  0  0
   30.5993   43.6259  -13.7351 H   0  0  0  0  0  0
   33.3281   42.5508  -11.2394 H   0  0  0  0  0  0
   32.9363   43.8139  -12.4012 H   0  0  0  0  0  0
   33.2827   42.1632  -12.9362 H   0  0  0  0  0  0
  1  2  1  0  0  0
  1 49  1  0  0  0
  1 50  1  0  0  0
  1 51  1  0  0  0
  2  3  1  0  0  0
  3  4  1  0  0  0
  3 52  1  0  0  0
  3 53  1  0  0  0
  4  9  1  0  0  0
  4  5  2  0  0  0
  5  6  1  0  0  0
  5 54  1  0  0  0
  6 26  1  0  0  0
  6  7  2  0  0  0
  7  8  1  0  0  0
  7 55  1  0  0  0
  8  9  2  0  0  0
  8 10  1  0  0  0
  9 56  1  0  0  0
 10 11  2  0  0  0
 10 12  1  0  0  0
 12 13  1  0  0  0
 12 57  1  0  0  0
 13 46  1  0  0  0
 13 14  1  0  0  0
 13 27  1  0  0  0
 14 15  1  0  0  0
 14 58  1  0  0  0
 14 59  1  0  0  0
 15 20  1  0  0  0
 15 16  2  0  0  0
 16 17  1  0  0  0
 16 60  1  0  0  0
 17 18  2  0  0  0
 17 21  1  0  0  0
 18 19  1  0  0  0
 18 61  1  0  0  0
 19 20  2  0  0  0
 19 62  1  0  0  0
 20 63  1  0  0  0
 21 22  1  0  0  0
 22 23  1  0  0  0
 22 64  1  0  0  0
 22 65  1  0  0  0
 23 24  1  0  0  0
 23 66  1  0  0  0
 23 67  1  0  0  0
 24 25  1  0  0  0
 24 68  1  0  0  0
 24 69  1  0  0  0
 25 26  1  0  0  0
 25 70  1  0  0  0
 25 71  1  0  0  0
 26 72  1  0  0  0
 27 47  1  0  0  0
 27 28  1  0  0  0
 27 29  1  0  0  0
 28 73  1  0  0  0
 29 30  1  0  0  0
 29 74  1  0  0  0
 29 75  1  0  0  0
 30 31  1  0  0  0
 30 76  1  0  0  0
 31 48  1  0  0  0
 31 42  1  0  0  0
 31 32  1  0  0  0
 32 33  1  0  0  0
 32 77  1  0  0  0
 32 78  1  0  0  0
 33 34  1  0  0  0
 33 35  1  0  0  0
 33 36  1  0  0  0
 34 79  1  0  0  0
 34 80  1  0  0  0
 34 81  1  0  0  0
 35 82  1  0  0  0
 35 83  1  0  0  0
 35 84  1  0  0  0
 36 37  1  0  0  0
 37 42  2  0  0  0
 37 38  1  0  0  0
 38 39  2  0  0  0
 38 85  1  0  0  0
 39 40  1  0  0  0
 39 86  1  0  0  0
 40 41  2  0  0  0
 40 43  1  0  0  0
 41 42  1  0  0  0
 41 87  1  0  0  0
 43 44  1  0  0  0
 43 45  1  0  0  0
 43 88  1  0  0  0
 44 89  1  0  0  0
 44 90  1  0  0  0
 44 91  1  0  0  0
 45 92  1  0  0  0
 45 93  1  0  0  0
 45 94  1  0  0  0
M  END
> <s_m_source_file>
BACE_128.smi

> <i_m_source_file_index>
1

> <i_lp_mmshare_version>
42013

> <i_f3d_flags>
0

> <s_epik_input>
W2NIXTFbY0hdYyhbQ0hdKFtDSDNdKVtDSDNdKVtjSF1jKGMxMilbQ0BIXShbQ0gyXUMoTzIpKFtDSDNdKVtDSDNdKVtOSF1bQ0gyXVtDQEBIXShbT0hdKVtDQEBIXShbTkhdQyg9TyljKFtjSF0zKVtjSF1jKFtjSF1jMzQpW0NIMl1PW0NIM10pW0NIMl1jNVtjSF1jKFtjSF1bY0hdW2NIXTUpT1tDSDJdW0NIMl1bQ0gyXVtDSDJdW05IXTQ=

> <s_epik_cmdline>
J2VwaWtfcHl0aG9uJywgJy1waCcsICc3LjAnLCAnLXRuJywgJzgnLCAnLW1hJywgJzIwMCcsICctaW1hZScsICc8aW5maWxlLm1hZT4nLCAnLW9tYWUnLCAnPG91dGZpbGUubWFlPic=

> <r_lp_tautomer_probability>
1

> <r_epik_Ionization_Penalty>
  2.0262

> <r_epik_Ionization_Penalty_Charging>
  0.0000

> <r_epik_Ionization_Penalty_Neutral>
  2.0262

> <r_epik_State_Penalty>
  2.1564

> <r_epik_Charging_Adjusted_Penalty>
2.15643

> <i_epik_Tot_Q>
0

> <i_epik_Tot_abs_Q>
0

> <s_lp_Force_Field>
OPLS_2005

> <r_lp_Energy>
47.4046

> <b_lp_Chiralities_Consistent>
1

> <s_lp_Variant>
BACE_128.smi:1-2

> <chiral flag>
1

> <version>
0

> <s_i_glide_gridfile>
second_dock_grid_2

> <i_i_glide_lignum>
263

> <i_i_glide_rotatable_bonds>
8

> <r_i_docking_score>
-2.59336

> <r_i_glide_ligand_efficiency>
-0.0576302

> <r_i_glide_ligand_efficiency_sa>
-0.204984

> <r_i_glide_ligand_efficiency_ln>
-0.539534

> <r_glide_XP_GScore>
-4.74976

> <r_i_glide_gscore>
-4.74976

> <r_i_glide_evdw>
-38.0803

> <r_i_glide_ecoul>
-13.2462

> <r_i_glide_energy>
-51.3264

> <r_i_glide_einternal>
0

> <r_i_glide_emodel>
-72.4043

> <r_glide_XP_HBond>
-1.25881

> <i_i_glide_confnum>
1

> <i_i_glide_posenum>
14

> <r_i_glide_eff_state_penalty>
2.1564

> <i_glide_XP_PoseRank>
1

$$$$
BACE_129.smi:1
                    3D
 Structure written by MMmdl.
 85 88  0  0  1  0            999 V2000
   21.5969   39.5297   -6.1272 C   0  0  0  0  0  0
   22.4678   40.1465   -5.1896 O   0  0  0  0  0  0
   21.8236   41.0576   -4.3101 C   0  0  0  0  0  0
   21.6525   42.4437   -4.9062 C   0  0  0  0  0  0
   22.6788   43.3997   -4.7738 C   0  0  0  0  0  0
   22.5142   44.7066   -5.2786 C   0  0  0  0  0  0
   21.2920   45.0505   -5.9044 C   0  0  0  0  0  0
   20.2726   44.0952   -6.0773 C   0  0  0  0  0  0
   20.4600   42.7912   -5.5759 C   0  0  0  0  0  0
   18.9882   44.5038   -6.7323 C   0  0  0  0  0  0
   18.4608   45.5805   -6.4426 O   0  0  0  0  0  0
   18.4968   43.6556   -7.6529 N   0  0  0  0  0  0
   17.3154   43.9172   -8.4877 C   0  0  1  0  0  0
   17.7298   44.3788   -9.9043 C   0  0  0  0  0  0
   18.6270   45.6071   -9.9057 C   0  0  0  0  0  0
   20.0262   45.4688  -10.0203 C   0  0  0  0  0  0
   20.8753   46.5948   -9.9761 C   0  0  0  0  0  0
   20.2966   47.8804   -9.8306 C   0  0  0  0  0  0
   18.9014   48.0241   -9.7222 C   0  0  0  0  0  0
   18.0658   46.8921   -9.7563 C   0  0  0  0  0  0
   22.2304   46.3513  -10.0801 O   0  0  0  0  0  0
   23.1678   47.3995   -9.8414 C   0  0  0  0  0  0
   23.2901   47.7444   -8.3430 C   0  0  0  0  0  0
   23.7334   46.5542   -7.4811 C   0  0  0  0  0  0
   23.6072   46.8348   -5.9698 C   0  0  0  0  0  0
   23.5804   45.6175   -5.1650 N   0  0  0  0  0  0
   16.3112   42.7279   -8.5373 C   0  0  2  0  0  0
   15.0158   43.2802   -8.4407 O   0  0  0  0  0  0
   16.4565   41.6858   -7.4082 C   0  0  0  0  0  0
   15.4001   40.6652   -7.4620 N   0  0  0  0  0  0
   15.8046   39.3169   -7.0483 C   0  0  0  0  0  0
   16.7892   38.7479   -8.0296 C   0  0  0  0  0  0
   18.2070   38.7258   -7.9145 C   0  0  0  0  0  0
   18.6244   38.4151   -9.1740 C   0  0  0  0  0  0
   19.9749   38.4028   -9.8069 C   0  0  0  0  0  0
   20.4718   39.7585  -10.3916 C   0  0  0  0  0  0
   20.2949   39.7869  -11.9247 C   0  0  0  0  0  0
   19.7465   40.9862   -9.8008 C   0  0  0  0  0  0
   21.9697   39.8885  -10.0792 C   0  0  0  0  0  0
   17.5611   38.1648   -9.9768 O   0  0  0  0  0  0
   16.3904   38.3680   -9.2354 N   0  0  0  0  0  0
   16.7843   44.7575   -8.0369 H   0  0  0  0  0  0
   16.3940   42.2093   -9.4932 H   0  0  0  0  0  0
   22.1661   38.8541   -6.7652 H   0  0  0  0  0  0
   21.1119   40.2608   -6.7736 H   0  0  0  0  0  0
   20.8300   38.9485   -5.6157 H   0  0  0  0  0  0
   22.4448   41.1506   -3.4176 H   0  0  0  0  0  0
   20.8627   40.6694   -3.9668 H   0  0  0  0  0  0
   23.6024   43.1267   -4.2801 H   0  0  0  0  0  0
   21.1272   46.0442   -6.2936 H   0  0  0  0  0  0
   19.6717   42.0654   -5.6749 H   0  0  0  0  0  0
   19.0044   42.7986   -7.8216 H   0  0  0  0  0  0
   18.2376   43.5674  -10.4267 H   0  0  0  0  0  0
   16.8386   44.6006  -10.4932 H   0  0  0  0  0  0
   20.4596   44.4851  -10.1186 H   0  0  0  0  0  0
   20.9013   48.7747   -9.8030 H   0  0  0  0  0  0
   18.4717   49.0078   -9.6080 H   0  0  0  0  0  0
   16.9973   47.0121   -9.6649 H   0  0  0  0  0  0
   24.1350   47.0484  -10.1967 H   0  0  0  0  0  0
   22.9379   48.2795  -10.4429 H   0  0  0  0  0  0
   23.9995   48.5607   -8.2084 H   0  0  0  0  0  0
   22.3325   48.1152   -7.9817 H   0  0  0  0  0  0
   23.1278   45.6893   -7.7579 H   0  0  0  0  0  0
   24.7602   46.2738   -7.7201 H   0  0  0  0  0  0
   24.4406   47.4572   -5.6436 H   0  0  0  0  0  0
   22.7149   47.4199   -5.7532 H   0  0  0  0  0  0
   24.4329   45.3167   -4.6981 H   0  0  0  0  0  0
   14.8419   43.3594   -7.5116 H   0  0  0  0  0  0
   17.4366   41.2251   -7.5012 H   0  0  0  0  0  0
   16.4572   42.1753   -6.4399 H   0  0  0  0  0  0
   14.6142   40.9572   -6.8799 H   0  0  0  0  0  0
   16.2174   39.3352   -6.0386 H   0  0  0  0  0  0
   14.9234   38.6740   -7.0040 H   0  0  0  0  0  0
   18.8144   39.0286   -7.0734 H   0  0  0  0  0  0
   20.6677   38.0659   -9.0376 H   0  0  0  0  0  0
   20.0186   37.6274  -10.5684 H   0  0  0  0  0  0
   20.8160   38.9613  -12.4084 H   0  0  0  0  0  0
   20.6937   40.7088  -12.3509 H   0  0  0  0  0  0
   19.2435   39.7309  -12.2037 H   0  0  0  0  0  0
   19.8230   41.0199   -8.7131 H   0  0  0  0  0  0
   18.6870   41.0005  -10.0559 H   0  0  0  0  0  0
   20.1775   41.9128  -10.1826 H   0  0  0  0  0  0
   22.1508   39.9782   -9.0035 H   0  0  0  0  0  0
   22.4263   40.7547  -10.5690 H   0  0  0  0  0  0
   22.4849   38.9928  -10.4189 H   0  0  0  0  0  0
  1  2  1  0  0  0
  1 44  1  0  0  0
  1 45  1  0  0  0
  1 46  1  0  0  0
  2  3  1  0  0  0
  3  4  1  0  0  0
  3 47  1  0  0  0
  3 48  1  0  0  0
  4  9  1  0  0  0
  4  5  2  0  0  0
  5  6  1  0  0  0
  5 49  1  0  0  0
  6 26  1  0  0  0
  6  7  2  0  0  0
  7  8  1  0  0  0
  7 50  1  0  0  0
  8  9  2  0  0  0
  8 10  1  0  0  0
  9 51  1  0  0  0
 10 11  2  0  0  0
 10 12  1  0  0  0
 12 13  1  0  0  0
 12 52  1  0  0  0
 13 42  1  0  0  0
 13 14  1  0  0  0
 13 27  1  0  0  0
 14 15  1  0  0  0
 14 53  1  0  0  0
 14 54  1  0  0  0
 15 20  1  0  0  0
 15 16  2  0  0  0
 16 17  1  0  0  0
 16 55  1  0  0  0
 17 18  2  0  0  0
 17 21  1  0  0  0
 18 19  1  0  0  0
 18 56  1  0  0  0
 19 20  2  0  0  0
 19 57  1  0  0  0
 20 58  1  0  0  0
 21 22  1  0  0  0
 22 23  1  0  0  0
 22 59  1  0  0  0
 22 60  1  0  0  0
 23 24  1  0  0  0
 23 61  1  0  0  0
 23 62  1  0  0  0
 24 25  1  0  0  0
 24 63  1  0  0  0
 24 64  1  0  0  0
 25 26  1  0  0  0
 25 65  1  0  0  0
 25 66  1  0  0  0
 26 67  1  0  0  0
 27 43  1  0  0  0
 27 28  1  0  0  0
 27 29  1  0  0  0
 28 68  1  0  0  0
 29 30  1  0  0  0
 29 69  1  0  0  0
 29 70  1  0  0  0
 30 31  1  0  0  0
 30 71  1  0  0  0
 31 32  1  0  0  0
 31 72  1  0  0  0
 31 73  1  0  0  0
 32 41  2  0  0  0
 32 33  1  0  0  0
 33 34  2  0  0  0
 33 74  1  0  0  0
 34 35  1  0  0  0
 34 40  1  0  0  0
 35 36  1  0  0  0
 35 75  1  0  0  0
 35 76  1  0  0  0
 36 37  1  0  0  0
 36 38  1  0  0  0
 36 39  1  0  0  0
 37 77  1  0  0  0
 37 78  1  0  0  0
 37 79  1  0  0  0
 38 80  1  0  0  0
 38 81  1  0  0  0
 38 82  1  0  0  0
 39 83  1  0  0  0
 39 84  1  0  0  0
 39 85  1  0  0  0
 40 41  1  0  0  0
M  END
> <s_m_source_file>
BACE_129.smi

> <i_m_source_file_index>
1

> <i_lp_mmshare_version>
42013

> <i_f3d_flags>
0

> <s_epik_input>
W0NIM11DKFtDSDNdKShbQ0gzXSlbQ0gyXWMob24xKVtjSF1jMVtDSDJdW05IXVtDSDJdW0NAQEhdKFtPSF0pW0NAQEhdKFtOSF1DKD1PKWMoW2NIXTIpW2NIXWMoW2NIXWMyMylbQ0gyXU9bQ0gzXSlbQ0gyXWM0W2NIXWMoW2NIXVtjSF1bY0hdNClPW0NIMl1bQ0gyXVtDSDJdW0NIMl1bTkhdMw==

> <s_epik_cmdline>
J2VwaWtfcHl0aG9uJywgJy1waCcsICc3LjAnLCAnLXRuJywgJzgnLCAnLW1hJywgJzIwMCcsICctaW1hZScsICc8aW5maWxlLm1hZT4nLCAnLW9tYWUnLCAnPG91dGZpbGUubWFlPic=

> <r_lp_tautomer_probability>
1

> <r_epik_Ionization_Penalty>
  0.2485

> <r_epik_Ionization_Penalty_Charging>
  0.0000

> <r_epik_Ionization_Penalty_Neutral>
  0.2485

> <r_epik_State_Penalty>
  0.2394

> <r_epik_Charging_Adjusted_Penalty>
0.239404

> <i_epik_Tot_Q>
0

> <i_epik_Tot_abs_Q>
0

> <s_lp_Force_Field>
OPLS_2005

> <r_lp_Energy>
45.3733

> <b_lp_Chiralities_Consistent>
1

> <s_lp_Variant>
BACE_129.smi:1-1

> <chiral flag>
1

> <version>
0

> <s_i_glide_gridfile>
second_dock_grid_2

> <i_i_glide_lignum>
264

> <i_i_glide_rotatable_bonds>
10

> <r_i_docking_score>
-4.05273

> <r_i_glide_ligand_efficiency>
-0.098847

> <r_i_glide_ligand_efficiency_sa>
-0.340846

> <r_i_glide_ligand_efficiency_ln>
-0.859799

> <r_glide_XP_GScore>
-4.29213

> <r_i_glide_gscore>
-4.29213

> <r_i_glide_evdw>
-40.6491

> <r_i_glide_ecoul>
-10.6538

> <r_i_glide_energy>
-51.3029

> <r_i_glide_einternal>
6.70482

> <r_i_glide_emodel>
-66.8218

> <r_glide_XP_HBond>
-0.248208

> <i_i_glide_confnum>
1

> <i_i_glide_posenum>
34

> <r_i_glide_eff_state_penalty>
0.2394

> <i_glide_XP_PoseRank>
1

$$$$
BACE_129.smi:1
                    3D
 Structure written by MMmdl.
 86 89  0  0  1  0            999 V2000
   19.6624   42.4382   -2.0129 C   0  0  0  0  0  0
   21.0778   42.5245   -1.9318 O   0  0  0  0  0  0
   21.7675   41.6680   -2.8356 C   0  0  0  0  0  0
   21.7253   42.1523   -4.2707 C   0  0  0  0  0  0
   22.5802   43.1977   -4.6734 C   0  0  0  0  0  0
   22.5770   43.6554   -6.0025 C   0  0  0  0  0  0
   21.6749   43.0700   -6.9244 C   0  0  0  0  0  0
   20.8367   42.0017   -6.5425 C   0  0  0  0  0  0
   20.8634   41.5455   -5.2074 C   0  0  0  0  0  0
   19.9214   41.3890   -7.5600 C   0  0  0  0  0  0
   19.4030   42.0788   -8.4329 O   0  0  0  0  0  0
   19.7974   40.0543   -7.5034 N   0  0  0  0  0  0
   19.0308   39.2092   -8.4289 C   0  0  1  0  0  0
   19.9798   38.5938   -9.4868 C   0  0  0  0  0  0
   20.7257   39.6566  -10.2725 C   0  0  0  0  0  0
   22.0543   40.0065   -9.9355 C   0  0  0  0  0  0
   22.7018   41.0844  -10.5696 C   0  0  0  0  0  0
   22.0046   41.8010  -11.5746 C   0  0  0  0  0  0
   20.6957   41.4297  -11.9380 C   0  0  0  0  0  0
   20.0560   40.3614  -11.2895 C   0  0  0  0  0  0
   23.9959   41.3490  -10.1653 O   0  0  0  0  0  0
   24.7015   42.4725  -10.6933 C   0  0  0  0  0  0
   24.2678   43.7776  -10.0059 C   0  0  0  0  0  0
   24.4609   43.7389   -8.4822 C   0  0  0  0  0  0
   23.7724   44.9230   -7.7759 C   0  0  0  0  0  0
   23.4937   44.6561   -6.3694 N   0  0  0  0  0  0
   18.2917   38.1454   -7.5951 C   0  0  2  0  0  0
   17.7461   37.0971   -8.3802 O   0  0  0  0  0  0
   17.1984   38.7193   -6.6775 C   0  0  0  0  0  0
   15.8367   38.5572   -7.2400 N   0  3  0  0  0  0
   14.9677   39.7443   -7.1713 C   0  0  0  0  0  0
   15.3981   40.7412   -8.2144 C   0  0  0  0  0  0
   16.1431   41.9367   -8.0395 C   0  0  0  0  0  0
   16.3168   42.4042   -9.3111 C   0  0  0  0  0  0
   17.0256   43.5985   -9.8674 C   0  0  0  0  0  0
   16.1811   44.8855  -10.0154 C   0  0  0  0  0  0
   17.0584   45.9791  -10.6570 C   0  0  0  0  0  0
   14.9544   44.6392  -10.9175 C   0  0  0  0  0  0
   15.7250   45.3760   -8.6258 C   0  0  0  0  0  0
   15.7184   41.5721  -10.2010 O   0  0  0  0  0  0
   15.1532   40.5044   -9.4932 N   0  0  0  0  0  0
   18.2815   39.8099   -8.9492 H   0  0  0  0  0  0
   19.0501   37.7204   -6.9402 H   0  0  0  0  0  0
   19.2219   43.0891   -1.2584 H   0  0  0  0  0  0
   19.3158   41.4221   -1.8203 H   0  0  0  0  0  0
   19.2917   42.7562   -2.9870 H   0  0  0  0  0  0
   21.4032   40.6416   -2.7578 H   0  0  0  0  0  0
   22.8145   41.6468   -2.5381 H   0  0  0  0  0  0
   23.2563   43.6427   -3.9558 H   0  0  0  0  0  0
   21.6412   43.4027   -7.9506 H   0  0  0  0  0  0
   20.2140   40.7454   -4.8900 H   0  0  0  0  0  0
   20.3156   39.5821   -6.7790 H   0  0  0  0  0  0
   20.6966   37.9218   -9.0124 H   0  0  0  0  0  0
   19.4164   37.9848  -10.1944 H   0  0  0  0  0  0
   22.5734   39.4660   -9.1560 H   0  0  0  0  0  0
   22.4588   42.6281  -12.0933 H   0  0  0  0  0  0
   20.1654   41.9747  -12.7021 H   0  0  0  0  0  0
   19.0377   40.1041  -11.5478 H   0  0  0  0  0  0
   25.7624   42.3025  -10.5056 H   0  0  0  0  0  0
   24.6117   42.5499  -11.7770 H   0  0  0  0  0  0
   24.8276   44.6149  -10.4227 H   0  0  0  0  0  0
   23.2195   43.9690  -10.2325 H   0  0  0  0  0  0
   24.0588   42.7964   -8.1110 H   0  0  0  0  0  0
   25.5221   43.7162   -8.2315 H   0  0  0  0  0  0
   24.4046   45.8070   -7.8492 H   0  0  0  0  0  0
   22.8382   45.1861   -8.2737 H   0  0  0  0  0  0
   24.1971   44.9237   -5.6949 H   0  0  0  0  0  0
   17.3552   36.4665   -7.7836 H   0  0  0  0  0  0
   17.2596   38.1873   -5.7271 H   0  0  0  0  0  0
   17.3998   39.7567   -6.4395 H   0  0  0  0  0  0
   15.9208   38.2528   -8.1957 H   0  0  0  0  0  0
   13.9392   39.4310   -7.3508 H   0  0  0  0  0  0
   14.9950   40.1738   -6.1680 H   0  0  0  0  0  0
   16.5054   42.3726   -7.1188 H   0  0  0  0  0  0
   17.8827   43.8302   -9.2348 H   0  0  0  0  0  0
   17.4524   43.3250  -10.8338 H   0  0  0  0  0  0
   17.9399   46.1892  -10.0485 H   0  0  0  0  0  0
   16.5096   46.9141  -10.7696 H   0  0  0  0  0  0
   17.4064   45.6813  -11.6458 H   0  0  0  0  0  0
   14.2502   43.9392  -10.4642 H   0  0  0  0  0  0
   15.2502   44.2285  -11.8821 H   0  0  0  0  0  0
   14.4171   45.5659  -11.1119 H   0  0  0  0  0  0
   15.0077   44.6914   -8.1680 H   0  0  0  0  0  0
   15.2596   46.3569   -8.6850 H   0  0  0  0  0  0
   16.5696   45.4632   -7.9384 H   0  0  0  0  0  0
   15.4254   37.8025   -6.6897 H   0  0  0  0  0  0
  1  2  1  0  0  0
  1 44  1  0  0  0
  1 45  1  0  0  0
  1 46  1  0  0  0
  2  3  1  0  0  0
  3  4  1  0  0  0
  3 47  1  0  0  0
  3 48  1  0  0  0
  4  9  1  0  0  0
  4  5  2  0  0  0
  5  6  1  0  0  0
  5 49  1  0  0  0
  6 26  1  0  0  0
  6  7  2  0  0  0
  7  8  1  0  0  0
  7 50  1  0  0  0
  8  9  2  0  0  0
  8 10  1  0  0  0
  9 51  1  0  0  0
 10 11  2  0  0  0
 10 12  1  0  0  0
 12 13  1  0  0  0
 12 52  1  0  0  0
 13 42  1  0  0  0
 13 14  1  0  0  0
 13 27  1  0  0  0
 14 15  1  0  0  0
 14 53  1  0  0  0
 14 54  1  0  0  0
 15 20  1  0  0  0
 15 16  2  0  0  0
 16 17  1  0  0  0
 16 55  1  0  0  0
 17 18  2  0  0  0
 17 21  1  0  0  0
 18 19  1  0  0  0
 18 56  1  0  0  0
 19 20  2  0  0  0
 19 57  1  0  0  0
 20 58  1  0  0  0
 21 22  1  0  0  0
 22 23  1  0  0  0
 22 59  1  0  0  0
 22 60  1  0  0  0
 23 24  1  0  0  0
 23 61  1  0  0  0
 23 62  1  0  0  0
 24 25  1  0  0  0
 24 63  1  0  0  0
 24 64  1  0  0  0
 25 26  1  0  0  0
 25 65  1  0  0  0
 25 66  1  0  0  0
 26 67  1  0  0  0
 27 43  1  0  0  0
 27 28  1  0  0  0
 27 29  1  0  0  0
 28 68  1  0  0  0
 29 30  1  0  0  0
 29 69  1  0  0  0
 29 70  1  0  0  0
 30 31  1  0  0  0
 30 71  1  0  0  0
 30 86  1  0  0  0
 31 32  1  0  0  0
 31 72  1  0  0  0
 31 73  1  0  0  0
 32 41  2  0  0  0
 32 33  1  0  0  0
 33 34  2  0  0  0
 33 74  1  0  0  0
 34 35  1  0  0  0
 34 40  1  0  0  0
 35 36  1  0  0  0
 35 75  1  0  0  0
 35 76  1  0  0  0
 36 37  1  0  0  0
 36 38  1  0  0  0
 36 39  1  0  0  0
 37 77  1  0  0  0
 37 78  1  0  0  0
 37 79  1  0  0  0
 38 80  1  0  0  0
 38 81  1  0  0  0
 38 82  1  0  0  0
 39 83  1  0  0  0
 39 84  1  0  0  0
 39 85  1  0  0  0
 40 41  1  0  0  0
M  CHG  1  30   1
M  END
> <s_m_source_file>
BACE_129.smi

> <i_m_source_file_index>
1

> <i_lp_mmshare_version>
42013

> <i_f3d_flags>
0

> <s_epik_input>
W0NIM11DKFtDSDNdKShbQ0gzXSlbQ0gyXWMob24xKVtjSF1jMVtDSDJdW05IXVtDSDJdW0NAQEhdKFtPSF0pW0NAQEhdKFtOSF1DKD1PKWMoW2NIXTIpW2NIXWMoW2NIXWMyMylbQ0gyXU9bQ0gzXSlbQ0gyXWM0W2NIXWMoW2NIXVtjSF1bY0hdNClPW0NIMl1bQ0gyXVtDSDJdW0NIMl1bTkhdMw==

> <s_epik_cmdline>
J2VwaWtfcHl0aG9uJywgJy1waCcsICc3LjAnLCAnLXRuJywgJzgnLCAnLW1hJywgJzIwMCcsICctaW1hZScsICc8aW5maWxlLm1hZT4nLCAnLW9tYWUnLCAnPG91dGZpbGUubWFlPic=

> <r_lp_tautomer_probability>
1

> <r_epik_Ionization_Penalty>
  0.6357

> <r_epik_Ionization_Penalty_Charging>
  0.6354

> <r_epik_Ionization_Penalty_Neutral>
  0.0003

> <r_epik_State_Penalty>
  0.6526

> <r_epik_Charging_Adjusted_Penalty>
1.28793

> <i_epik_Tot_Q>
1

> <i_epik_Tot_abs_Q>
1

> <s_lp_Force_Field>
OPLS_2005

> <r_lp_Energy>
34.7321

> <b_lp_Chiralities_Consistent>
1

> <s_lp_Variant>
BACE_129.smi:1-2

> <chiral flag>
1

> <version>
0

> <s_i_glide_gridfile>
second_dock_grid_2

> <i_i_glide_lignum>
265

> <i_i_glide_rotatable_bonds>
10

> <r_i_docking_score>
-5.94766

> <r_i_glide_ligand_efficiency>
-0.145065

> <r_i_glide_ligand_efficiency_sa>
-0.500215

> <r_i_glide_ligand_efficiency_ln>
-1.26182

> <r_glide_XP_GScore>
-6.60026

> <r_i_glide_gscore>
-6.60026

> <r_i_glide_evdw>
-45.3412

> <r_i_glide_ecoul>
-13.5073

> <r_i_glide_energy>
-58.8485

> <r_i_glide_einternal>
13.0491

> <r_i_glide_emodel>
-77.8632

> <r_glide_XP_HBond>
-0.884813

> <i_i_glide_confnum>
1

> <i_i_glide_posenum>
1

> <r_i_glide_eff_state_penalty>
0.6526

> <i_glide_XP_PoseRank>
1

$$$$
BACE_130.smi:1
                    3D
 Structure written by MMmdl.
 85 88  0  0  1  0            999 V2000
   22.6969   48.6288   -7.0066 C   0  0  0  0  0  0
   21.4605   48.1187   -6.5241 O   0  0  0  0  0  0
   21.3141   46.7558   -6.3667 C   0  0  0  0  0  0
   22.4173   45.8693   -6.4974 C   0  0  0  0  0  0
   22.2741   44.4863   -6.2943 C   0  0  0  0  0  0
   21.0175   43.9511   -5.9698 C   0  0  0  0  0  0
   20.8583   42.4524   -5.7451 C   0  0  0  0  0  0
   20.5663   41.6673   -7.0453 C   0  0  2  0  0  0
   19.3316   42.1422   -7.6708 N   0  0  0  0  0  0
   19.2615   42.7476   -8.8648 C   0  0  0  0  0  0
   20.2378   42.9517   -9.5869 O   0  0  0  0  0  0
   17.9072   43.2420   -9.2623 C   0  0  0  0  0  0
   16.7710   42.4086   -9.2155 C   0  0  0  0  0  0
   15.5174   42.8862   -9.6499 C   0  0  0  0  0  0
   14.3119   41.9588   -9.6489 C   0  0  0  0  0  0
   14.0613   41.3628  -10.9108 O   0  0  0  0  0  0
   15.3925   44.2307  -10.0659 C   0  0  0  0  0  0
   16.5137   45.0887  -10.0706 C   0  0  0  0  0  0
   17.7770   44.5647   -9.7181 C   0  0  0  0  0  0
   16.3436   46.4467  -10.3932 N   0  0  0  0  0  0
   17.3247   47.4253   -9.9287 C   0  0  0  0  0  0
   17.3701   47.5306   -8.3922 C   0  0  0  0  0  0
   18.5871   48.2983   -7.8548 C   0  0  0  0  0  0
   18.6681   48.2395   -6.3161 C   0  0  0  0  0  0
   18.8593   46.9124   -5.8318 O   0  0  0  0  0  0
   20.0349   46.2110   -6.0394 C   0  0  0  0  0  0
   19.9129   44.8176   -5.8583 C   0  0  0  0  0  0
   20.5062   40.1250   -6.9218 C   0  0  2  0  0  0
   20.0601   39.7505   -5.6399 O   0  0  0  0  0  0
   21.8480   39.3929   -7.1888 C   0  0  0  0  0  0
   22.3392   39.4827   -8.5933 N   0  3  0  0  0  0
   21.8014   38.4973   -9.5637 C   0  0  0  0  0  0
   20.4270   38.8835  -10.0625 C   0  0  0  0  0  0
   19.2745   38.2811   -9.5139 C   0  0  0  0  0  0
   17.9932   38.7548   -9.8607 C   0  0  0  0  0  0
   17.8724   39.7617  -10.8399 C   0  0  0  0  0  0
   19.0172   40.3129  -11.4440 C   0  0  0  0  0  0
   20.2963   39.8839  -11.0472 C   0  0  0  0  0  0
   16.7523   38.2283   -9.1535 C   0  0  0  0  0  0
   16.5648   36.7250   -9.3787 C   0  0  0  0  0  0
   16.7687   38.5677   -7.6555 C   0  0  0  0  0  0
   21.3975   41.8932   -7.7138 H   0  0  0  0  0  0
   19.7440   39.7496   -7.5883 H   0  0  0  0  0  0
   22.6072   49.7054   -7.1507 H   0  0  0  0  0  0
   22.9587   48.1890   -7.9700 H   0  0  0  0  0  0
   23.5051   48.4603   -6.2949 H   0  0  0  0  0  0
   23.4066   46.2265   -6.7392 H   0  0  0  0  0  0
   23.1343   43.8395   -6.3853 H   0  0  0  0  0  0
   20.0623   42.2984   -5.0156 H   0  0  0  0  0  0
   21.7680   42.0703   -5.2799 H   0  0  0  0  0  0
   18.4804   42.0519   -7.1309 H   0  0  0  0  0  0
   16.8650   41.3915   -8.8724 H   0  0  0  0  0  0
   14.4560   41.1691   -8.9097 H   0  0  0  0  0  0
   13.4291   42.5177   -9.3382 H   0  0  0  0  0  0
   13.3414   40.7504  -10.8003 H   0  0  0  0  0  0
   14.4240   44.6025  -10.3641 H   0  0  0  0  0  0
   18.6621   45.1828   -9.7404 H   0  0  0  0  0  0
   15.3988   46.7792  -10.5127 H   0  0  0  0  0  0
   17.0651   48.3978  -10.3489 H   0  0  0  0  0  0
   18.3061   47.1852  -10.3356 H   0  0  0  0  0  0
   17.3746   46.5381   -7.9414 H   0  0  0  0  0  0
   16.4604   48.0144   -8.0423 H   0  0  0  0  0  0
   18.5281   49.3384   -8.1778 H   0  0  0  0  0  0
   19.5000   47.8964   -8.2942 H   0  0  0  0  0  0
   17.7125   48.5735   -5.9148 H   0  0  0  0  0  0
   19.3901   48.9398   -5.8998 H   0  0  0  0  0  0
   18.9411   44.4054   -5.6401 H   0  0  0  0  0  0
   19.2237   40.1752   -5.4695 H   0  0  0  0  0  0
   22.6147   39.8168   -6.5396 H   0  0  0  0  0  0
   21.7691   38.3409   -6.9093 H   0  0  0  0  0  0
   22.1817   40.4130   -8.9542 H   0  0  0  0  0  0
   22.4601   38.4682  -10.4307 H   0  0  0  0  0  0
   21.8024   37.4896   -9.1476 H   0  0  0  0  0  0
   19.3750   37.5171   -8.7561 H   0  0  0  0  0  0
   16.8948   40.1228  -11.1297 H   0  0  0  0  0  0
   18.9116   41.0880  -12.1880 H   0  0  0  0  0  0
   21.1702   40.3424  -11.4867 H   0  0  0  0  0  0
   15.8851   38.7293   -9.5858 H   0  0  0  0  0  0
   16.4577   36.5112  -10.4396 H   0  0  0  0  0  0
   15.6650   36.3729   -8.8826 H   0  0  0  0  0  0
   17.4021   36.1441   -8.9922 H   0  0  0  0  0  0
   16.8898   39.6361   -7.4808 H   0  0  0  0  0  0
   17.5711   38.0495   -7.1288 H   0  0  0  0  0  0
   15.8265   38.2729   -7.1919 H   0  0  0  0  0  0
   23.3373   39.3189   -8.5760 H   0  0  0  0  0  0
  1  2  1  0  0  0
  1 44  1  0  0  0
  1 45  1  0  0  0
  1 46  1  0  0  0
  2  3  1  0  0  0
  3 26  1  0  0  0
  3  4  2  0  0  0
  4  5  1  0  0  0
  4 47  1  0  0  0
  5  6  2  0  0  0
  5 48  1  0  0  0
  6 27  1  0  0  0
  6  7  1  0  0  0
  7  8  1  0  0  0
  7 49  1  0  0  0
  7 50  1  0  0  0
  8 42  1  0  0  0
  8  9  1  0  0  0
  8 28  1  0  0  0
  9 10  1  0  0  0
  9 51  1  0  0  0
 10 11  2  0  0  0
 10 12  1  0  0  0
 12 19  1  0  0  0
 12 13  2  0  0  0
 13 14  1  0  0  0
 13 52  1  0  0  0
 14 15  1  0  0  0
 14 17  2  0  0  0
 15 16  1  0  0  0
 15 53  1  0  0  0
 15 54  1  0  0  0
 16 55  1  0  0  0
 17 18  1  0  0  0
 17 56  1  0  0  0
 18 19  2  0  0  0
 18 20  1  0  0  0
 19 57  1  0  0  0
 20 21  1  0  0  0
 20 58  1  0  0  0
 21 22  1  0  0  0
 21 59  1  0  0  0
 21 60  1  0  0  0
 22 23  1  0  0  0
 22 61  1  0  0  0
 22 62  1  0  0  0
 23 24  1  0  0  0
 23 63  1  0  0  0
 23 64  1  0  0  0
 24 25  1  0  0  0
 24 65  1  0  0  0
 24 66  1  0  0  0
 25 26  1  0  0  0
 26 27  2  0  0  0
 27 67  1  0  0  0
 28 43  1  0  0  0
 28 29  1  0  0  0
 28 30  1  0  0  0
 29 68  1  0  0  0
 30 31  1  0  0  0
 30 69  1  0  0  0
 30 70  1  0  0  0
 31 32  1  0  0  0
 31 71  1  0  0  0
 31 85  1  0  0  0
 32 33  1  0  0  0
 32 72  1  0  0  0
 32 73  1  0  0  0
 33 38  1  0  0  0
 33 34  2  0  0  0
 34 35  1  0  0  0
 34 74  1  0  0  0
 35 36  2  0  0  0
 35 39  1  0  0  0
 36 37  1  0  0  0
 36 75  1  0  0  0
 37 38  2  0  0  0
 37 76  1  0  0  0
 38 77  1  0  0  0
 39 40  1  0  0  0
 39 41  1  0  0  0
 39 78  1  0  0  0
 40 79  1  0  0  0
 40 80  1  0  0  0
 40 81  1  0  0  0
 41 82  1  0  0  0
 41 83  1  0  0  0
 41 84  1  0  0  0
M  CHG  1  31   1
M  END
> <s_m_source_file>
BACE_130.smi

> <i_m_source_file_index>
1

> <i_lp_mmshare_version>
42013

> <i_f3d_flags>
0

> <s_epik_input>
YzEyW2NIXVtjSF1jKE9bQ0gzXSljKFtjSF0yKU9bQ0gyXVtDSDJdW0NIMl1bQ0gyXVtOSF1jM1tjSF1jKFtDSDJdW09IXSlbY0hdYyhbY0hdMylDKD1PKVtOSF1bQ0BASF0oW0NIMl0xKVtDQEhdKFtPSF0pW0NIMl1bTkhdW0NIMl1jNFtjSF1jKFtDSF0oW0NIM10pW0NIM10pW2NIXVtjSF1bY0hdNA==

> <s_epik_cmdline>
J2VwaWtfcHl0aG9uJywgJy1waCcsICc3LjAnLCAnLXRuJywgJzgnLCAnLW1hJywgJzIwMCcsICctaW1hZScsICc8aW5maWxlLm1hZT4nLCAnLW9tYWUnLCAnPG91dGZpbGUubWFlPic=

> <r_lp_tautomer_probability>
1

> <r_epik_Ionization_Penalty>
  0.0195

> <r_epik_Ionization_Penalty_Charging>
  0.0191

> <r_epik_Ionization_Penalty_Neutral>
  0.0004

> <r_epik_State_Penalty>
  0.0153

> <r_epik_Charging_Adjusted_Penalty>
0.0343718

> <i_epik_Tot_Q>
1

> <i_epik_Tot_abs_Q>
1

> <s_lp_Force_Field>
OPLS_2005

> <r_lp_Energy>
39.3681

> <b_lp_Chiralities_Consistent>
1

> <s_lp_Variant>
BACE_130.smi:1-1

> <chiral flag>
1

> <version>
0

> <s_i_glide_gridfile>
second_dock_grid_2

> <i_i_glide_lignum>
266

> <i_i_glide_rotatable_bonds>
10

> <r_i_docking_score>
-5.58952

> <r_i_glide_ligand_efficiency>
-0.13633

> <r_i_glide_ligand_efficiency_sa>
-0.470095

> <r_i_glide_ligand_efficiency_ln>
-1.18584

> <r_glide_XP_GScore>
-5.60482

> <r_i_glide_gscore>
-5.60482

> <r_i_glide_evdw>
-40.3032

> <r_i_glide_ecoul>
-18.0118

> <r_i_glide_energy>
-58.315

> <r_i_glide_einternal>
6.27505

> <r_i_glide_emodel>
-82.8686

> <r_glide_XP_HBond>
-0.953661

> <i_i_glide_confnum>
1

> <i_i_glide_posenum>
1

> <r_i_glide_eff_state_penalty>
0.0153

> <i_glide_XP_PoseRank>
1

$$$$
BACE_130.smi:1
                    3D
 Structure written by MMmdl.
 84 87  0  0  1  0            999 V2000
   29.2330   47.2088   -9.5254 C   0  0  0  0  0  0
   29.1207   46.9984   -8.1251 O   0  0  0  0  0  0
   28.0489   46.2779   -7.6385 C   0  0  0  0  0  0
   27.1320   45.6208   -8.5011 C   0  0  0  0  0  0
   26.0819   44.8395   -7.9890 C   0  0  0  0  0  0
   25.9369   44.6821   -6.6013 C   0  0  0  0  0  0
   24.8482   43.7809   -6.0470 C   0  0  0  0  0  0
   23.4856   44.4708   -5.7870 C   0  0  2  0  0  0
   23.6605   45.6979   -4.9991 N   0  0  0  0  0  0
   23.1041   46.9004   -5.2362 C   0  0  0  0  0  0
   22.2677   47.0957   -6.1176 O   0  0  0  0  0  0
   23.5103   48.0129   -4.2999 C   0  0  0  0  0  0
   22.6358   49.1010   -4.0602 C   0  0  0  0  0  0
   22.9988   50.1426   -3.1748 C   0  0  0  0  0  0
   22.0399   51.2786   -2.8462 C   0  0  0  0  0  0
   21.2600   51.7150   -3.9421 O   0  0  0  0  0  0
   24.2533   50.0951   -2.5337 C   0  0  0  0  0  0
   25.1515   49.0365   -2.7772 C   0  0  0  0  0  0
   24.7780   48.0053   -3.6699 C   0  0  0  0  0  0
   26.3745   49.0382   -2.0889 N   0  0  0  0  0  0
   27.5684   48.4337   -2.6695 C   0  0  0  0  0  0
   28.2270   49.3550   -3.7091 C   0  0  0  0  0  0
   29.5373   48.7881   -4.2847 C   0  0  0  0  0  0
   29.3335   47.9601   -5.5597 C   0  0  0  0  0  0
   28.6435   46.7545   -5.2565 O   0  0  0  0  0  0
   27.8693   46.1523   -6.2289 C   0  0  0  0  0  0
   26.8355   45.3332   -5.7349 C   0  0  0  0  0  0
   22.4408   43.5318   -5.1210 C   0  0  2  0  0  0
   22.9937   42.9506   -3.9527 O   0  0  0  0  0  0
   22.0225   42.3390   -6.0068 C   0  0  0  0  0  0
   20.8739   41.6458   -5.4233 N   0  0  0  0  0  0
   20.9439   40.1840   -5.4628 C   0  0  0  0  0  0
   20.6364   39.5704   -6.8161 C   0  0  0  0  0  0
   19.3082   39.2245   -7.1435 C   0  0  0  0  0  0
   19.0106   38.6012   -8.3745 C   0  0  0  0  0  0
   20.0583   38.3341   -9.2841 C   0  0  0  0  0  0
   21.3847   38.6848   -8.9640 C   0  0  0  0  0  0
   21.6743   39.3011   -7.7316 C   0  0  0  0  0  0
   17.5714   38.2231   -8.7073 C   0  0  0  0  0  0
   17.0673   38.9621   -9.9565 C   0  0  0  0  0  0
   17.3942   36.7020   -8.8411 C   0  0  0  0  0  0
   23.0893   44.7592   -6.7628 H   0  0  0  0  0  0
   21.5594   44.1149   -4.8497 H   0  0  0  0  0  0
   28.3520   47.7173   -9.9224 H   0  0  0  0  0  0
   29.3882   46.2705  -10.0608 H   0  0  0  0  0  0
   30.0959   47.8450   -9.7234 H   0  0  0  0  0  0
   27.2198   45.6835   -9.5740 H   0  0  0  0  0  0
   25.4062   44.3413   -8.6678 H   0  0  0  0  0  0
   25.2363   43.3500   -5.1254 H   0  0  0  0  0  0
   24.7138   42.9513   -6.7405 H   0  0  0  0  0  0
   24.3195   45.6277   -4.2330 H   0  0  0  0  0  0
   21.6666   49.1248   -4.5374 H   0  0  0  0  0  0
   21.3647   50.9460   -2.0569 H   0  0  0  0  0  0
   22.5838   52.1310   -2.4398 H   0  0  0  0  0  0
   20.3863   51.3503   -3.7995 H   0  0  0  0  0  0
   24.5286   50.8787   -1.8421 H   0  0  0  0  0  0
   25.4554   47.1879   -3.8594 H   0  0  0  0  0  0
   26.5488   49.8138   -1.4653 H   0  0  0  0  0  0
   27.3622   47.4516   -3.0904 H   0  0  0  0  0  0
   28.2718   48.2569   -1.8554 H   0  0  0  0  0  0
   28.4487   50.3123   -3.2400 H   0  0  0  0  0  0
   27.5270   49.5773   -4.5157 H   0  0  0  0  0  0
   30.0769   48.2128   -3.5314 H   0  0  0  0  0  0
   30.1937   49.6235   -4.5317 H   0  0  0  0  0  0
   30.3040   47.7128   -5.9923 H   0  0  0  0  0  0
   28.7865   48.5697   -6.2811 H   0  0  0  0  0  0
   26.7299   45.2156   -4.6669 H   0  0  0  0  0  0
   23.6908   43.5142   -3.6359 H   0  0  0  0  0  0
   21.7622   42.6834   -7.0085 H   0  0  0  0  0  0
   22.8630   41.6562   -6.1301 H   0  0  0  0  0  0
   20.7644   41.9411   -4.4577 H   0  0  0  0  0  0
   21.9154   39.8341   -5.1083 H   0  0  0  0  0  0
   20.2152   39.7786   -4.7607 H   0  0  0  0  0  0
   18.5158   39.4305   -6.4375 H   0  0  0  0  0  0
   19.8507   37.8541  -10.2287 H   0  0  0  0  0  0
   22.1832   38.4700   -9.6599 H   0  0  0  0  0  0
   22.6949   39.5553   -7.4875 H   0  0  0  0  0  0
   16.9444   38.5384   -7.8715 H   0  0  0  0  0  0
   17.1336   40.0412   -9.8218 H   0  0  0  0  0  0
   16.0237   38.7203  -10.1602 H   0  0  0  0  0  0
   17.6503   38.7016  -10.8401 H   0  0  0  0  0  0
   17.6616   36.1984   -7.9124 H   0  0  0  0  0  0
   18.0101   36.2895   -9.6399 H   0  0  0  0  0  0
   16.3556   36.4504   -9.0567 H   0  0  0  0  0  0
  1  2  1  0  0  0
  1 44  1  0  0  0
  1 45  1  0  0  0
  1 46  1  0  0  0
  2  3  1  0  0  0
  3 26  1  0  0  0
  3  4  2  0  0  0
  4  5  1  0  0  0
  4 47  1  0  0  0
  5  6  2  0  0  0
  5 48  1  0  0  0
  6 27  1  0  0  0
  6  7  1  0  0  0
  7  8  1  0  0  0
  7 49  1  0  0  0
  7 50  1  0  0  0
  8 42  1  0  0  0
  8  9  1  0  0  0
  8 28  1  0  0  0
  9 10  1  0  0  0
  9 51  1  0  0  0
 10 11  2  0  0  0
 10 12  1  0  0  0
 12 19  1  0  0  0
 12 13  2  0  0  0
 13 14  1  0  0  0
 13 52  1  0  0  0
 14 15  1  0  0  0
 14 17  2  0  0  0
 15 16  1  0  0  0
 15 53  1  0  0  0
 15 54  1  0  0  0
 16 55  1  0  0  0
 17 18  1  0  0  0
 17 56  1  0  0  0
 18 19  2  0  0  0
 18 20  1  0  0  0
 19 57  1  0  0  0
 20 21  1  0  0  0
 20 58  1  0  0  0
 21 22  1  0  0  0
 21 59  1  0  0  0
 21 60  1  0  0  0
 22 23  1  0  0  0
 22 61  1  0  0  0
 22 62  1  0  0  0
 23 24  1  0  0  0
 23 63  1  0  0  0
 23 64  1  0  0  0
 24 25  1  0  0  0
 24 65  1  0  0  0
 24 66  1  0  0  0
 25 26  1  0  0  0
 26 27  2  0  0  0
 27 67  1  0  0  0
 28 43  1  0  0  0
 28 29  1  0  0  0
 28 30  1  0  0  0
 29 68  1  0  0  0
 30 31  1  0  0  0
 30 69  1  0  0  0
 30 70  1  0  0  0
 31 32  1  0  0  0
 31 71  1  0  0  0
 32 33  1  0  0  0
 32 72  1  0  0  0
 32 73  1  0  0  0
 33 38  1  0  0  0
 33 34  2  0  0  0
 34 35  1  0  0  0
 34 74  1  0  0  0
 35 36  2  0  0  0
 35 39  1  0  0  0
 36 37  1  0  0  0
 36 75  1  0  0  0
 37 38  2  0  0  0
 37 76  1  0  0  0
 38 77  1  0  0  0
 39 40  1  0  0  0
 39 41  1  0  0  0
 39 78  1  0  0  0
 40 79  1  0  0  0
 40 80  1  0  0  0
 40 81  1  0  0  0
 41 82  1  0  0  0
 41 83  1  0  0  0
 41 84  1  0  0  0
M  END
> <s_m_source_file>
BACE_130.smi

> <i_m_source_file_index>
1

> <i_lp_mmshare_version>
42013

> <i_f3d_flags>
0

> <s_epik_input>
YzEyW2NIXVtjSF1jKE9bQ0gzXSljKFtjSF0yKU9bQ0gyXVtDSDJdW0NIMl1bQ0gyXVtOSF1jM1tjSF1jKFtDSDJdW09IXSlbY0hdYyhbY0hdMylDKD1PKVtOSF1bQ0BASF0oW0NIMl0xKVtDQEhdKFtPSF0pW0NIMl1bTkhdW0NIMl1jNFtjSF1jKFtDSF0oW0NIM10pW0NIM10pW2NIXVtjSF1bY0hdNA==

> <s_epik_cmdline>
J2VwaWtfcHl0aG9uJywgJy1waCcsICc3LjAnLCAnLXRuJywgJzgnLCAnLW1hJywgJzIwMCcsICctaW1hZScsICc8aW5maWxlLm1hZT4nLCAnLW9tYWUnLCAnPG91dGZpbGUubWFlPic=

> <r_lp_tautomer_probability>
1

> <r_epik_Ionization_Penalty>
  2.0444

> <r_epik_Ionization_Penalty_Charging>
  0.0000

> <r_epik_Ionization_Penalty_Neutral>
  2.0444

> <r_epik_State_Penalty>
  2.1759

> <r_epik_Charging_Adjusted_Penalty>
2.17586

> <i_epik_Tot_Q>
0

> <i_epik_Tot_abs_Q>
0

> <s_lp_Force_Field>
OPLS_2005

> <r_lp_Energy>
46.621

> <b_lp_Chiralities_Consistent>
1

> <s_lp_Variant>
BACE_130.smi:1-2

> <chiral flag>
1

> <version>
0

> <s_i_glide_gridfile>
second_dock_grid_2

> <i_i_glide_lignum>
267

> <i_i_glide_rotatable_bonds>
10

> <r_i_docking_score>
-2.58568

> <r_i_glide_ligand_efficiency>
-0.0630653

> <r_i_glide_ligand_efficiency_sa>
-0.217463

> <r_i_glide_ligand_efficiency_ln>
-0.54856

> <r_glide_XP_GScore>
-4.76158

> <r_i_glide_gscore>
-4.76158

> <r_i_glide_evdw>
-41.5874

> <r_i_glide_ecoul>
-12.0748

> <r_i_glide_energy>
-53.6622

> <r_i_glide_einternal>
0

> <r_i_glide_emodel>
-77.1414

> <r_glide_XP_HBond>
-0.520043

> <i_i_glide_confnum>
1

> <i_i_glide_posenum>
6

> <r_i_glide_eff_state_penalty>
2.1759

> <i_glide_XP_PoseRank>
1

$$$$
BACE_131.smi:1
                    3D
 Structure written by MMmdl.
 91 95  0  0  1  0            999 V2000
   21.5319   51.3030  -10.8954 C   0  0  0  0  0  0
   21.2250   52.0621   -9.6787 N   0  0  0  0  0  0
   21.9332   53.3412   -9.5858 C   0  0  0  0  0  0
   20.4534   51.6034   -8.6611 C   0  0  0  0  0  0
   20.4587   52.1236   -7.5431 O   0  0  0  0  0  0
   19.5588   50.4177   -8.9108 C   0  0  0  0  0  0
   18.7103   50.3829  -10.0373 C   0  0  0  0  0  0
   17.8629   49.2863  -10.2805 C   0  0  0  0  0  0
   17.8495   48.2074   -9.3614 C   0  0  0  0  0  0
   18.6688   48.2407   -8.2064 C   0  0  0  0  0  0
   19.5041   49.3574   -7.9795 C   0  0  0  0  0  0
   18.5997   47.1488   -7.1781 C   0  0  0  0  0  0
   18.4601   47.4364   -5.9864 O   0  0  0  0  0  0
   18.6957   45.8862   -7.6383 N   0  0  0  0  0  0
   18.4322   44.6813   -6.8398 C   0  0  1  0  0  0
   17.0983   44.0061   -7.2552 C   0  0  0  0  0  0
   17.0214   43.1867   -8.5451 C   0  0  0  0  0  0
   17.4518   43.6954   -9.7884 C   0  0  0  0  0  0
   17.2611   42.9556  -10.9878 C   0  0  0  0  0  0
   17.5673   43.4205  -12.2550 O   0  0  0  0  0  0
   18.1565   44.7081  -12.3951 C   0  0  0  0  0  0
   17.1888   45.8223  -12.0505 C   0  0  0  0  0  0
   17.3044   47.0970  -12.4422 C   0  0  0  0  0  0
   16.3702   48.1809  -11.9579 C   0  0  0  0  0  0
   17.0683   49.3450  -11.4375 N   0  0  0  0  0  0
   16.6813   41.6723  -10.9065 C   0  0  0  0  0  0
   16.4800   40.9544  -12.0387 F   0  0  0  0  0  0
   16.2865   41.1402   -9.6663 C   0  0  0  0  0  0
   16.4441   41.8987   -8.4933 C   0  0  0  0  0  0
   19.6653   43.7348   -6.6579 C   0  0  2  0  0  0
   19.2618   42.3897   -6.8400 O   0  0  0  0  0  0
   20.3627   43.8729   -5.2660 C   0  0  0  0  0  0
   20.8349   42.5968   -4.7081 N   0  0  0  0  0  0
   22.2134   42.2160   -4.9999 C   0  0  0  0  0  0
   22.8504   41.2317   -4.0415 C   0  0  0  0  0  0
   23.2886   42.6789   -4.0468 C   0  0  0  0  0  0
   22.4692   42.0582   -6.4689 C   0  0  0  0  0  0
   21.8828   40.9841   -7.1688 C   0  0  0  0  0  0
   22.0016   40.8606   -8.5721 C   0  0  0  0  0  0
   22.8037   41.8036   -9.2615 C   0  0  0  0  0  0
   23.4357   42.8509   -8.5650 C   0  0  0  0  0  0
   23.2582   42.9875   -7.1761 C   0  0  0  0  0  0
   21.2511   39.7246   -9.2899 C   0  0  0  0  0  0
   21.7730   38.3690   -8.7692 C   0  0  0  0  0  0
   19.7385   39.8276   -8.9993 C   0  0  0  0  0  0
   21.4146   39.7826  -10.8239 C   0  0  0  0  0  0
   18.2028   45.0456   -5.8448 H   0  0  0  0  0  0
   20.3962   43.9299   -7.4427 H   0  0  0  0  0  0
   22.5213   51.5573  -11.2774 H   0  0  0  0  0  0
   20.8096   51.5259  -11.6821 H   0  0  0  0  0  0
   21.5329   50.2253  -10.7202 H   0  0  0  0  0  0
   21.9766   53.8260  -10.5630 H   0  0  0  0  0  0
   22.9556   53.1845   -9.2419 H   0  0  0  0  0  0
   21.4440   54.0482   -8.9124 H   0  0  0  0  0  0
   18.7097   51.2129  -10.7286 H   0  0  0  0  0  0
   17.1911   47.3654   -9.5177 H   0  0  0  0  0  0
   20.1173   49.3933   -7.0889 H   0  0  0  0  0  0
   18.8732   45.7540   -8.6221 H   0  0  0  0  0  0
   16.8600   43.3216   -6.4413 H   0  0  0  0  0  0
   16.2962   44.7457   -7.2734 H   0  0  0  0  0  0
   17.8916   44.6765   -9.8074 H   0  0  0  0  0  0
   18.4714   44.8337  -13.4304 H   0  0  0  0  0  0
   19.0561   44.7864  -11.7836 H   0  0  0  0  0  0
   16.3834   45.5682  -11.3787 H   0  0  0  0  0  0
   18.1080   47.3956  -13.0993 H   0  0  0  0  0  0
   15.6838   47.7844  -11.2104 H   0  0  0  0  0  0
   15.7612   48.5041  -12.8035 H   0  0  0  0  0  0
   17.2780   50.0777  -12.1018 H   0  0  0  0  0  0
   15.8414   40.1581   -9.6154 H   0  0  0  0  0  0
   16.1062   41.4885   -7.5511 H   0  0  0  0  0  0
   18.6108   42.1501   -6.1846 H   0  0  0  0  0  0
   19.6600   44.2793   -4.5427 H   0  0  0  0  0  0
   21.1701   44.6052   -5.3096 H   0  0  0  0  0  0
   20.2257   41.8637   -5.0668 H   0  0  0  0  0  0
   22.2739   40.9001   -3.1786 H   0  0  0  0  0  0
   23.5528   40.5010   -4.4379 H   0  0  0  0  0  0
   24.2800   42.8928   -4.4413 H   0  0  0  0  0  0
   22.9896   43.2789   -3.1896 H   0  0  0  0  0  0
   21.2812   40.2790   -6.6153 H   0  0  0  0  0  0
   22.9485   41.7531  -10.3296 H   0  0  0  0  0  0
   24.0418   43.5648   -9.1024 H   0  0  0  0  0  0
   23.7167   43.8156   -6.6572 H   0  0  0  0  0  0
   22.8564   38.2997   -8.8537 H   0  0  0  0  0  0
   21.3381   37.5325   -9.3163 H   0  0  0  0  0  0
   21.5303   38.2195   -7.7173 H   0  0  0  0  0  0
   19.3420   40.7934   -9.3175 H   0  0  0  0  0  0
   19.5092   39.7174   -7.9393 H   0  0  0  0  0  0
   19.1779   39.0555   -9.5270 H   0  0  0  0  0  0
   20.9904   40.6987  -11.2355 H   0  0  0  0  0  0
   20.9090   38.9504  -11.3108 H   0  0  0  0  0  0
   22.4600   39.7442  -11.1233 H   0  0  0  0  0  0
  1  2  1  0  0  0
  1 49  1  0  0  0
  1 50  1  0  0  0
  1 51  1  0  0  0
  2  3  1  0  0  0
  2  4  1  0  0  0
  3 52  1  0  0  0
  3 53  1  0  0  0
  3 54  1  0  0  0
  4  5  2  0  0  0
  4  6  1  0  0  0
  6 11  1  0  0  0
  6  7  2  0  0  0
  7  8  1  0  0  0
  7 55  1  0  0  0
  8 25  1  0  0  0
  8  9  2  0  0  0
  9 10  1  0  0  0
  9 56  1  0  0  0
 10 11  2  0  0  0
 10 12  1  0  0  0
 11 57  1  0  0  0
 12 13  2  0  0  0
 12 14  1  0  0  0
 14 15  1  0  0  0
 14 58  1  0  0  0
 15 47  1  0  0  0
 15 16  1  0  0  0
 15 30  1  0  0  0
 16 17  1  0  0  0
 16 59  1  0  0  0
 16 60  1  0  0  0
 17 29  1  0  0  0
 17 18  2  0  0  0
 18 19  1  0  0  0
 18 61  1  0  0  0
 19 20  1  0  0  0
 19 26  2  0  0  0
 20 21  1  0  0  0
 21 22  1  0  0  0
 21 62  1  0  0  0
 21 63  1  0  0  0
 22 23  2  0  0  0
 22 64  1  0  0  0
 23 24  1  0  0  0
 23 65  1  0  0  0
 24 25  1  0  0  0
 24 66  1  0  0  0
 24 67  1  0  0  0
 25 68  1  0  0  0
 26 27  1  0  0  0
 26 28  1  0  0  0
 28 29  2  0  0  0
 28 69  1  0  0  0
 29 70  1  0  0  0
 30 48  1  0  0  0
 30 31  1  0  0  0
 30 32  1  0  0  0
 31 71  1  0  0  0
 32 33  1  0  0  0
 32 72  1  0  0  0
 32 73  1  0  0  0
 33 34  1  0  0  0
 33 74  1  0  0  0
 34 36  1  0  0  0
 34 35  1  0  0  0
 34 37  1  0  0  0
 35 36  1  0  0  0
 35 75  1  0  0  0
 35 76  1  0  0  0
 36 77  1  0  0  0
 36 78  1  0  0  0
 37 42  1  0  0  0
 37 38  2  0  0  0
 38 39  1  0  0  0
 38 79  1  0  0  0
 39 40  2  0  0  0
 39 43  1  0  0  0
 40 41  1  0  0  0
 40 80  1  0  0  0
 41 42  2  0  0  0
 41 81  1  0  0  0
 42 82  1  0  0  0
 43 44  1  0  0  0
 43 45  1  0  0  0
 43 46  1  0  0  0
 44 83  1  0  0  0
 44 84  1  0  0  0
 44 85  1  0  0  0
 45 86  1  0  0  0
 45 87  1  0  0  0
 45 88  1  0  0  0
 46 89  1  0  0  0
 46 90  1  0  0  0
 46 91  1  0  0  0
M  END
> <s_m_source_file>
BACE_131.smi

> <i_m_source_file_index>
1

> <i_lp_mmshare_version>
42013

> <i_f3d_flags>
0

> <s_epik_input>
W2NIXTFbY0hdW2NIXWMoQyhbQ0gzXSkoW0NIM10pW0NIM10pW2NIXWMxQzIoW0NIMl1bQ0gyXTIpW05IXVtDSDJdW0NAQEhdKFtPSF0pW0NAQEhdKFtOSF1DKD1PKWMoW2NIXTMpW2NIXWMoW2NIXWMzNClDKD1PKU4oW0NIM10pW0NIM10pW0NIMl1jNVtjSF1jKGMoRilbY0hdW2NIXTUpT1tDSDJdL1tDSF09W0NIXS9bQ0gyXVtOSF00

> <s_epik_cmdline>
J2VwaWtfcHl0aG9uJywgJy1waCcsICc3LjAnLCAnLXRuJywgJzgnLCAnLW1hJywgJzIwMCcsICctaW1hZScsICc8aW5maWxlLm1hZT4nLCAnLW9tYWUnLCAnPG91dGZpbGUubWFlPic=

> <r_lp_tautomer_probability>
1

> <r_epik_Ionization_Penalty>
  0.3253

> <r_epik_Ionization_Penalty_Charging>
  0.0000

> <r_epik_Ionization_Penalty_Neutral>
  0.3253

> <r_epik_State_Penalty>
  0.3200

> <r_epik_Charging_Adjusted_Penalty>
0.320028

> <i_epik_Tot_Q>
0

> <i_epik_Tot_abs_Q>
0

> <s_lp_Force_Field>
OPLS_2005

> <r_lp_Energy>
59.8068

> <b_lp_Chiralities_Consistent>
1

> <s_lp_Variant>
BACE_131.smi:1-1

> <chiral flag>
1

> <version>
0

> <s_i_glide_gridfile>
second_dock_grid_2

> <i_i_glide_lignum>
268

> <i_i_glide_rotatable_bonds>
9

> <r_i_docking_score>
-4.45909

> <r_i_glide_ligand_efficiency>
-0.0969368

> <r_i_glide_ligand_efficiency_sa>
-0.347329

> <r_i_glide_ligand_efficiency_ln>
-0.923467

> <r_glide_XP_GScore>
-4.77909

> <r_i_glide_gscore>
-4.77909

> <r_i_glide_evdw>
-39.9653

> <r_i_glide_ecoul>
-12.4983

> <r_i_glide_energy>
-52.4636

> <r_i_glide_einternal>
8.78881

> <r_i_glide_emodel>
-71.7368

> <r_glide_XP_HBond>
-0.966462

> <i_i_glide_confnum>
1

> <i_i_glide_posenum>
1

> <r_i_glide_eff_state_penalty>
0.32

> <i_glide_XP_PoseRank>
1

$$$$
BACE_131.smi:1
                    3D
 Structure written by MMmdl.
 92 96  0  0  1  0            999 V2000
   14.1559   38.9383   -9.2196 C   0  0  0  0  0  0
   14.8311   40.2295   -9.3844 N   0  0  0  0  0  0
   15.1803   40.9007   -8.1263 C   0  0  0  0  0  0
   15.0019   40.7660  -10.6202 C   0  0  0  0  0  0
   14.4567   40.3092  -11.6268 O   0  0  0  0  0  0
   15.8998   41.9647  -10.7767 C   0  0  0  0  0  0
   15.3996   43.2750  -10.6120 C   0  0  0  0  0  0
   16.2472   44.3968  -10.7229 C   0  0  0  0  0  0
   17.6248   44.1956  -10.9949 C   0  0  0  0  0  0
   18.1511   42.8865  -11.1237 C   0  0  0  0  0  0
   17.2779   41.7804  -11.0168 C   0  0  0  0  0  0
   19.6086   42.6486  -11.4185 C   0  0  0  0  0  0
   19.9416   41.7450  -12.1874 O   0  0  0  0  0  0
   20.4871   43.4234  -10.7491 N   0  0  0  0  0  0
   21.9548   43.3303  -10.8064 C   0  0  1  0  0  0
   22.6251   44.7179  -11.0422 C   0  0  0  0  0  0
   22.7111   45.7130   -9.8830 C   0  0  0  0  0  0
   21.5449   46.2258   -9.2738 C   0  0  0  0  0  0
   21.6168   47.2202   -8.2629 C   0  0  0  0  0  0
   20.5172   47.7878   -7.6451 O   0  0  0  0  0  0
   19.2865   47.0678   -7.6134 C   0  0  0  0  0  0
   18.4758   47.2127   -8.8879 C   0  0  0  0  0  0
   17.1848   46.8674   -9.0072 C   0  0  0  0  0  0
   16.4330   46.8750  -10.3235 C   0  0  0  0  0  0
   15.6568   45.6623  -10.5514 N   0  0  0  0  0  0
   22.8871   47.6936   -7.8722 C   0  0  0  0  0  0
   22.9867   48.6503   -6.9182 F   0  0  0  0  0  0
   24.0570   47.1768   -8.4604 C   0  0  0  0  0  0
   23.9703   46.1930   -9.4628 C   0  0  0  0  0  0
   22.5079   42.4288   -9.6623 C   0  0  2  0  0  0
   23.3577   43.1540   -8.7938 O   0  0  0  0  0  0
   23.2687   41.1855  -10.1715 C   0  0  0  0  0  0
   23.4612   40.1908   -9.0912 N   0  3  0  0  0  0
   22.2542   39.8157   -8.3386 C   0  0  0  0  0  0
   21.0055   39.5055   -9.1289 C   0  0  0  0  0  0
   21.7707   38.3901   -8.4576 C   0  0  0  0  0  0
   22.0836   40.5080   -6.9939 C   0  0  0  0  0  0
   21.9319   41.9114   -6.9132 C   0  0  0  0  0  0
   21.7775   42.5737   -5.6662 C   0  0  0  0  0  0
   21.7786   41.7801   -4.4925 C   0  0  0  0  0  0
   21.9275   40.3827   -4.5602 C   0  0  0  0  0  0
   22.0796   39.7494   -5.8056 C   0  0  0  0  0  0
   21.6121   44.1081   -5.5520 C   0  0  0  0  0  0
   22.6876   44.6818   -4.6003 C   0  0  0  0  0  0
   21.7675   44.7566   -6.9473 C   0  0  0  0  0  0
   20.2309   44.5369   -4.9968 C   0  0  0  0  0  0
   22.1839   42.7917  -11.7272 H   0  0  0  0  0  0
   21.6623   42.0811   -9.0667 H   0  0  0  0  0  0
   14.3701   38.4881   -8.2494 H   0  0  0  0  0  0
   14.4753   38.2140   -9.9709 H   0  0  0  0  0  0
   13.0748   39.0605   -9.2996 H   0  0  0  0  0  0
   14.5459   40.5660   -7.3043 H   0  0  0  0  0  0
   15.0520   41.9824   -8.1815 H   0  0  0  0  0  0
   16.2132   40.6861   -7.8503 H   0  0  0  0  0  0
   14.3522   43.4264  -10.3905 H   0  0  0  0  0  0
   18.2853   45.0422  -11.1074 H   0  0  0  0  0  0
   17.6662   40.7765  -11.1200 H   0  0  0  0  0  0
   20.1090   44.1245  -10.1281 H   0  0  0  0  0  0
   23.6342   44.5494  -11.4204 H   0  0  0  0  0  0
   22.1099   45.2223  -11.8611 H   0  0  0  0  0  0
   20.5950   45.8580   -9.6205 H   0  0  0  0  0  0
   18.6936   47.4455   -6.7798 H   0  0  0  0  0  0
   19.4632   46.0114   -7.4038 H   0  0  0  0  0  0
   19.0096   47.5430   -9.7669 H   0  0  0  0  0  0
   16.6393   46.5210   -8.1410 H   0  0  0  0  0  0
   15.7346   47.7118  -10.3041 H   0  0  0  0  0  0
   17.1096   47.0570  -11.1592 H   0  0  0  0  0  0
   14.6941   45.6822  -10.2465 H   0  0  0  0  0  0
   25.0240   47.5450   -8.1505 H   0  0  0  0  0  0
   24.8782   45.8255   -9.9184 H   0  0  0  0  0  0
   23.6068   42.5897   -8.0779 H   0  0  0  0  0  0
   24.2326   41.4724  -10.5925 H   0  0  0  0  0  0
   22.6993   40.7094  -10.9708 H   0  0  0  0  0  0
   24.1258   40.5741   -8.4344 H   0  0  0  0  0  0
   20.0484   39.7938   -8.6943 H   0  0  0  0  0  0
   21.0649   39.5759  -10.2150 H   0  0  0  0  0  0
   22.3418   37.7149   -9.0948 H   0  0  0  0  0  0
   21.3252   37.9328   -7.5741 H   0  0  0  0  0  0
   21.9372   42.4615   -7.8409 H   0  0  0  0  0  0
   21.6649   42.2330   -3.5190 H   0  0  0  0  0  0
   21.9254   39.7956   -3.6536 H   0  0  0  0  0  0
   22.1933   38.6757   -5.8448 H   0  0  0  0  0  0
   22.6163   44.2369   -3.6068 H   0  0  0  0  0  0
   22.5801   45.7606   -4.4792 H   0  0  0  0  0  0
   23.7011   44.5084   -4.9621 H   0  0  0  0  0  0
   21.0308   44.3660   -7.6506 H   0  0  0  0  0  0
   22.7530   44.5847   -7.3802 H   0  0  0  0  0  0
   21.6303   45.8379   -6.9034 H   0  0  0  0  0  0
   19.4118   44.2040   -5.6358 H   0  0  0  0  0  0
   20.1494   45.6227   -4.9295 H   0  0  0  0  0  0
   20.0562   44.1504   -3.9917 H   0  0  0  0  0  0
   23.8591   39.3546   -9.4943 H   0  0  0  0  0  0
  1  2  1  0  0  0
  1 49  1  0  0  0
  1 50  1  0  0  0
  1 51  1  0  0  0
  2  3  1  0  0  0
  2  4  1  0  0  0
  3 52  1  0  0  0
  3 53  1  0  0  0
  3 54  1  0  0  0
  4  5  2  0  0  0
  4  6  1  0  0  0
  6 11  1  0  0  0
  6  7  2  0  0  0
  7  8  1  0  0  0
  7 55  1  0  0  0
  8 25  1  0  0  0
  8  9  2  0  0  0
  9 10  1  0  0  0
  9 56  1  0  0  0
 10 11  2  0  0  0
 10 12  1  0  0  0
 11 57  1  0  0  0
 12 13  2  0  0  0
 12 14  1  0  0  0
 14 15  1  0  0  0
 14 58  1  0  0  0
 15 47  1  0  0  0
 15 16  1  0  0  0
 15 30  1  0  0  0
 16 17  1  0  0  0
 16 59  1  0  0  0
 16 60  1  0  0  0
 17 29  1  0  0  0
 17 18  2  0  0  0
 18 19  1  0  0  0
 18 61  1  0  0  0
 19 20  1  0  0  0
 19 26  2  0  0  0
 20 21  1  0  0  0
 21 22  1  0  0  0
 21 62  1  0  0  0
 21 63  1  0  0  0
 22 23  2  0  0  0
 22 64  1  0  0  0
 23 24  1  0  0  0
 23 65  1  0  0  0
 24 25  1  0  0  0
 24 66  1  0  0  0
 24 67  1  0  0  0
 25 68  1  0  0  0
 26 27  1  0  0  0
 26 28  1  0  0  0
 28 29  2  0  0  0
 28 69  1  0  0  0
 29 70  1  0  0  0
 30 48  1  0  0  0
 30 31  1  0  0  0
 30 32  1  0  0  0
 31 71  1  0  0  0
 32 33  1  0  0  0
 32 72  1  0  0  0
 32 73  1  0  0  0
 33 34  1  0  0  0
 33 74  1  0  0  0
 33 92  1  0  0  0
 34 36  1  0  0  0
 34 35  1  0  0  0
 34 37  1  0  0  0
 35 36  1  0  0  0
 35 75  1  0  0  0
 35 76  1  0  0  0
 36 77  1  0  0  0
 36 78  1  0  0  0
 37 42  1  0  0  0
 37 38  2  0  0  0
 38 39  1  0  0  0
 38 79  1  0  0  0
 39 40  2  0  0  0
 39 43  1  0  0  0
 40 41  1  0  0  0
 40 80  1  0  0  0
 41 42  2  0  0  0
 41 81  1  0  0  0
 42 82  1  0  0  0
 43 44  1  0  0  0
 43 45  1  0  0  0
 43 46  1  0  0  0
 44 83  1  0  0  0
 44 84  1  0  0  0
 44 85  1  0  0  0
 45 86  1  0  0  0
 45 87  1  0  0  0
 45 88  1  0  0  0
 46 89  1  0  0  0
 46 90  1  0  0  0
 46 91  1  0  0  0
M  CHG  1  33   1
M  END
> <s_m_source_file>
BACE_131.smi

> <i_m_source_file_index>
1

> <i_lp_mmshare_version>
42013

> <i_f3d_flags>
0

> <s_epik_input>
W2NIXTFbY0hdW2NIXWMoQyhbQ0gzXSkoW0NIM10pW0NIM10pW2NIXWMxQzIoW0NIMl1bQ0gyXTIpW05IXVtDSDJdW0NAQEhdKFtPSF0pW0NAQEhdKFtOSF1DKD1PKWMoW2NIXTMpW2NIXWMoW2NIXWMzNClDKD1PKU4oW0NIM10pW0NIM10pW0NIMl1jNVtjSF1jKGMoRilbY0hdW2NIXTUpT1tDSDJdL1tDSF09W0NIXS9bQ0gyXVtOSF00

> <s_epik_cmdline>
J2VwaWtfcHl0aG9uJywgJy1waCcsICc3LjAnLCAnLXRuJywgJzgnLCAnLW1hJywgJzIwMCcsICctaW1hZScsICc8aW5maWxlLm1hZT4nLCAnLW9tYWUnLCAnPG91dGZpbGUubWFlPic=

> <r_lp_tautomer_probability>
1

> <r_epik_Ionization_Penalty>
  0.5105

> <r_epik_Ionization_Penalty_Charging>
  0.5105

> <r_epik_Ionization_Penalty_Neutral>
  0.0000

> <r_epik_State_Penalty>
  0.5178

> <r_epik_Charging_Adjusted_Penalty>
1.02829

> <i_epik_Tot_Q>
1

> <i_epik_Tot_abs_Q>
1

> <s_lp_Force_Field>
OPLS_2005

> <r_lp_Energy>
53.0652

> <b_lp_Chiralities_Consistent>
1

> <s_lp_Variant>
BACE_131.smi:1-2

> <chiral flag>
1

> <version>
0

> <s_i_glide_gridfile>
second_dock_grid_2

> <i_i_glide_lignum>
269

> <i_i_glide_rotatable_bonds>
9

> <r_i_docking_score>
-4.89609

> <r_i_glide_ligand_efficiency>
-0.106437

> <r_i_glide_ligand_efficiency_sa>
-0.381368

> <r_i_glide_ligand_efficiency_ln>
-1.01397

> <r_glide_XP_GScore>
-5.41389

> <r_i_glide_gscore>
-5.41389

> <r_i_glide_evdw>
-41.0431

> <r_i_glide_ecoul>
-15.2686

> <r_i_glide_energy>
-56.3117

> <r_i_glide_einternal>
7.76653

> <r_i_glide_emodel>
-76.6805

> <r_glide_XP_HBond>
0

> <i_i_glide_confnum>
1

> <i_i_glide_posenum>
2

> <r_i_glide_eff_state_penalty>
0.5178

> <i_glide_XP_PoseRank>
1

$$$$
BACE_132.smi:1
                    3D
 Structure written by MMmdl.
 81 85  0  0  1  0            999 V2000
   29.4698   41.3504  -13.6055 C   0  0  0  0  0  0
   29.8632   42.3545  -12.5143 C   0  0  0  0  0  0
   30.8432   41.7409  -11.5076 C   0  0  0  0  0  0
   28.6622   42.9616  -11.8024 C   0  0  0  0  0  0
   27.6596   42.1477  -11.2254 C   0  0  0  0  0  0
   26.6016   42.7264  -10.4906 C   0  0  0  0  0  0
   25.5554   41.8484   -9.8187 C   0  0  0  0  0  0
   24.3092   41.6820  -10.5964 N   0  3  0  0  0  0
   23.5872   42.9191  -10.9680 C   0  0  0  0  0  0
   22.0618   42.7076  -11.0684 C   0  0  1  0  0  0
   21.7709   41.4457  -11.6393 O   0  0  0  0  0  0
   21.3113   42.9174   -9.7233 C   0  0  2  0  0  0
   21.6604   41.9356   -8.5718 C   0  0  0  0  0  0
   20.9332   40.6015   -8.6139 C   0  0  0  0  0  0
   19.6409   40.4945   -8.0620 C   0  0  0  0  0  0
   18.9416   39.2732   -8.1138 C   0  0  0  0  0  0
   17.5560   39.1795   -7.5130 C   0  0  0  0  0  0
   16.4324   39.2021   -8.5602 C   0  0  0  0  0  0
   15.1426   39.8060   -7.9828 C   0  0  0  0  0  0
   15.1788   41.3438   -7.9439 C   0  0  0  0  0  0
   14.8088   41.8422   -9.2267 O   0  0  0  0  0  0
   15.5708   42.8163   -9.8259 C   0  0  0  0  0  0
   16.9757   42.9235   -9.6953 C   0  0  0  0  0  0
   17.6851   43.9425  -10.3760 C   0  0  0  0  0  0
   16.9702   44.8629  -11.1734 C   0  0  0  0  0  0
   15.5699   44.7635  -11.3135 C   0  0  0  0  0  0
   14.8840   43.7283  -10.6489 C   0  0  0  0  0  0
   14.8324   45.7154  -12.1399 C   0  0  0  0  0  0
   13.5152   45.8045  -12.3386 N   0  0  0  0  0  0
   13.3465   46.8450  -13.2405 C   0  0  0  0  0  0
   14.5804   47.3639  -13.5185 C   0  0  0  0  0  0
   15.5309   46.6534  -12.8383 O   0  0  0  0  0  0
   19.1727   44.0988  -10.2211 C   0  0  0  0  0  0
   19.7082   45.1968  -10.3801 O   0  0  0  0  0  0
   19.8666   42.9817   -9.9542 N   0  0  0  0  0  0
   19.5430   38.1500   -8.7094 C   0  0  0  0  0  0
   20.8498   38.2398   -9.2238 C   0  0  0  0  0  0
   21.5455   39.4621   -9.1773 C   0  0  0  0  0  0
   26.5581   44.1297  -10.3292 C   0  0  0  0  0  0
   27.5358   44.9448  -10.9242 C   0  0  0  0  0  0
   28.5847   44.3635  -11.6587 C   0  0  0  0  0  0
   21.6892   43.4617  -11.7635 H   0  0  0  0  0  0
   21.6288   43.8960   -9.3587 H   0  0  0  0  0  0
   28.8602   41.8183  -14.3763 H   0  0  0  0  0  0
   28.9174   40.4988  -13.2057 H   0  0  0  0  0  0
   30.3556   40.9500  -14.0987 H   0  0  0  0  0  0
   30.3925   43.1632  -13.0194 H   0  0  0  0  0  0
   31.1783   42.4804  -10.7800 H   0  0  0  0  0  0
   31.7247   41.3514  -12.0170 H   0  0  0  0  0  0
   30.3829   40.9153  -10.9631 H   0  0  0  0  0  0
   27.7206   41.0723  -11.3168 H   0  0  0  0  0  0
   25.9764   40.8572   -9.6403 H   0  0  0  0  0  0
   25.2965   42.2674   -8.8452 H   0  0  0  0  0  0
   24.4947   41.1723  -11.4538 H   0  0  0  0  0  0
   23.7783   43.7152  -10.2506 H   0  0  0  0  0  0
   23.9869   43.2548  -11.9267 H   0  0  0  0  0  0
   22.2403   41.3512  -12.4589 H   0  0  0  0  0  0
   22.7309   41.7716   -8.4877 H   0  0  0  0  0  0
   21.3848   42.4087   -7.6278 H   0  0  0  0  0  0
   19.1811   41.3535   -7.5947 H   0  0  0  0  0  0
   17.4760   38.2877   -6.8892 H   0  0  0  0  0  0
   17.4399   40.0246   -6.8396 H   0  0  0  0  0  0
   16.7310   39.7826   -9.4334 H   0  0  0  0  0  0
   16.2553   38.1867   -8.9173 H   0  0  0  0  0  0
   14.2807   39.4815   -8.5660 H   0  0  0  0  0  0
   14.9838   39.4160   -6.9763 H   0  0  0  0  0  0
   14.4332   41.7013   -7.2400 H   0  0  0  0  0  0
   16.1198   41.7227   -7.5521 H   0  0  0  0  0  0
   17.5109   42.2152   -9.0844 H   0  0  0  0  0  0
   17.5035   45.6560  -11.6788 H   0  0  0  0  0  0
   13.8139   43.6339  -10.7528 H   0  0  0  0  0  0
   12.3730   47.1364  -13.6042 H   0  0  0  0  0  0
   14.9332   48.1684  -14.1477 H   0  0  0  0  0  0
   19.3649   42.1062   -9.8902 H   0  0  0  0  0  0
   19.0093   37.2116   -8.7473 H   0  0  0  0  0  0
   21.3245   37.3665   -9.6403 H   0  0  0  0  0  0
   22.5430   39.5113   -9.5818 H   0  0  0  0  0  0
   25.7836   44.5947   -9.7386 H   0  0  0  0  0  0
   27.4949   46.0180  -10.7982 H   0  0  0  0  0  0
   29.3443   44.9995  -12.0875 H   0  0  0  0  0  0
   23.6743   41.1140  -10.0539 H   0  0  0  0  0  0
  1  2  1  0  0  0
  1 44  1  0  0  0
  1 45  1  0  0  0
  1 46  1  0  0  0
  2  3  1  0  0  0
  2  4  1  0  0  0
  2 47  1  0  0  0
  3 48  1  0  0  0
  3 49  1  0  0  0
  3 50  1  0  0  0
  4 41  1  0  0  0
  4  5  2  0  0  0
  5  6  1  0  0  0
  5 51  1  0  0  0
  6  7  1  0  0  0
  6 39  2  0  0  0
  7  8  1  0  0  0
  7 52  1  0  0  0
  7 53  1  0  0  0
  8  9  1  0  0  0
  8 54  1  0  0  0
  8 81  1  0  0  0
  9 10  1  0  0  0
  9 55  1  0  0  0
  9 56  1  0  0  0
 10 42  1  0  0  0
 10 11  1  0  0  0
 10 12  1  0  0  0
 11 57  1  0  0  0
 12 43  1  0  0  0
 12 35  1  0  0  0
 12 13  1  0  0  0
 13 14  1  0  0  0
 13 58  1  0  0  0
 13 59  1  0  0  0
 14 38  1  0  0  0
 14 15  2  0  0  0
 15 16  1  0  0  0
 15 60  1  0  0  0
 16 17  1  0  0  0
 16 36  2  0  0  0
 17 18  1  0  0  0
 17 61  1  0  0  0
 17 62  1  0  0  0
 18 19  1  0  0  0
 18 63  1  0  0  0
 18 64  1  0  0  0
 19 20  1  0  0  0
 19 65  1  0  0  0
 19 66  1  0  0  0
 20 21  1  0  0  0
 20 67  1  0  0  0
 20 68  1  0  0  0
 21 22  1  0  0  0
 22 27  1  0  0  0
 22 23  2  0  0  0
 23 24  1  0  0  0
 23 69  1  0  0  0
 24 25  2  0  0  0
 24 33  1  0  0  0
 25 26  1  0  0  0
 25 70  1  0  0  0
 26 27  2  0  0  0
 26 28  1  0  0  0
 27 71  1  0  0  0
 28 32  1  0  0  0
 28 29  2  0  0  0
 29 30  1  0  0  0
 30 31  2  0  0  0
 30 72  1  0  0  0
 31 32  1  0  0  0
 31 73  1  0  0  0
 33 34  2  0  0  0
 33 35  1  0  0  0
 35 74  1  0  0  0
 36 37  1  0  0  0
 36 75  1  0  0  0
 37 38  2  0  0  0
 37 76  1  0  0  0
 38 77  1  0  0  0
 39 40  1  0  0  0
 39 78  1  0  0  0
 40 41  2  0  0  0
 40 79  1  0  0  0
 41 80  1  0  0  0
M  CHG  1   8   1
M  END
> <s_m_source_file>
BACE_132.smi

> <i_m_source_file_index>
1

> <i_lp_mmshare_version>
42013

> <i_f3d_flags>
0

> <s_epik_input>
W0NIM11bQ0hdKFtDSDNdKWMxW2NIXWMoW2NIXVtjSF1bY0hdMSlbQ0gyXVtOSF1bQ0gyXVtDQEBIXShbT0hdKVtDQEhdKFtDSDJdMilbTkhdQyg9TyljKFtjSF1jKFtjSF0zKS1jNG5bY0hdW2NIXW80KVtjSF1jM09bQ0gyXVtDSDJdW0NIMl1bQ0gyXWMoW2NIXWMyNSlbY0hdW2NIXVtjSF01

> <s_epik_cmdline>
J2VwaWtfcHl0aG9uJywgJy1waCcsICc3LjAnLCAnLXRuJywgJzgnLCAnLW1hJywgJzIwMCcsICctaW1hZScsICc8aW5maWxlLm1hZT4nLCAnLW9tYWUnLCAnPG91dGZpbGUubWFlPic=

> <r_lp_tautomer_probability>
1

> <r_epik_Ionization_Penalty>
  0.0191

> <r_epik_Ionization_Penalty_Charging>
  0.0191

> <r_epik_Ionization_Penalty_Neutral>
  0.0000

> <r_epik_State_Penalty>
  0.0153

> <r_epik_Charging_Adjusted_Penalty>
0.0343718

> <i_epik_Tot_Q>
1

> <i_epik_Tot_abs_Q>
1

> <s_lp_Force_Field>
OPLS_2005

> <r_lp_Energy>
30.5153

> <b_lp_Chiralities_Consistent>
1

> <s_lp_Variant>
BACE_132.smi:1-1

> <chiral flag>
1

> <version>
0

> <s_i_glide_gridfile>
second_dock_grid_2

> <i_i_glide_lignum>
270

> <i_i_glide_rotatable_bonds>
8

> <r_i_docking_score>
-3.86472

> <r_i_glide_ligand_efficiency>
-0.0942615

> <r_i_glide_ligand_efficiency_sa>
-0.325034

> <r_i_glide_ligand_efficiency_ln>
-0.819913

> <r_glide_XP_GScore>
-3.88002

> <r_i_glide_gscore>
-3.88002

> <r_i_glide_evdw>
-40.6107

> <r_i_glide_ecoul>
-11.5151

> <r_i_glide_energy>
-52.1258

> <r_i_glide_einternal>
11.8782

> <r_i_glide_emodel>
-71.3773

> <r_glide_XP_HBond>
-0.591654

> <i_i_glide_confnum>
1

> <i_i_glide_posenum>
9

> <r_i_glide_eff_state_penalty>
0.0153

> <i_glide_XP_PoseRank>
1

$$$$
BACE_132.smi:1
                    3D
 Structure written by MMmdl.
 80 84  0  0  1  0            999 V2000
   18.9982   48.4395   -5.7934 C   0  0  0  0  0  0
   20.1829   47.6050   -6.3009 C   0  0  0  0  0  0
   20.7328   48.1551   -7.6276 C   0  0  0  0  0  0
   19.8291   46.1328   -6.4295 C   0  0  0  0  0  0
   18.7536   45.7204   -7.2464 C   0  0  0  0  0  0
   18.4637   44.3525   -7.4061 C   0  0  0  0  0  0
   17.3554   43.9170   -8.3382 C   0  0  0  0  0  0
   16.0448   44.4847   -8.0402 N   0  0  0  0  0  0
   15.0594   44.3658   -9.1249 C   0  0  0  0  0  0
   14.6123   42.9157   -9.4684 C   0  0  1  0  0  0
   13.2078   42.9704   -9.6387 O   0  0  0  0  0  0
   15.1672   42.3291  -10.8029 C   0  0  2  0  0  0
   14.7430   40.8536  -11.0232 C   0  0  0  0  0  0
   15.4232   39.8732  -10.0859 C   0  0  0  0  0  0
   16.7356   39.4400  -10.3614 C   0  0  0  0  0  0
   17.4127   38.5947   -9.4650 C   0  0  0  0  0  0
   18.8477   38.2018   -9.7407 C   0  0  0  0  0  0
   19.8258   38.9486   -8.8184 C   0  0  0  0  0  0
   21.2765   38.9232   -9.3210 C   0  0  0  0  0  0
   21.5573   39.9408  -10.4392 C   0  0  0  0  0  0
   21.6189   41.2536   -9.8945 O   0  0  0  0  0  0
   20.8853   42.2463  -10.4983 C   0  0  0  0  0  0
   19.5394   42.0839  -10.9026 C   0  0  0  0  0  0
   18.8212   43.1732  -11.4532 C   0  0  0  0  0  0
   19.4707   44.4129  -11.6340 C   0  0  0  0  0  0
   20.8111   44.5868  -11.2311 C   0  0  0  0  0  0
   21.5017   43.5013  -10.6497 C   0  0  0  0  0  0
   21.4611   45.8833  -11.3707 C   0  0  0  0  0  0
   20.9426   47.0262  -11.8176 N   0  0  0  0  0  0
   21.9780   47.9481  -11.7498 C   0  0  0  0  0  0
   23.0862   47.3066  -11.2575 C   0  0  0  0  0  0
   22.7728   45.9976  -11.0155 O   0  0  0  0  0  0
   17.3652   43.0542  -11.7964 C   0  0  0  0  0  0
   16.9003   43.5824  -12.8067 O   0  0  0  0  0  0
   16.6235   42.4351  -10.8662 N   0  0  0  0  0  0
   16.7547   38.1494   -8.3032 C   0  0  0  0  0  0
   15.4318   38.5499   -8.0402 C   0  0  0  0  0  0
   14.7629   39.4099   -8.9300 C   0  0  0  0  0  0
   19.2592   43.3871   -6.7594 C   0  0  0  0  0  0
   20.3169   43.7910   -5.9221 C   0  0  0  0  0  0
   20.6036   45.1600   -5.7615 C   0  0  0  0  0  0
   14.8231   42.2568   -8.6262 H   0  0  0  0  0  0
   14.7407   42.9185  -11.6165 H   0  0  0  0  0  0
   18.6299   48.0622   -4.8406 H   0  0  0  0  0  0
   18.1652   48.4389   -6.4950 H   0  0  0  0  0  0
   19.3010   49.4730   -5.6412 H   0  0  0  0  0  0
   20.9798   47.6913   -5.5595 H   0  0  0  0  0  0
   21.5985   47.5797   -7.9571 H   0  0  0  0  0  0
   21.0431   49.1945   -7.5270 H   0  0  0  0  0  0
   19.9866   48.1059   -8.4214 H   0  0  0  0  0  0
   18.1618   46.4497   -7.7785 H   0  0  0  0  0  0
   17.6733   44.2576   -9.3190 H   0  0  0  0  0  0
   17.3029   42.8264   -8.3553 H   0  0  0  0  0  0
   15.6837   44.0195   -7.1993 H   0  0  0  0  0  0
   14.1824   44.9377   -8.8205 H   0  0  0  0  0  0
   15.4237   44.8658  -10.0237 H   0  0  0  0  0  0
   12.8216   42.1989   -9.2328 H   0  0  0  0  0  0
   13.6617   40.7477  -10.9337 H   0  0  0  0  0  0
   14.9866   40.5506  -12.0399 H   0  0  0  0  0  0
   17.2344   39.7770  -11.2559 H   0  0  0  0  0  0
   18.9586   37.1251   -9.6118 H   0  0  0  0  0  0
   19.0723   38.4061  -10.7864 H   0  0  0  0  0  0
   19.5187   39.9892   -8.7013 H   0  0  0  0  0  0
   19.7715   38.5118   -7.8199 H   0  0  0  0  0  0
   21.9525   39.1319   -8.4903 H   0  0  0  0  0  0
   21.5255   37.9185   -9.6601 H   0  0  0  0  0  0
   22.5453   39.7466  -10.8543 H   0  0  0  0  0  0
   20.8586   39.8346  -11.2689 H   0  0  0  0  0  0
   19.0479   41.1354  -10.7493 H   0  0  0  0  0  0
   18.9266   45.2465  -12.0527 H   0  0  0  0  0  0
   22.5218   43.6209  -10.3138 H   0  0  0  0  0  0
   21.8473   48.9763  -12.0495 H   0  0  0  0  0  0
   24.0954   47.6169  -11.0352 H   0  0  0  0  0  0
   17.1227   42.0261  -10.0871 H   0  0  0  0  0  0
   17.2628   37.4970   -7.6074 H   0  0  0  0  0  0
   14.9338   38.2038   -7.1423 H   0  0  0  0  0  0
   13.7520   39.7244   -8.7135 H   0  0  0  0  0  0
   19.0546   42.3333   -6.8829 H   0  0  0  0  0  0
   20.9123   43.0483   -5.4102 H   0  0  0  0  0  0
   21.4298   45.4518   -5.1293 H   0  0  0  0  0  0
  1  2  1  0  0  0
  1 44  1  0  0  0
  1 45  1  0  0  0
  1 46  1  0  0  0
  2  3  1  0  0  0
  2  4  1  0  0  0
  2 47  1  0  0  0
  3 48  1  0  0  0
  3 49  1  0  0  0
  3 50  1  0  0  0
  4 41  1  0  0  0
  4  5  2  0  0  0
  5  6  1  0  0  0
  5 51  1  0  0  0
  6  7  1  0  0  0
  6 39  2  0  0  0
  7  8  1  0  0  0
  7 52  1  0  0  0
  7 53  1  0  0  0
  8  9  1  0  0  0
  8 54  1  0  0  0
  9 10  1  0  0  0
  9 55  1  0  0  0
  9 56  1  0  0  0
 10 42  1  0  0  0
 10 11  1  0  0  0
 10 12  1  0  0  0
 11 57  1  0  0  0
 12 43  1  0  0  0
 12 35  1  0  0  0
 12 13  1  0  0  0
 13 14  1  0  0  0
 13 58  1  0  0  0
 13 59  1  0  0  0
 14 38  1  0  0  0
 14 15  2  0  0  0
 15 16  1  0  0  0
 15 60  1  0  0  0
 16 17  1  0  0  0
 16 36  2  0  0  0
 17 18  1  0  0  0
 17 61  1  0  0  0
 17 62  1  0  0  0
 18 19  1  0  0  0
 18 63  1  0  0  0
 18 64  1  0  0  0
 19 20  1  0  0  0
 19 65  1  0  0  0
 19 66  1  0  0  0
 20 21  1  0  0  0
 20 67  1  0  0  0
 20 68  1  0  0  0
 21 22  1  0  0  0
 22 27  1  0  0  0
 22 23  2  0  0  0
 23 24  1  0  0  0
 23 69  1  0  0  0
 24 25  2  0  0  0
 24 33  1  0  0  0
 25 26  1  0  0  0
 25 70  1  0  0  0
 26 27  2  0  0  0
 26 28  1  0  0  0
 27 71  1  0  0  0
 28 32  1  0  0  0
 28 29  2  0  0  0
 29 30  1  0  0  0
 30 31  2  0  0  0
 30 72  1  0  0  0
 31 32  1  0  0  0
 31 73  1  0  0  0
 33 34  2  0  0  0
 33 35  1  0  0  0
 35 74  1  0  0  0
 36 37  1  0  0  0
 36 75  1  0  0  0
 37 38  2  0  0  0
 37 76  1  0  0  0
 38 77  1  0  0  0
 39 40  1  0  0  0
 39 78  1  0  0  0
 40 41  2  0  0  0
 40 79  1  0  0  0
 41 80  1  0  0  0
M  END
> <s_m_source_file>
BACE_132.smi

> <i_m_source_file_index>
1

> <i_lp_mmshare_version>
42013

> <i_f3d_flags>
0

> <s_epik_input>
W0NIM11bQ0hdKFtDSDNdKWMxW2NIXWMoW2NIXVtjSF1bY0hdMSlbQ0gyXVtOSF1bQ0gyXVtDQEBIXShbT0hdKVtDQEhdKFtDSDJdMilbTkhdQyg9TyljKFtjSF1jKFtjSF0zKS1jNG5bY0hdW2NIXW80KVtjSF1jM09bQ0gyXVtDSDJdW0NIMl1bQ0gyXWMoW2NIXWMyNSlbY0hdW2NIXVtjSF01

> <s_epik_cmdline>
J2VwaWtfcHl0aG9uJywgJy1waCcsICc3LjAnLCAnLXRuJywgJzgnLCAnLW1hJywgJzIwMCcsICctaW1hZScsICc8aW5maWxlLm1hZT4nLCAnLW9tYWUnLCAnPG91dGZpbGUubWFlPic=

> <r_lp_tautomer_probability>
1

> <r_epik_Ionization_Penalty>
  2.0439

> <r_epik_Ionization_Penalty_Charging>
  0.0000

> <r_epik_Ionization_Penalty_Neutral>
  2.0439

> <r_epik_State_Penalty>
  2.1759

> <r_epik_Charging_Adjusted_Penalty>
2.17586

> <i_epik_Tot_Q>
0

> <i_epik_Tot_abs_Q>
0

> <s_lp_Force_Field>
OPLS_2005

> <r_lp_Energy>
40.2452

> <b_lp_Chiralities_Consistent>
1

> <s_lp_Variant>
BACE_132.smi:1-2

> <chiral flag>
1

> <version>
0

> <s_i_glide_gridfile>
second_dock_grid_2

> <i_i_glide_lignum>
271

> <i_i_glide_rotatable_bonds>
8

> <r_i_docking_score>
0.876177

> <r_i_glide_ligand_efficiency>
0.0213702

> <r_i_glide_ligand_efficiency_sa>
0.073689

> <r_i_glide_ligand_efficiency_ln>
0.185884

> <r_glide_XP_GScore>
-1.29972

> <r_i_glide_gscore>
-1.29972

> <r_i_glide_evdw>
-38.1559

> <r_i_glide_ecoul>
-13.9864

> <r_i_glide_energy>
-52.1424

> <r_i_glide_einternal>
4.44055

> <r_i_glide_emodel>
-74.646

> <r_glide_XP_HBond>
-1.89

> <i_i_glide_confnum>
1

> <i_i_glide_posenum>
11

> <r_i_glide_eff_state_penalty>
2.1759

> <i_glide_XP_PoseRank>
1

$$$$
BACE_133.smi:1
                    3D
 Structure written by MMmdl.
 89 93  0  0  1  0            999 V2000
   18.9136   43.7012  -11.5577 C   0  0  0  0  0  0
   17.6662   43.7344  -12.4327 C   0  0  0  0  0  0
   17.6880   43.3032  -13.5849 O   0  0  0  0  0  0
   16.4010   44.3250  -11.8101 C   0  0  0  0  0  0
   16.7184   44.9377  -10.5663 O   0  0  0  0  0  0
   17.3403   44.1737   -9.6005 C   0  0  0  0  0  0
   17.2883   42.7558   -9.5445 C   0  0  0  0  0  0
   17.9478   42.0558   -8.5096 C   0  0  0  0  0  0
   18.6622   42.7711   -7.5308 C   0  0  0  0  0  0
   18.7483   44.1775   -7.5871 C   0  0  0  0  0  0
   18.0685   44.8704   -8.6115 C   0  0  0  0  0  0
   19.5371   44.9211   -6.5517 C   0  0  0  0  0  0
   19.0157   45.8085   -5.8764 O   0  0  0  0  0  0
   20.8213   44.5290   -6.4497 N   0  0  0  0  0  0
   21.8099   44.9133   -5.4324 C   0  0  1  0  0  0
   22.9757   43.8822   -5.4166 C   0  0  0  0  0  0
   22.5823   42.4165   -5.5830 C   0  0  0  0  0  0
   22.6096   41.8139   -6.8610 C   0  0  0  0  0  0
   22.2432   40.4607   -7.0300 C   0  0  0  0  0  0
   22.2415   39.8464   -8.4239 C   0  0  0  0  0  0
   20.9878   40.2125   -9.2455 C   0  0  0  0  0  0
   19.7667   39.3120   -8.9701 C   0  0  0  0  0  0
   18.4226   39.9065   -9.4347 C   0  0  0  0  0  0
   17.8610   40.6910   -8.3857 O   0  0  0  0  0  0
   21.8788   39.6964   -5.9008 C   0  0  0  0  0  0
   21.8638   40.2872   -4.6215 C   0  0  0  0  0  0
   22.2104   41.6437   -4.4622 C   0  0  0  0  0  0
   22.3773   46.3580   -5.6104 C   0  0  2  0  0  0
   22.5375   46.6281   -6.9899 O   0  0  0  0  0  0
   23.6937   46.6697   -4.8608 C   0  0  0  0  0  0
   23.4287   47.2784   -3.5528 N   0  0  0  0  0  0
   23.8480   48.6662   -3.3041 C   0  0  0  0  0  0
   22.7767   49.7304   -3.2995 C   0  0  0  0  0  0
   23.7491   49.6430   -4.4514 C   0  0  0  0  0  0
   25.0103   48.8320   -2.3355 C   0  0  0  0  0  0
   26.3452   48.5650   -2.7181 C   0  0  0  0  0  0
   27.3953   48.7563   -1.7820 C   0  0  0  0  0  0
   27.0274   49.2202   -0.4949 C   0  0  0  0  0  0
   25.6703   49.4677   -0.2102 C   0  0  0  0  0  0
   24.6790   49.2838   -1.1055 N   0  0  0  0  0  0
   28.8799   48.4846   -2.1154 C   0  0  0  0  0  0
   29.2348   49.1226   -3.4783 C   0  0  0  0  0  0
   29.8562   49.0664   -1.0632 C   0  0  0  0  0  0
   29.1294   46.9603   -2.1854 C   0  0  0  0  0  0
   21.3200   44.8312   -4.4599 H   0  0  0  0  0  0
   21.6109   47.0593   -5.2759 H   0  0  0  0  0  0
   18.7329   43.1066  -10.6621 H   0  0  0  0  0  0
   19.1907   44.7107  -11.2538 H   0  0  0  0  0  0
   19.7515   43.2622  -12.0998 H   0  0  0  0  0  0
   15.6736   43.5253  -11.6658 H   0  0  0  0  0  0
   15.9796   45.0584  -12.4987 H   0  0  0  0  0  0
   16.7292   42.1843  -10.2698 H   0  0  0  0  0  0
   19.1474   42.2261   -6.7336 H   0  0  0  0  0  0
   18.1148   45.9494   -8.6559 H   0  0  0  0  0  0
   21.1238   43.8125   -7.0940 H   0  0  0  0  0  0
   23.6802   44.1188   -6.2155 H   0  0  0  0  0  0
   23.5448   43.9869   -4.4916 H   0  0  0  0  0  0
   22.8973   42.3991   -7.7227 H   0  0  0  0  0  0
   22.3615   38.7638   -8.3641 H   0  0  0  0  0  0
   23.1267   40.2122   -8.9461 H   0  0  0  0  0  0
   20.7477   41.2647   -9.0975 H   0  0  0  0  0  0
   21.2284   40.1187  -10.3053 H   0  0  0  0  0  0
   19.9279   38.3602   -9.4779 H   0  0  0  0  0  0
   19.6932   39.0689   -7.9098 H   0  0  0  0  0  0
   18.5316   40.4420  -10.3792 H   0  0  0  0  0  0
   17.7223   39.0926   -9.6249 H   0  0  0  0  0  0
   21.6032   38.6575   -6.0098 H   0  0  0  0  0  0
   21.5815   39.6992   -3.7605 H   0  0  0  0  0  0
   22.1921   42.0863   -3.4768 H   0  0  0  0  0  0
   22.8928   47.4985   -7.0856 H   0  0  0  0  0  0
   24.3367   47.3047   -5.4707 H   0  0  0  0  0  0
   24.2292   45.7337   -4.7004 H   0  0  0  0  0  0
   23.7104   46.6698   -2.7909 H   0  0  0  0  0  0
   21.7497   49.4135   -3.4807 H   0  0  0  0  0  0
   22.8928   50.5605   -2.6027 H   0  0  0  0  0  0
   24.5154   50.4147   -4.5248 H   0  0  0  0  0  0
   23.3722   49.2677   -5.4028 H   0  0  0  0  0  0
   26.5304   48.2216   -3.7240 H   0  0  0  0  0  0
   27.7650   49.3918    0.2749 H   0  0  0  0  0  0
   25.3737   49.8248    0.7650 H   0  0  0  0  0  0
   30.2848   48.9685   -3.7308 H   0  0  0  0  0  0
   29.0592   50.1992   -3.4704 H   0  0  0  0  0  0
   28.6515   48.7040   -4.2986 H   0  0  0  0  0  0
   30.8943   48.8593   -1.3270 H   0  0  0  0  0  0
   29.6954   48.6352   -0.0741 H   0  0  0  0  0  0
   29.7674   50.1504   -0.9788 H   0  0  0  0  0  0
   30.1759   46.7355   -2.3957 H   0  0  0  0  0  0
   28.5427   46.4778   -2.9673 H   0  0  0  0  0  0
   28.8776   46.4732   -1.2424 H   0  0  0  0  0  0
  1  2  1  0  0  0
  1 47  1  0  0  0
  1 48  1  0  0  0
  1 49  1  0  0  0
  2  3  2  0  0  0
  2  4  1  0  0  0
  4  5  1  0  0  0
  4 50  1  0  0  0
  4 51  1  0  0  0
  5  6  1  0  0  0
  6 11  1  0  0  0
  6  7  2  0  0  0
  7  8  1  0  0  0
  7 52  1  0  0  0
  8 24  1  0  0  0
  8  9  2  0  0  0
  9 10  1  0  0  0
  9 53  1  0  0  0
 10 11  2  0  0  0
 10 12  1  0  0  0
 11 54  1  0  0  0
 12 13  2  0  0  0
 12 14  1  0  0  0
 14 15  1  0  0  0
 14 55  1  0  0  0
 15 45  1  0  0  0
 15 16  1  0  0  0
 15 28  1  0  0  0
 16 17  1  0  0  0
 16 56  1  0  0  0
 16 57  1  0  0  0
 17 27  1  0  0  0
 17 18  2  0  0  0
 18 19  1  0  0  0
 18 58  1  0  0  0
 19 20  1  0  0  0
 19 25  2  0  0  0
 20 21  1  0  0  0
 20 59  1  0  0  0
 20 60  1  0  0  0
 21 22  1  0  0  0
 21 61  1  0  0  0
 21 62  1  0  0  0
 22 23  1  0  0  0
 22 63  1  0  0  0
 22 64  1  0  0  0
 23 24  1  0  0  0
 23 65  1  0  0  0
 23 66  1  0  0  0
 25 26  1  0  0  0
 25 67  1  0  0  0
 26 27  2  0  0  0
 26 68  1  0  0  0
 27 69  1  0  0  0
 28 46  1  0  0  0
 28 29  1  0  0  0
 28 30  1  0  0  0
 29 70  1  0  0  0
 30 31  1  0  0  0
 30 71  1  0  0  0
 30 72  1  0  0  0
 31 32  1  0  0  0
 31 73  1  0  0  0
 32 34  1  0  0  0
 32 33  1  0  0  0
 32 35  1  0  0  0
 33 34  1  0  0  0
 33 74  1  0  0  0
 33 75  1  0  0  0
 34 76  1  0  0  0
 34 77  1  0  0  0
 35 40  1  0  0  0
 35 36  2  0  0  0
 36 37  1  0  0  0
 36 78  1  0  0  0
 37 38  2  0  0  0
 37 41  1  0  0  0
 38 39  1  0  0  0
 38 79  1  0  0  0
 39 40  2  0  0  0
 39 80  1  0  0  0
 41 42  1  0  0  0
 41 43  1  0  0  0
 41 44  1  0  0  0
 42 81  1  0  0  0
 42 82  1  0  0  0
 42 83  1  0  0  0
 43 84  1  0  0  0
 43 85  1  0  0  0
 43 86  1  0  0  0
 44 87  1  0  0  0
 44 88  1  0  0  0
 44 89  1  0  0  0
M  END
> <s_m_source_file>
BACE_133.smi

> <i_m_source_file_index>
1

> <i_lp_mmshare_version>
42013

> <i_f3d_flags>
0

> <s_epik_input>
W0NIM11DKD1PKVtDSDJdT2MoW2NIXWMxMilbY0hdYyhbY0hdMSlDKD1PKVtOSF1bQ0BASF0oW0NIMl1jM1tjSF1jKFtjSF1bY0hdW2NIXTMpW0NIMl1bQ0gyXVtDSDJdW0NIMl1PMilbQ0BIXShbT0hdKVtDSDJdW05IXUM0KFtDSDJdW0NIMl00KWM1W2NIXWMoW2NIXVtjSF1uNSlDKFtDSDNdKShbQ0gzXSlbQ0gzXQ==

> <s_epik_cmdline>
J2VwaWtfcHl0aG9uJywgJy1waCcsICc3LjAnLCAnLXRuJywgJzgnLCAnLW1hJywgJzIwMCcsICctaW1hZScsICc8aW5maWxlLm1hZT4nLCAnLW9tYWUnLCAnPG91dGZpbGUubWFlPic=

> <r_lp_tautomer_probability>
1

> <r_epik_Ionization_Penalty>
  0.1929

> <r_epik_Ionization_Penalty_Charging>
  0.0000

> <r_epik_Ionization_Penalty_Neutral>
  0.1929

> <r_epik_State_Penalty>
  0.0787

> <r_epik_Charging_Adjusted_Penalty>
0.0786867

> <i_epik_Tot_Q>
0

> <i_epik_Tot_abs_Q>
0

> <s_lp_Force_Field>
OPLS_2005

> <r_lp_Energy>
53.9554

> <b_lp_Chiralities_Consistent>
1

> <s_lp_Variant>
BACE_133.smi:1-1

> <chiral flag>
1

> <version>
0

> <s_i_glide_gridfile>
second_dock_grid_2

> <i_i_glide_lignum>
272

> <i_i_glide_rotatable_bonds>
10

> <r_i_docking_score>
-6.41297

> <r_i_glide_ligand_efficiency>
-0.145749

> <r_i_glide_ligand_efficiency_sa>
-0.514545

> <r_i_glide_ligand_efficiency_ln>
-1.34045

> <r_glide_XP_GScore>
-6.49167

> <r_i_glide_gscore>
-6.49167

> <r_i_glide_evdw>
-43.3722

> <r_i_glide_ecoul>
-8.78428

> <r_i_glide_energy>
-52.1564

> <r_i_glide_einternal>
10.6849

> <r_i_glide_emodel>
-78.7553

> <r_glide_XP_HBond>
-1.21673

> <i_i_glide_confnum>
1

> <i_i_glide_posenum>
4

> <r_i_glide_eff_state_penalty>
0.0787

> <i_glide_XP_PoseRank>
1

$$$$
BACE_133.smi:1
                    3D
 Structure written by MMmdl.
 90 94  0  0  1  0            999 V2000
   17.2596   47.8931   -7.6404 C   0  0  0  0  0  0
   18.7122   48.1701   -8.0093 C   0  0  0  0  0  0
   19.4748   48.7190   -7.2148 O   0  0  0  0  0  0
   19.1662   47.7350   -9.4028 C   0  0  0  0  0  0
   18.2985   46.7219   -9.8964 O   0  0  0  0  0  0
   18.2844   45.5013   -9.2534 C   0  0  0  0  0  0
   17.5471   44.3692   -9.7031 C   0  0  0  0  0  0
   17.5749   43.1527   -8.9880 C   0  0  0  0  0  0
   18.3404   43.1038   -7.7980 C   0  0  0  0  0  0
   19.1272   44.1829   -7.3668 C   0  0  0  0  0  0
   19.0751   45.3945   -8.0853 C   0  0  0  0  0  0
   19.9733   43.9974   -6.1394 C   0  0  0  0  0  0
   20.0005   44.8401   -5.2422 O   0  0  0  0  0  0
   20.6371   42.8208   -6.1218 N   0  0  0  0  0  0
   21.1608   42.0855   -4.9654 C   0  0  1  0  0  0
   20.7298   40.5762   -5.0367 C   0  0  0  0  0  0
   20.6077   39.8973   -6.4144 C   0  0  0  0  0  0
   19.4557   39.1322   -6.7435 C   0  0  0  0  0  0
   19.3405   38.4854   -8.0021 C   0  0  0  0  0  0
   18.1156   37.6447   -8.3793 C   0  0  0  0  0  0
   16.7285   38.3424   -8.4319 C   0  0  0  0  0  0
   16.5470   39.5457   -9.3952 C   0  0  0  0  0  0
   17.1029   40.8311   -8.7806 C   0  0  0  0  0  0
   16.8794   42.0558   -9.4803 O   0  0  0  0  0  0
   20.4041   38.5899   -8.9241 C   0  0  0  0  0  0
   21.5588   39.3234   -8.6002 C   0  0  0  0  0  0
   21.6621   39.9668   -7.3537 C   0  0  0  0  0  0
   22.6934   42.2800   -4.7252 C   0  0  2  0  0  0
   22.8559   42.7231   -3.3893 O   0  0  0  0  0  0
   23.3948   43.3325   -5.6161 C   0  0  0  0  0  0
   23.4146   42.9093   -7.0211 N   0  0  0  0  0  0
   23.9574   43.8189   -8.0419 C   0  0  0  0  0  0
   24.1858   45.2580   -7.6458 C   0  0  0  0  0  0
   23.0461   44.9010   -8.5699 C   0  0  0  0  0  0
   24.9439   43.1908   -9.0159 C   0  0  0  0  0  0
   26.2071   43.7498   -9.3181 C   0  0  0  0  0  0
   27.0855   43.0969  -10.2256 C   0  0  0  0  0  0
   26.6411   41.8763  -10.7959 C   0  0  0  0  0  0
   25.3775   41.3553  -10.4557 C   0  0  0  0  0  0
   24.5874   42.0200   -9.5888 N   0  3  0  0  0  0
   28.4759   43.6617  -10.5981 C   0  0  0  0  0  0
   29.1994   42.6833  -11.5521 C   0  0  0  0  0  0
   28.3140   45.0308  -11.2983 C   0  0  0  0  0  0
   29.3964   43.8764   -9.3710 C   0  0  0  0  0  0
   20.6686   42.4967   -4.0812 H   0  0  0  0  0  0
   23.2120   41.3296   -4.8344 H   0  0  0  0  0  0
   16.5888   48.4043   -8.3309 H   0  0  0  0  0  0
   17.0464   48.2430   -6.6300 H   0  0  0  0  0  0
   17.0544   46.8234   -7.6852 H   0  0  0  0  0  0
   20.1890   47.3618   -9.3386 H   0  0  0  0  0  0
   19.1533   48.6025  -10.0638 H   0  0  0  0  0  0
   16.9531   44.4049  -10.6038 H   0  0  0  0  0  0
   18.3634   42.2194   -7.1824 H   0  0  0  0  0  0
   19.6536   46.2461   -7.7561 H   0  0  0  0  0  0
   20.5751   42.2733   -6.9682 H   0  0  0  0  0  0
   21.3772   39.9568   -4.4156 H   0  0  0  0  0  0
   19.7490   40.5049   -4.5645 H   0  0  0  0  0  0
   18.6513   39.0402   -6.0282 H   0  0  0  0  0  0
   18.2953   37.1721   -9.3457 H   0  0  0  0  0  0
   18.0606   36.8206   -7.6670 H   0  0  0  0  0  0
   16.0059   37.5805   -8.7266 H   0  0  0  0  0  0
   16.4287   38.6302   -7.4236 H   0  0  0  0  0  0
   15.4821   39.6877   -9.5822 H   0  0  0  0  0  0
   17.0065   39.3440  -10.3634 H   0  0  0  0  0  0
   16.6904   40.9286   -7.7746 H   0  0  0  0  0  0
   18.1780   40.6909   -8.7182 H   0  0  0  0  0  0
   20.3470   38.1007   -9.8856 H   0  0  0  0  0  0
   22.3708   39.3899   -9.3094 H   0  0  0  0  0  0
   22.5656   40.5120   -7.1364 H   0  0  0  0  0  0
   23.4519   43.4564   -3.3871 H   0  0  0  0  0  0
   24.4012   43.5285   -5.2447 H   0  0  0  0  0  0
   22.8458   44.2710   -5.5619 H   0  0  0  0  0  0
   22.5203   42.5270   -7.3113 H   0  0  0  0  0  0
   23.9363   45.5462   -6.6246 H   0  0  0  0  0  0
   25.0450   45.7704   -8.0786 H   0  0  0  0  0  0
   23.1434   45.1747   -9.6205 H   0  0  0  0  0  0
   22.0347   44.9505   -8.1666 H   0  0  0  0  0  0
   26.4738   44.6778   -8.8372 H   0  0  0  0  0  0
   27.2573   41.3272  -11.4920 H   0  0  0  0  0  0
   24.9779   40.4316  -10.8479 H   0  0  0  0  0  0
   30.1954   43.0429  -11.8140 H   0  0  0  0  0  0
   28.6621   42.5415  -12.4899 H   0  0  0  0  0  0
   29.3209   41.7003  -11.0951 H   0  0  0  0  0  0
   29.2810   45.4674  -11.5516 H   0  0  0  0  0  0
   27.7950   45.7452  -10.6577 H   0  0  0  0  0  0
   27.7504   44.9593  -12.2286 H   0  0  0  0  0  0
   30.3672   44.2759   -9.6676 H   0  0  0  0  0  0
   29.5939   42.9441   -8.8400 H   0  0  0  0  0  0
   28.9719   44.5878   -8.6611 H   0  0  0  0  0  0
   23.6779   41.6216   -9.3558 H   0  0  0  0  0  0
  1  2  1  0  0  0
  1 47  1  0  0  0
  1 48  1  0  0  0
  1 49  1  0  0  0
  2  3  2  0  0  0
  2  4  1  0  0  0
  4  5  1  0  0  0
  4 50  1  0  0  0
  4 51  1  0  0  0
  5  6  1  0  0  0
  6 11  1  0  0  0
  6  7  2  0  0  0
  7  8  1  0  0  0
  7 52  1  0  0  0
  8 24  1  0  0  0
  8  9  2  0  0  0
  9 10  1  0  0  0
  9 53  1  0  0  0
 10 11  2  0  0  0
 10 12  1  0  0  0
 11 54  1  0  0  0
 12 13  2  0  0  0
 12 14  1  0  0  0
 14 15  1  0  0  0
 14 55  1  0  0  0
 15 45  1  0  0  0
 15 16  1  0  0  0
 15 28  1  0  0  0
 16 17  1  0  0  0
 16 56  1  0  0  0
 16 57  1  0  0  0
 17 27  1  0  0  0
 17 18  2  0  0  0
 18 19  1  0  0  0
 18 58  1  0  0  0
 19 20  1  0  0  0
 19 25  2  0  0  0
 20 21  1  0  0  0
 20 59  1  0  0  0
 20 60  1  0  0  0
 21 22  1  0  0  0
 21 61  1  0  0  0
 21 62  1  0  0  0
 22 23  1  0  0  0
 22 63  1  0  0  0
 22 64  1  0  0  0
 23 24  1  0  0  0
 23 65  1  0  0  0
 23 66  1  0  0  0
 25 26  1  0  0  0
 25 67  1  0  0  0
 26 27  2  0  0  0
 26 68  1  0  0  0
 27 69  1  0  0  0
 28 46  1  0  0  0
 28 29  1  0  0  0
 28 30  1  0  0  0
 29 70  1  0  0  0
 30 31  1  0  0  0
 30 71  1  0  0  0
 30 72  1  0  0  0
 31 32  1  0  0  0
 31 73  1  0  0  0
 32 34  1  0  0  0
 32 33  1  0  0  0
 32 35  1  0  0  0
 33 34  1  0  0  0
 33 74  1  0  0  0
 33 75  1  0  0  0
 34 76  1  0  0  0
 34 77  1  0  0  0
 35 40  1  0  0  0
 35 36  2  0  0  0
 36 37  1  0  0  0
 36 78  1  0  0  0
 37 38  2  0  0  0
 37 41  1  0  0  0
 38 39  1  0  0  0
 38 79  1  0  0  0
 39 40  2  0  0  0
 39 80  1  0  0  0
 40 90  1  0  0  0
 41 42  1  0  0  0
 41 43  1  0  0  0
 41 44  1  0  0  0
 42 81  1  0  0  0
 42 82  1  0  0  0
 42 83  1  0  0  0
 43 84  1  0  0  0
 43 85  1  0  0  0
 43 86  1  0  0  0
 44 87  1  0  0  0
 44 88  1  0  0  0
 44 89  1  0  0  0
M  CHG  1  40   1
M  END
> <s_m_source_file>
BACE_133.smi

> <i_m_source_file_index>
1

> <i_lp_mmshare_version>
42013

> <i_f3d_flags>
0

> <s_epik_input>
W0NIM11DKD1PKVtDSDJdT2MoW2NIXWMxMilbY0hdYyhbY0hdMSlDKD1PKVtOSF1bQ0BASF0oW0NIMl1jM1tjSF1jKFtjSF1bY0hdW2NIXTMpW0NIMl1bQ0gyXVtDSDJdW0NIMl1PMilbQ0BIXShbT0hdKVtDSDJdW05IXUM0KFtDSDJdW0NIMl00KWM1W2NIXWMoW2NIXVtjSF1uNSlDKFtDSDNdKShbQ0gzXSlbQ0gzXQ==

> <s_epik_cmdline>
J2VwaWtfcHl0aG9uJywgJy1waCcsICc3LjAnLCAnLXRuJywgJzgnLCAnLW1hJywgJzIwMCcsICctaW1hZScsICc8aW5maWxlLm1hZT4nLCAnLW9tYWUnLCAnPG91dGZpbGUubWFlPic=

> <r_epik_Ionization_Penalty>
  2.3782

> <r_epik_Ionization_Penalty_Charging>
  2.3782

> <r_epik_Ionization_Penalty_Neutral>
  0.0000

> <r_epik_State_Penalty>
  1.5138

> <r_epik_Charging_Adjusted_Penalty>
3.89199

> <i_epik_Tot_Q>
1

> <i_epik_Tot_abs_Q>
1

> <s_lp_Force_Field>
OPLS_2005

> <r_lp_Energy>
58.8467

> <b_lp_Chiralities_Consistent>
1

> <s_lp_Variant>
BACE_133.smi:1-2

> <chiral flag>
1

> <version>
0

> <s_i_glide_gridfile>
second_dock_grid_2

> <i_i_glide_lignum>
273

> <i_i_glide_rotatable_bonds>
10

> <r_i_docking_score>
-2.66189

> <r_i_glide_ligand_efficiency>
-0.0604975

> <r_i_glide_ligand_efficiency_sa>
-0.213577

> <r_i_glide_ligand_efficiency_ln>
-0.556393

> <r_glide_XP_GScore>
-4.17569

> <r_i_glide_gscore>
-4.17569

> <r_i_glide_evdw>
-41.5323

> <r_i_glide_ecoul>
-9.65874

> <r_i_glide_energy>
-51.191

> <r_i_glide_einternal>
10.305

> <r_i_glide_emodel>
-69.2018

> <r_glide_XP_HBond>
-1.49309

> <i_i_glide_confnum>
1

> <i_i_glide_posenum>
10

> <r_i_glide_eff_state_penalty>
1.5138

> <i_glide_XP_PoseRank>
1

$$$$
BACE_133.smi:1
                    3D
 Structure written by MMmdl.
 90 94  0  0  1  0            999 V2000
   19.0842   48.9029   -6.7016 C   0  0  0  0  0  0
   17.8976   49.2049   -7.6091 C   0  0  0  0  0  0
   17.3666   50.3149   -7.6106 O   0  0  0  0  0  0
   17.4076   48.0687   -8.5070 C   0  0  0  0  0  0
   18.0030   46.8430   -8.0992 O   0  0  0  0  0  0
   17.9088   45.7571   -8.9450 C   0  0  0  0  0  0
   16.8940   45.5898   -9.9219 C   0  0  0  0  0  0
   16.8793   44.4455  -10.7458 C   0  0  0  0  0  0
   17.9053   43.4866  -10.6278 C   0  0  0  0  0  0
   18.8776   43.5906   -9.6077 C   0  0  0  0  0  0
   18.8816   44.7457   -8.7917 C   0  0  0  0  0  0
   19.8729   42.4836   -9.3677 C   0  0  0  0  0  0
   20.9386   42.7056   -8.7913 O   0  0  0  0  0  0
   19.4646   41.2523   -9.7383 N   0  0  0  0  0  0
   20.0998   39.9650   -9.4237 C   0  0  1  0  0  0
   19.0429   38.8234   -9.4790 C   0  0  0  0  0  0
   17.6870   39.1262   -8.8439 C   0  0  0  0  0  0
   16.5449   39.3178   -9.6553 C   0  0  0  0  0  0
   15.2877   39.6105   -9.0781 C   0  0  0  0  0  0
   14.0684   39.8600   -9.9623 C   0  0  0  0  0  0
   13.7661   41.3550  -10.2179 C   0  0  0  0  0  0
   14.8866   42.0890  -10.9766 C   0  0  0  0  0  0
   14.6994   43.6161  -11.0959 C   0  0  0  0  0  0
   15.8598   44.2462  -11.6467 O   0  0  0  0  0  0
   15.1725   39.6778   -7.6730 C   0  0  0  0  0  0
   16.3020   39.4658   -6.8579 C   0  0  0  0  0  0
   17.5556   39.1928   -7.4401 C   0  0  0  0  0  0
   21.3136   39.6247  -10.3456 C   0  0  2  0  0  0
   22.0566   38.5647   -9.7737 O   0  0  0  0  0  0
   22.2565   40.7966  -10.7058 C   0  0  0  0  0  0
   23.5355   40.7042   -9.9651 N   0  3  0  0  0  0
   24.1729   41.9831   -9.6158 C   0  0  0  0  0  0
   25.6442   42.1369   -9.9187 C   0  0  0  0  0  0
   24.6212   42.8738  -10.7498 C   0  0  0  0  0  0
   23.6377   42.6563   -8.3601 C   0  0  0  0  0  0
   23.0382   41.9100   -7.3197 C   0  0  0  0  0  0
   22.5561   42.5786   -6.1639 C   0  0  0  0  0  0
   22.7131   43.9862   -6.1278 C   0  0  0  0  0  0
   23.3266   44.6422   -7.2130 C   0  0  0  0  0  0
   23.7823   43.9992   -8.3070 N   0  0  0  0  0  0
   21.8873   41.8404   -4.9821 C   0  0  0  0  0  0
   20.7046   40.9894   -5.4993 C   0  0  0  0  0  0
   22.9175   40.9163   -4.2928 C   0  0  0  0  0  0
   21.3302   42.8004   -3.9020 C   0  0  0  0  0  0
   20.4380   40.0094   -8.3862 H   0  0  0  0  0  0
   20.9196   39.2125  -11.2759 H   0  0  0  0  0  0
   18.8428   48.0865   -6.0207 H   0  0  0  0  0  0
   19.3477   49.7794   -6.1092 H   0  0  0  0  0  0
   19.9518   48.6145   -7.2952 H   0  0  0  0  0  0
   17.6742   48.2964   -9.5398 H   0  0  0  0  0  0
   16.3212   48.0065   -8.4340 H   0  0  0  0  0  0
   16.1071   46.3174  -10.0520 H   0  0  0  0  0  0
   17.8888   42.6336  -11.2908 H   0  0  0  0  0  0
   19.6253   44.8623   -8.0162 H   0  0  0  0  0  0
   18.5703   41.1927  -10.2038 H   0  0  0  0  0  0
   18.8685   38.5432  -10.5187 H   0  0  0  0  0  0
   19.4467   37.9287   -9.0028 H   0  0  0  0  0  0
   16.6361   39.2607  -10.7305 H   0  0  0  0  0  0
   14.1999   39.3423  -10.9134 H   0  0  0  0  0  0
   13.2016   39.3943   -9.4917 H   0  0  0  0  0  0
   12.8379   41.4403  -10.7841 H   0  0  0  0  0  0
   13.5839   41.8498   -9.2631 H   0  0  0  0  0  0
   15.0073   41.6576  -11.9712 H   0  0  0  0  0  0
   15.8125   41.8958  -10.4464 H   0  0  0  0  0  0
   14.4527   44.0509  -10.1255 H   0  0  0  0  0  0
   13.8533   43.8307  -11.7493 H   0  0  0  0  0  0
   14.2190   39.8957   -7.2144 H   0  0  0  0  0  0
   16.2076   39.5177   -5.7832 H   0  0  0  0  0  0
   18.4149   39.0355   -6.8045 H   0  0  0  0  0  0
   22.9318   38.5861  -10.1293 H   0  0  0  0  0  0
   21.7821   41.7558  -10.4947 H   0  0  0  0  0  0
   22.4773   40.7716  -11.7730 H   0  0  0  0  0  0
   24.1860   40.1619  -10.5154 H   0  0  0  0  0  0
   26.2446   42.7219   -9.2220 H   0  0  0  0  0  0
   26.1556   41.2921  -10.3801 H   0  0  0  0  0  0
   24.4486   42.5216  -11.7668 H   0  0  0  0  0  0
   24.5376   43.9514  -10.6087 H   0  0  0  0  0  0
   22.9650   40.8399   -7.4354 H   0  0  0  0  0  0
   22.3737   44.5702   -5.2853 H   0  0  0  0  0  0
   23.4549   45.7145   -7.2004 H   0  0  0  0  0  0
   20.1959   40.4738   -4.6836 H   0  0  0  0  0  0
   21.0215   40.2214   -6.2051 H   0  0  0  0  0  0
   19.9612   41.6080   -6.0039 H   0  0  0  0  0  0
   22.4812   40.3983   -3.4376 H   0  0  0  0  0  0
   23.7746   41.4821   -3.9248 H   0  0  0  0  0  0
   23.3000   40.1461   -4.9628 H   0  0  0  0  0  0
   20.8657   42.2500   -3.0826 H   0  0  0  0  0  0
   20.5642   43.4658   -4.3026 H   0  0  0  0  0  0
   22.1145   43.4151   -3.4579 H   0  0  0  0  0  0
   23.3561   40.2069   -9.1046 H   0  0  0  0  0  0
  1  2  1  0  0  0
  1 47  1  0  0  0
  1 48  1  0  0  0
  1 49  1  0  0  0
  2  3  2  0  0  0
  2  4  1  0  0  0
  4  5  1  0  0  0
  4 50  1  0  0  0
  4 51  1  0  0  0
  5  6  1  0  0  0
  6 11  1  0  0  0
  6  7  2  0  0  0
  7  8  1  0  0  0
  7 52  1  0  0  0
  8 24  1  0  0  0
  8  9  2  0  0  0
  9 10  1  0  0  0
  9 53  1  0  0  0
 10 11  2  0  0  0
 10 12  1  0  0  0
 11 54  1  0  0  0
 12 13  2  0  0  0
 12 14  1  0  0  0
 14 15  1  0  0  0
 14 55  1  0  0  0
 15 45  1  0  0  0
 15 16  1  0  0  0
 15 28  1  0  0  0
 16 17  1  0  0  0
 16 56  1  0  0  0
 16 57  1  0  0  0
 17 27  1  0  0  0
 17 18  2  0  0  0
 18 19  1  0  0  0
 18 58  1  0  0  0
 19 20  1  0  0  0
 19 25  2  0  0  0
 20 21  1  0  0  0
 20 59  1  0  0  0
 20 60  1  0  0  0
 21 22  1  0  0  0
 21 61  1  0  0  0
 21 62  1  0  0  0
 22 23  1  0  0  0
 22 63  1  0  0  0
 22 64  1  0  0  0
 23 24  1  0  0  0
 23 65  1  0  0  0
 23 66  1  0  0  0
 25 26  1  0  0  0
 25 67  1  0  0  0
 26 27  2  0  0  0
 26 68  1  0  0  0
 27 69  1  0  0  0
 28 46  1  0  0  0
 28 29  1  0  0  0
 28 30  1  0  0  0
 29 70  1  0  0  0
 30 31  1  0  0  0
 30 71  1  0  0  0
 30 72  1  0  0  0
 31 32  1  0  0  0
 31 73  1  0  0  0
 31 90  1  0  0  0
 32 34  1  0  0  0
 32 33  1  0  0  0
 32 35  1  0  0  0
 33 34  1  0  0  0
 33 74  1  0  0  0
 33 75  1  0  0  0
 34 76  1  0  0  0
 34 77  1  0  0  0
 35 40  1  0  0  0
 35 36  2  0  0  0
 36 37  1  0  0  0
 36 78  1  0  0  0
 37 38  2  0  0  0
 37 41  1  0  0  0
 38 39  1  0  0  0
 38 79  1  0  0  0
 39 40  2  0  0  0
 39 80  1  0  0  0
 41 42  1  0  0  0
 41 43  1  0  0  0
 41 44  1  0  0  0
 42 81  1  0  0  0
 42 82  1  0  0  0
 42 83  1  0  0  0
 43 84  1  0  0  0
 43 85  1  0  0  0
 43 86  1  0  0  0
 44 87  1  0  0  0
 44 88  1  0  0  0
 44 89  1  0  0  0
M  CHG  1  31   1
M  END
> <s_m_source_file>
BACE_133.smi

> <i_m_source_file_index>
1

> <i_lp_mmshare_version>
42013

> <i_f3d_flags>
0

> <s_epik_input>
W0NIM11DKD1PKVtDSDJdT2MoW2NIXWMxMilbY0hdYyhbY0hdMSlDKD1PKVtOSF1bQ0BASF0oW0NIMl1jM1tjSF1jKFtjSF1bY0hdW2NIXTMpW0NIMl1bQ0gyXVtDSDJdW0NIMl1PMilbQ0BIXShbT0hdKVtDSDJdW05IXUM0KFtDSDJdW0NIMl00KWM1W2NIXWMoW2NIXVtjSF1uNSlDKFtDSDNdKShbQ0gzXSlbQ0gzXQ==

> <s_epik_cmdline>
J2VwaWtfcHl0aG9uJywgJy1waCcsICc3LjAnLCAnLXRuJywgJzgnLCAnLW1hJywgJzIwMCcsICctaW1hZScsICc8aW5maWxlLm1hZT4nLCAnLW9tYWUnLCAnPG91dGZpbGUubWFlPic=

> <r_lp_tautomer_probability>
1

> <r_epik_Ionization_Penalty>
  0.7890

> <r_epik_Ionization_Penalty_Charging>
  0.7876

> <r_epik_Ionization_Penalty_Neutral>
  0.0014

> <r_epik_State_Penalty>
  1.8158

> <r_epik_Charging_Adjusted_Penalty>
2.60347

> <i_epik_Tot_Q>
1

> <i_epik_Tot_abs_Q>
1

> <s_lp_Force_Field>
OPLS_2005

> <r_lp_Energy>
41.1075

> <b_lp_Chiralities_Consistent>
1

> <s_lp_Variant>
BACE_133.smi:1-3

> <chiral flag>
1

> <version>
0

> <s_i_glide_gridfile>
second_dock_grid_2

> <i_i_glide_lignum>
274

> <i_i_glide_rotatable_bonds>
10

> <r_i_docking_score>
-4.20418

> <r_i_glide_ligand_efficiency>
-0.0955495

> <r_i_glide_ligand_efficiency_sa>
-0.337323

> <r_i_glide_ligand_efficiency_ln>
-0.878764

> <r_glide_XP_GScore>
-6.01998

> <r_i_glide_gscore>
-6.01998

> <r_i_glide_evdw>
-39.8

> <r_i_glide_ecoul>
-13.2244

> <r_i_glide_energy>
-53.0245

> <r_i_glide_einternal>
7.61774

> <r_i_glide_emodel>
-81.5001

> <r_glide_XP_HBond>
-1.41558

> <i_i_glide_confnum>
1

> <i_i_glide_posenum>
1

> <r_i_glide_eff_state_penalty>
1.8158

> <i_glide_XP_PoseRank>
1

$$$$
BACE_134.smi:1
                    3D
 Structure written by MMmdl.
 81 84  0  0  1  0            999 V2000
   15.3540   47.6029  -13.3167 C   0  0  0  0  0  0
   15.2854   46.8377  -12.1254 O   0  0  0  0  0  0
   16.3992   46.6337  -11.3936 C   0  0  0  0  0  0
   17.1438   47.5419  -11.0184 O   0  0  0  0  0  0
   16.6368   45.1944  -11.0808 C   0  0  0  0  0  0
   15.6312   44.2145  -11.2576 C   0  0  0  0  0  0
   15.8674   42.8593  -10.9524 C   0  0  0  0  0  0
   17.1411   42.4815  -10.4643 C   0  0  0  0  0  0
   18.1626   43.4418  -10.2878 C   0  0  0  0  0  0
   17.8996   44.7943  -10.5906 C   0  0  0  0  0  0
   19.5016   43.0426   -9.7378 C   0  0  0  0  0  0
   20.1751   43.8246   -9.0663 O   0  0  0  0  0  0
   19.9080   41.8069  -10.0675 N   0  0  0  0  0  0
   21.1139   41.1413   -9.5812 C   0  0  1  0  0  0
   20.8870   39.6139   -9.4927 C   0  0  0  0  0  0
   19.6418   39.2394   -8.7035 C   0  0  0  0  0  0
   18.4686   38.8245   -9.3699 C   0  0  0  0  0  0
   17.3147   38.4759   -8.6353 C   0  0  0  0  0  0
   16.0639   37.9975   -9.3572 C   0  0  0  0  0  0
   14.7889   38.8040   -9.0377 C   0  0  0  0  0  0
   14.8588   40.3060   -9.3685 C   0  0  0  0  0  0
   14.9877   40.5988  -10.8755 C   0  0  0  0  0  0
   14.8193   41.9854  -11.1571 O   0  0  0  0  0  0
   17.3422   38.5433   -7.2260 C   0  0  0  0  0  0
   18.5081   38.9646   -6.5587 C   0  0  0  0  0  0
   19.6562   39.3113   -7.2954 C   0  0  0  0  0  0
   22.3554   41.5734  -10.4010 C   0  0  2  0  0  0
   22.0560   41.5574  -11.7837 O   0  0  0  0  0  0
   23.5641   40.6531  -10.1575 C   0  0  0  0  0  0
   24.8394   41.3455  -10.4410 N   0  3  0  0  0  0
   24.9842   42.6720   -9.8035 C   0  0  0  0  0  0
   26.4148   43.1788   -9.8512 C   0  0  0  0  0  0
   27.2911   42.7312  -10.8624 C   0  0  0  0  0  0
   28.6306   43.1756  -10.8998 C   0  0  0  0  0  0
   29.0839   44.0876   -9.9226 C   0  0  0  0  0  0
   28.2095   44.5451   -8.9181 C   0  0  0  0  0  0
   26.8776   44.0904   -8.8803 C   0  0  0  0  0  0
   29.5835   42.6724  -11.9765 C   0  0  0  0  0  0
   30.6940   41.7905  -11.3844 C   0  0  0  0  0  0
   30.1601   43.8306  -12.8072 C   0  0  0  0  0  0
   21.2680   41.4880   -8.5572 H   0  0  0  0  0  0
   22.6316   42.5914  -10.1214 H   0  0  0  0  0  0
   14.3645   47.6763  -13.7675 H   0  0  0  0  0  0
   16.0242   47.1367  -14.0399 H   0  0  0  0  0  0
   15.7093   48.6134  -13.1104 H   0  0  0  0  0  0
   14.6543   44.4857  -11.6305 H   0  0  0  0  0  0
   17.3466   41.4536  -10.2111 H   0  0  0  0  0  0
   18.6784   45.5298  -10.4441 H   0  0  0  0  0  0
   19.2917   41.2546  -10.6463 H   0  0  0  0  0  0
   20.8091   39.1823  -10.4912 H   0  0  0  0  0  0
   21.7443   39.1318   -9.0221 H   0  0  0  0  0  0
   18.4554   38.7703  -10.4489 H   0  0  0  0  0  0
   16.2396   37.9980  -10.4333 H   0  0  0  0  0  0
   15.9030   36.9539   -9.0853 H   0  0  0  0  0  0
   13.9487   38.3611   -9.5734 H   0  0  0  0  0  0
   14.5502   38.6923   -7.9798 H   0  0  0  0  0  0
   13.9444   40.7763   -9.0054 H   0  0  0  0  0  0
   15.6691   40.7717   -8.8088 H   0  0  0  0  0  0
   15.9169   40.2127  -11.2953 H   0  0  0  0  0  0
   14.1911   40.0755  -11.4046 H   0  0  0  0  0  0
   16.4706   38.2691   -6.6503 H   0  0  0  0  0  0
   18.5231   39.0171   -5.4801 H   0  0  0  0  0  0
   20.5481   39.6316   -6.7769 H   0  0  0  0  0  0
   22.8373   41.3123  -12.2566 H   0  0  0  0  0  0
   23.5666   40.3360   -9.1145 H   0  0  0  0  0  0
   23.4930   39.7508  -10.7665 H   0  0  0  0  0  0
   25.5882   40.7552  -10.1071 H   0  0  0  0  0  0
   24.3136   43.3877  -10.2810 H   0  0  0  0  0  0
   24.6674   42.5939   -8.7630 H   0  0  0  0  0  0
   26.9359   42.0313  -11.6048 H   0  0  0  0  0  0
   30.1052   44.4395   -9.9367 H   0  0  0  0  0  0
   28.5629   45.2431   -8.1732 H   0  0  0  0  0  0
   26.2150   44.4415   -8.1027 H   0  0  0  0  0  0
   29.0088   42.0454  -12.6596 H   0  0  0  0  0  0
   30.2730   40.9422  -10.8437 H   0  0  0  0  0  0
   31.3262   42.3468  -10.6919 H   0  0  0  0  0  0
   31.3373   41.3922  -12.1696 H   0  0  0  0  0  0
   29.3634   44.4158  -13.2677 H   0  0  0  0  0  0
   30.7974   43.4569  -13.6090 H   0  0  0  0  0  0
   30.7606   44.5066  -12.1980 H   0  0  0  0  0  0
   24.9362   41.4523  -11.4406 H   0  0  0  0  0  0
  1  2  1  0  0  0
  1 43  1  0  0  0
  1 44  1  0  0  0
  1 45  1  0  0  0
  2  3  1  0  0  0
  3  4  2  0  0  0
  3  5  1  0  0  0
  5 10  1  0  0  0
  5  6  2  0  0  0
  6  7  1  0  0  0
  6 46  1  0  0  0
  7 23  1  0  0  0
  7  8  2  0  0  0
  8  9  1  0  0  0
  8 47  1  0  0  0
  9 10  2  0  0  0
  9 11  1  0  0  0
 10 48  1  0  0  0
 11 12  2  0  0  0
 11 13  1  0  0  0
 13 14  1  0  0  0
 13 49  1  0  0  0
 14 41  1  0  0  0
 14 15  1  0  0  0
 14 27  1  0  0  0
 15 16  1  0  0  0
 15 50  1  0  0  0
 15 51  1  0  0  0
 16 26  1  0  0  0
 16 17  2  0  0  0
 17 18  1  0  0  0
 17 52  1  0  0  0
 18 19  1  0  0  0
 18 24  2  0  0  0
 19 20  1  0  0  0
 19 53  1  0  0  0
 19 54  1  0  0  0
 20 21  1  0  0  0
 20 55  1  0  0  0
 20 56  1  0  0  0
 21 22  1  0  0  0
 21 57  1  0  0  0
 21 58  1  0  0  0
 22 23  1  0  0  0
 22 59  1  0  0  0
 22 60  1  0  0  0
 24 25  1  0  0  0
 24 61  1  0  0  0
 25 26  2  0  0  0
 25 62  1  0  0  0
 26 63  1  0  0  0
 27 42  1  0  0  0
 27 28  1  0  0  0
 27 29  1  0  0  0
 28 64  1  0  0  0
 29 30  1  0  0  0
 29 65  1  0  0  0
 29 66  1  0  0  0
 30 31  1  0  0  0
 30 67  1  0  0  0
 30 81  1  0  0  0
 31 32  1  0  0  0
 31 68  1  0  0  0
 31 69  1  0  0  0
 32 37  1  0  0  0
 32 33  2  0  0  0
 33 34  1  0  0  0
 33 70  1  0  0  0
 34 35  2  0  0  0
 34 38  1  0  0  0
 35 36  1  0  0  0
 35 71  1  0  0  0
 36 37  2  0  0  0
 36 72  1  0  0  0
 37 73  1  0  0  0
 38 39  1  0  0  0
 38 40  1  0  0  0
 38 74  1  0  0  0
 39 75  1  0  0  0
 39 76  1  0  0  0
 39 77  1  0  0  0
 40 78  1  0  0  0
 40 79  1  0  0  0
 40 80  1  0  0  0
M  CHG  1  30   1
M  END
> <s_m_source_file>
BACE_134.smi

> <i_m_source_file_index>
1

> <i_lp_mmshare_version>
42013

> <i_f3d_flags>
0

> <s_epik_input>
TzFbQ0gyXVtDSDJdW0NIMl1bQ0gyXWMoW2NIXVtjSF1bY0hdMilbY0hdYzJbQ0gyXVtDQEhdKFtOSF1DKD1PKWMoW2NIXTMpW2NIXWMoW2NIXWMxMylDKD1PKU9bQ0gzXSlbQ0BIXShbT0hdKVtDSDJdW05IXVtDSDJdYzRbY0hdYyhbQ0hdKFtDSDNdKVtDSDNdKVtjSF1bY0hdW2NIXTQ=

> <s_epik_cmdline>
J2VwaWtfcHl0aG9uJywgJy1waCcsICc3LjAnLCAnLXRuJywgJzgnLCAnLW1hJywgJzIwMCcsICctaW1hZScsICc8aW5maWxlLm1hZT4nLCAnLW9tYWUnLCAnPG91dGZpbGUubWFlPic=

> <r_epik_Ionization_Penalty>
  0.0191

> <r_epik_Ionization_Penalty_Charging>
  0.0191

> <r_epik_Ionization_Penalty_Neutral>
  0.0000

> <r_epik_State_Penalty>
  0.0153

> <r_epik_Charging_Adjusted_Penalty>
0.0343718

> <i_epik_Tot_Q>
1

> <i_epik_Tot_abs_Q>
1

> <s_epik_Chemistry_Notes>
This compound has an ester and may undergo hydrolysis at high or low pH.

> <s_lp_Force_Field>
OPLS_2005

> <r_lp_Energy>
27.7784

> <b_lp_Chiralities_Consistent>
1

> <s_lp_Variant>
BACE_134.smi:1-1

> <chiral flag>
1

> <version>
0

> <s_i_glide_gridfile>
second_dock_grid_2

> <i_i_glide_lignum>
275

> <i_i_glide_rotatable_bonds>
9

> <r_i_docking_score>
-3.66742

> <r_i_glide_ligand_efficiency>
-0.0916856

> <r_i_glide_ligand_efficiency_sa>
-0.31356

> <r_i_glide_ligand_efficiency_ln>
-0.782153

> <r_glide_XP_GScore>
-3.68272

> <r_i_glide_gscore>
-3.68272

> <r_i_glide_evdw>
-35.558

> <r_i_glide_ecoul>
-11.49

> <r_i_glide_energy>
-47.048

> <r_i_glide_einternal>
2.03329

> <r_i_glide_emodel>
-71.2105

> <r_glide_XP_HBond>
-0.96

> <i_i_glide_confnum>
1

> <i_i_glide_posenum>
8

> <r_i_glide_eff_state_penalty>
0.0153

> <i_glide_XP_PoseRank>
1

$$$$
BACE_134.smi:1
                    3D
 Structure written by MMmdl.
 80 83  0  0  1  0            999 V2000
   21.9746   49.0334   -5.0013 C   0  0  0  0  0  0
   22.8852   48.1134   -5.5777 O   0  0  0  0  0  0
   23.8669   47.5737   -4.8271 C   0  0  0  0  0  0
   24.0161   47.7976   -3.6243 O   0  0  0  0  0  0
   24.7758   46.7123   -5.6293 C   0  0  0  0  0  0
   26.1297   46.5753   -5.2503 C   0  0  0  0  0  0
   27.0298   45.8113   -6.0211 C   0  0  0  0  0  0
   26.5395   45.1194   -7.1535 C   0  0  0  0  0  0
   25.1854   45.2296   -7.5381 C   0  0  0  0  0  0
   24.3136   46.0408   -6.7826 C   0  0  0  0  0  0
   24.6894   44.5533   -8.7815 C   0  0  0  0  0  0
   23.8142   45.0694   -9.4767 O   0  0  0  0  0  0
   25.2422   43.3591   -9.0441 N   0  0  0  0  0  0
   24.9947   42.5604  -10.2428 C   0  0  1  0  0  0
   26.3054   41.8831  -10.7037 C   0  0  0  0  0  0
   27.4483   42.8641  -10.9231 C   0  0  0  0  0  0
   28.4710   43.0005   -9.9608 C   0  0  0  0  0  0
   29.5320   43.9106  -10.1588 C   0  0  0  0  0  0
   30.6563   44.0224   -9.1384 C   0  0  0  0  0  0
   30.8445   45.4250   -8.5213 C   0  0  0  0  0  0
   29.6490   45.9760   -7.7206 C   0  0  0  0  0  0
   29.3306   45.1727   -6.4427 C   0  0  0  0  0  0
   28.3511   45.8035   -5.6223 O   0  0  0  0  0  0
   29.5623   44.6873  -11.3354 C   0  0  0  0  0  0
   28.5418   44.5588  -12.2987 C   0  0  0  0  0  0
   27.4868   43.6492  -12.0929 C   0  0  0  0  0  0
   23.8319   41.5325  -10.0873 C   0  0  2  0  0  0
   22.8602   41.8393  -11.0678 O   0  0  0  0  0  0
   23.1002   41.4062   -8.7179 C   0  0  0  0  0  0
   23.3352   40.0912   -8.1048 N   0  0  0  0  0  0
   22.1500   39.4664   -7.5007 C   0  0  0  0  0  0
   21.0258   39.0978   -8.4705 C   0  0  0  0  0  0
   19.7807   38.6849   -7.9465 C   0  0  0  0  0  0
   18.6999   38.3839   -8.8066 C   0  0  0  0  0  0
   18.8579   38.5461  -10.1977 C   0  0  0  0  0  0
   20.0944   38.9389  -10.7325 C   0  0  0  0  0  0
   21.1830   39.1706   -9.8751 C   0  0  0  0  0  0
   17.3767   37.8830   -8.2450 C   0  0  0  0  0  0
   17.0035   36.5143   -8.8420 C   0  0  0  0  0  0
   16.2504   38.9093   -8.4354 C   0  0  0  0  0  0
   24.7374   43.2584  -11.0426 H   0  0  0  0  0  0
   24.2044   40.5500  -10.3776 H   0  0  0  0  0  0
   21.4159   49.5404   -5.7884 H   0  0  0  0  0  0
   22.4894   49.7953   -4.4107 H   0  0  0  0  0  0
   21.2600   48.5181   -4.3624 H   0  0  0  0  0  0
   26.4995   47.0930   -4.3775 H   0  0  0  0  0  0
   27.1978   44.5187   -7.7597 H   0  0  0  0  0  0
   23.2818   46.1374   -7.0926 H   0  0  0  0  0  0
   25.9205   43.0052   -8.3876 H   0  0  0  0  0  0
   26.6109   41.1247   -9.9820 H   0  0  0  0  0  0
   26.1352   41.3502  -11.6400 H   0  0  0  0  0  0
   28.4370   42.3979   -9.0683 H   0  0  0  0  0  0
   30.5087   43.2908   -8.3475 H   0  0  0  0  0  0
   31.5802   43.7279   -9.6377 H   0  0  0  0  0  0
   31.7207   45.4054   -7.8719 H   0  0  0  0  0  0
   31.0891   46.1334   -9.3140 H   0  0  0  0  0  0
   29.8777   47.0018   -7.4262 H   0  0  0  0  0  0
   28.7785   46.0436   -8.3719 H   0  0  0  0  0  0
   29.0395   44.1500   -6.6663 H   0  0  0  0  0  0
   30.2373   45.0909   -5.8427 H   0  0  0  0  0  0
   30.3732   45.3795  -11.5105 H   0  0  0  0  0  0
   28.5703   45.1561  -13.1979 H   0  0  0  0  0  0
   26.7086   43.5550  -12.8360 H   0  0  0  0  0  0
   23.1975   41.5477  -11.9080 H   0  0  0  0  0  0
   23.3663   42.1866   -8.0122 H   0  0  0  0  0  0
   22.0335   41.5569   -8.8765 H   0  0  0  0  0  0
   23.7387   39.4509   -8.7892 H   0  0  0  0  0  0
   22.4474   38.5525   -6.9856 H   0  0  0  0  0  0
   21.7391   40.1251   -6.7352 H   0  0  0  0  0  0
   19.6547   38.5968   -6.8773 H   0  0  0  0  0  0
   18.0338   38.3456  -10.8634 H   0  0  0  0  0  0
   20.2156   39.0316  -11.8017 H   0  0  0  0  0  0
   22.1291   39.4306  -10.3182 H   0  0  0  0  0  0
   17.5038   37.7496   -7.1707 H   0  0  0  0  0  0
   17.7612   35.7664   -8.6159 H   0  0  0  0  0  0
   16.8866   36.5551   -9.9251 H   0  0  0  0  0  0
   16.0604   36.1535   -8.4394 H   0  0  0  0  0  0
   16.5061   39.8627   -7.9718 H   0  0  0  0  0  0
   15.3250   38.5607   -7.9714 H   0  0  0  0  0  0
   16.0463   39.0937   -9.4901 H   0  0  0  0  0  0
  1  2  1  0  0  0
  1 43  1  0  0  0
  1 44  1  0  0  0
  1 45  1  0  0  0
  2  3  1  0  0  0
  3  4  2  0  0  0
  3  5  1  0  0  0
  5 10  1  0  0  0
  5  6  2  0  0  0
  6  7  1  0  0  0
  6 46  1  0  0  0
  7 23  1  0  0  0
  7  8  2  0  0  0
  8  9  1  0  0  0
  8 47  1  0  0  0
  9 10  2  0  0  0
  9 11  1  0  0  0
 10 48  1  0  0  0
 11 12  2  0  0  0
 11 13  1  0  0  0
 13 14  1  0  0  0
 13 49  1  0  0  0
 14 41  1  0  0  0
 14 15  1  0  0  0
 14 27  1  0  0  0
 15 16  1  0  0  0
 15 50  1  0  0  0
 15 51  1  0  0  0
 16 26  1  0  0  0
 16 17  2  0  0  0
 17 18  1  0  0  0
 17 52  1  0  0  0
 18 19  1  0  0  0
 18 24  2  0  0  0
 19 20  1  0  0  0
 19 53  1  0  0  0
 19 54  1  0  0  0
 20 21  1  0  0  0
 20 55  1  0  0  0
 20 56  1  0  0  0
 21 22  1  0  0  0
 21 57  1  0  0  0
 21 58  1  0  0  0
 22 23  1  0  0  0
 22 59  1  0  0  0
 22 60  1  0  0  0
 24 25  1  0  0  0
 24 61  1  0  0  0
 25 26  2  0  0  0
 25 62  1  0  0  0
 26 63  1  0  0  0
 27 42  1  0  0  0
 27 28  1  0  0  0
 27 29  1  0  0  0
 28 64  1  0  0  0
 29 30  1  0  0  0
 29 65  1  0  0  0
 29 66  1  0  0  0
 30 31  1  0  0  0
 30 67  1  0  0  0
 31 32  1  0  0  0
 31 68  1  0  0  0
 31 69  1  0  0  0
 32 37  1  0  0  0
 32 33  2  0  0  0
 33 34  1  0  0  0
 33 70  1  0  0  0
 34 35  2  0  0  0
 34 38  1  0  0  0
 35 36  1  0  0  0
 35 71  1  0  0  0
 36 37  2  0  0  0
 36 72  1  0  0  0
 37 73  1  0  0  0
 38 39  1  0  0  0
 38 40  1  0  0  0
 38 74  1  0  0  0
 39 75  1  0  0  0
 39 76  1  0  0  0
 39 77  1  0  0  0
 40 78  1  0  0  0
 40 79  1  0  0  0
 40 80  1  0  0  0
M  END
> <s_m_source_file>
BACE_134.smi

> <i_m_source_file_index>
1

> <i_lp_mmshare_version>
42013

> <i_f3d_flags>
0

> <s_epik_input>
TzFbQ0gyXVtDSDJdW0NIMl1bQ0gyXWMoW2NIXVtjSF1bY0hdMilbY0hdYzJbQ0gyXVtDQEhdKFtOSF1DKD1PKWMoW2NIXTMpW2NIXWMoW2NIXWMxMylDKD1PKU9bQ0gzXSlbQ0BIXShbT0hdKVtDSDJdW05IXVtDSDJdYzRbY0hdYyhbQ0hdKFtDSDNdKVtDSDNdKVtjSF1bY0hdW2NIXTQ=

> <s_epik_cmdline>
J2VwaWtfcHl0aG9uJywgJy1waCcsICc3LjAnLCAnLXRuJywgJzgnLCAnLW1hJywgJzIwMCcsICctaW1hZScsICc8aW5maWxlLm1hZT4nLCAnLW9tYWUnLCAnPG91dGZpbGUubWFlPic=

> <r_epik_Ionization_Penalty>
  2.0439

> <r_epik_Ionization_Penalty_Charging>
  0.0000

> <r_epik_Ionization_Penalty_Neutral>
  2.0439

> <r_epik_State_Penalty>
  2.1759

> <r_epik_Charging_Adjusted_Penalty>
2.17586

> <i_epik_Tot_Q>
0

> <i_epik_Tot_abs_Q>
0

> <s_epik_Chemistry_Notes>
This compound has an ester and may undergo hydrolysis at high or low pH.

> <s_lp_Force_Field>
OPLS_2005

> <r_lp_Energy>
36.8575

> <b_lp_Chiralities_Consistent>
1

> <s_lp_Variant>
BACE_134.smi:1-2

> <chiral flag>
1

> <version>
0

> <s_i_glide_gridfile>
second_dock_grid_2

> <i_i_glide_lignum>
276

> <i_i_glide_rotatable_bonds>
9

> <r_i_docking_score>
-0.93454

> <r_i_glide_ligand_efficiency>
-0.0233635

> <r_i_glide_ligand_efficiency_sa>
-0.0799021

> <r_i_glide_ligand_efficiency_ln>
-0.19931

> <r_glide_XP_GScore>
-3.11044

> <r_i_glide_gscore>
-3.11044

> <r_i_glide_evdw>
-39.9194

> <r_i_glide_ecoul>
-6.7504

> <r_i_glide_energy>
-46.6698

> <r_i_glide_einternal>
6.16982

> <r_i_glide_emodel>
-68.8308

> <r_glide_XP_HBond>
-1.33

> <i_i_glide_confnum>
1

> <i_i_glide_posenum>
1

> <r_i_glide_eff_state_penalty>
2.1759

> <i_glide_XP_PoseRank>
1

$$$$
BACE_135.smi:1
                    3D
 Structure written by MMmdl.
 86 89  0  0  1  0            999 V2000
   19.9529   46.4300   -6.2291 C   0  0  0  0  0  0
   18.8008   47.4303   -6.2837 C   0  0  0  0  0  0
   18.1964   47.7499   -5.2557 O   0  0  0  0  0  0
   18.3802   47.9991   -7.6464 C   0  0  0  0  0  0
   18.9032   47.2339   -8.7331 O   0  0  0  0  0  0
   18.1980   46.1312   -9.1718 C   0  0  0  0  0  0
   17.0979   45.5710   -8.4797 C   0  0  0  0  0  0
   16.4382   44.4251   -8.9620 C   0  0  0  0  0  0
   16.8689   43.8310  -10.1710 C   0  0  0  0  0  0
   17.9376   44.4013  -10.8938 C   0  0  0  0  0  0
   18.5991   45.5387  -10.3840 C   0  0  0  0  0  0
   18.2901   43.8920  -12.2584 C   0  0  0  0  0  0
   18.0602   44.5909  -13.2396 O   0  0  0  0  0  0
   18.8472   42.6793  -12.4051 N   0  0  0  0  0  0
   19.2336   41.6763  -11.4182 C   0  0  1  0  0  0
   18.5655   40.3400  -11.8205 C   0  0  0  0  0  0
   18.1034   39.4722  -10.6701 C   0  0  0  0  0  0
   16.9113   39.8053  -10.0003 C   0  0  0  0  0  0
   16.4602   39.0177   -8.9268 C   0  0  0  0  0  0
   15.2212   39.4181   -8.1601 C   0  0  0  0  0  0
   15.5609   40.3980   -7.0298 C   0  0  0  0  0  0
   16.1007   41.7683   -7.4883 C   0  0  0  0  0  0
   15.0346   42.6135   -8.2113 C   0  0  0  0  0  0
   15.3590   43.9968   -8.2311 O   0  0  0  0  0  0
   17.1884   37.8781   -8.5384 C   0  0  0  0  0  0
   18.3452   37.5085   -9.2403 C   0  0  0  0  0  0
   18.8077   38.3045  -10.3032 C   0  0  0  0  0  0
   20.7820   41.6020  -11.3748 C   0  0  2  0  0  0
   21.2616   41.2952  -12.6760 O   0  0  0  0  0  0
   21.2568   40.5282  -10.3868 C   0  0  0  0  0  0
   22.6078   40.7597   -9.8414 N   0  3  0  0  0  0
   22.9901   39.7777   -8.8031 C   0  0  0  0  0  0
   22.1405   39.9180   -7.5578 C   0  0  0  0  0  0
   22.4165   40.9063   -6.5914 C   0  0  0  0  0  0
   21.5703   41.0117   -5.4608 C   0  0  0  0  0  0
   20.4599   40.1483   -5.4125 C   0  0  0  0  0  0
   20.2534   39.2139   -6.4410 C   0  0  0  0  0  0
   21.0897   39.0785   -7.4862 N   0  0  0  0  0  0
   21.8280   42.0404   -4.3521 C   0  0  0  0  0  0
   23.3287   42.1441   -4.0361 C   0  0  0  0  0  0
   21.1143   41.6757   -3.0275 C   0  0  0  0  0  0
   21.3072   43.4073   -4.8175 C   0  0  0  0  0  0
   18.8601   41.9722  -10.4359 H   0  0  0  0  0  0
   21.1657   42.5789  -11.0772 H   0  0  0  0  0  0
   19.7110   45.5307   -6.7997 H   0  0  0  0  0  0
   20.1512   46.1374   -5.1967 H   0  0  0  0  0  0
   20.8607   46.8741   -6.6409 H   0  0  0  0  0  0
   17.2957   48.0929   -7.7072 H   0  0  0  0  0  0
   18.7829   49.0081   -7.7239 H   0  0  0  0  0  0
   16.7432   45.9967   -7.5547 H   0  0  0  0  0  0
   16.3473   42.9813  -10.5849 H   0  0  0  0  0  0
   19.4091   45.9810  -10.9417 H   0  0  0  0  0  0
   19.0959   42.4279  -13.3492 H   0  0  0  0  0  0
   17.6794   40.5464  -12.4229 H   0  0  0  0  0  0
   19.2306   39.7505  -12.4450 H   0  0  0  0  0  0
   16.3530   40.6770  -10.3024 H   0  0  0  0  0  0
   14.4796   39.8454   -8.8365 H   0  0  0  0  0  0
   14.7596   38.5254   -7.7347 H   0  0  0  0  0  0
   14.6632   40.5495   -6.4394 H   0  0  0  0  0  0
   16.2793   39.9251   -6.3595 H   0  0  0  0  0  0
   16.4595   42.3021   -6.6060 H   0  0  0  0  0  0
   16.9920   41.6564   -8.1051 H   0  0  0  0  0  0
   14.8118   42.2291   -9.2056 H   0  0  0  0  0  0
   14.1013   42.5461   -7.6529 H   0  0  0  0  0  0
   16.8599   37.2916   -7.6947 H   0  0  0  0  0  0
   18.8682   36.6126   -8.9559 H   0  0  0  0  0  0
   19.6851   37.9934  -10.8459 H   0  0  0  0  0  0
   22.2128   41.3092  -12.7010 H   0  0  0  0  0  0
   20.5485   40.5147   -9.5589 H   0  0  0  0  0  0
   21.2316   39.5433  -10.8519 H   0  0  0  0  0  0
   23.2794   40.6954  -10.5951 H   0  0  0  0  0  0
   22.8590   38.7703   -9.2016 H   0  0  0  0  0  0
   24.0404   39.9034   -8.5359 H   0  0  0  0  0  0
   23.2578   41.5677   -6.7214 H   0  0  0  0  0  0
   19.7445   40.1654   -4.6065 H   0  0  0  0  0  0
   19.4094   38.5402   -6.4130 H   0  0  0  0  0  0
   23.5025   42.8045   -3.1854 H   0  0  0  0  0  0
   23.9093   42.5506   -4.8634 H   0  0  0  0  0  0
   23.7398   41.1664   -3.7812 H   0  0  0  0  0  0
   21.3860   40.6749   -2.6928 H   0  0  0  0  0  0
   20.0301   41.7196   -3.1187 H   0  0  0  0  0  0
   21.3821   42.3692   -2.2287 H   0  0  0  0  0  0
   21.4627   44.1512   -4.0407 H   0  0  0  0  0  0
   20.2384   43.3702   -5.0339 H   0  0  0  0  0  0
   21.8171   43.7479   -5.7200 H   0  0  0  0  0  0
   22.6522   41.6810   -9.4312 H   0  0  0  0  0  0
  1  2  1  0  0  0
  1 45  1  0  0  0
  1 46  1  0  0  0
  1 47  1  0  0  0
  2  3  2  0  0  0
  2  4  1  0  0  0
  4  5  1  0  0  0
  4 48  1  0  0  0
  4 49  1  0  0  0
  5  6  1  0  0  0
  6 11  1  0  0  0
  6  7  2  0  0  0
  7  8  1  0  0  0
  7 50  1  0  0  0
  8 24  1  0  0  0
  8  9  2  0  0  0
  9 10  1  0  0  0
  9 51  1  0  0  0
 10 11  2  0  0  0
 10 12  1  0  0  0
 11 52  1  0  0  0
 12 13  2  0  0  0
 12 14  1  0  0  0
 14 15  1  0  0  0
 14 53  1  0  0  0
 15 43  1  0  0  0
 15 16  1  0  0  0
 15 28  1  0  0  0
 16 17  1  0  0  0
 16 54  1  0  0  0
 16 55  1  0  0  0
 17 27  1  0  0  0
 17 18  2  0  0  0
 18 19  1  0  0  0
 18 56  1  0  0  0
 19 20  1  0  0  0
 19 25  2  0  0  0
 20 21  1  0  0  0
 20 57  1  0  0  0
 20 58  1  0  0  0
 21 22  1  0  0  0
 21 59  1  0  0  0
 21 60  1  0  0  0
 22 23  1  0  0  0
 22 61  1  0  0  0
 22 62  1  0  0  0
 23 24  1  0  0  0
 23 63  1  0  0  0
 23 64  1  0  0  0
 25 26  1  0  0  0
 25 65  1  0  0  0
 26 27  2  0  0  0
 26 66  1  0  0  0
 27 67  1  0  0  0
 28 44  1  0  0  0
 28 29  1  0  0  0
 28 30  1  0  0  0
 29 68  1  0  0  0
 30 31  1  0  0  0
 30 69  1  0  0  0
 30 70  1  0  0  0
 31 32  1  0  0  0
 31 71  1  0  0  0
 31 86  1  0  0  0
 32 33  1  0  0  0
 32 72  1  0  0  0
 32 73  1  0  0  0
 33 38  1  0  0  0
 33 34  2  0  0  0
 34 35  1  0  0  0
 34 74  1  0  0  0
 35 36  2  0  0  0
 35 39  1  0  0  0
 36 37  1  0  0  0
 36 75  1  0  0  0
 37 38  2  0  0  0
 37 76  1  0  0  0
 39 40  1  0  0  0
 39 41  1  0  0  0
 39 42  1  0  0  0
 40 77  1  0  0  0
 40 78  1  0  0  0
 40 79  1  0  0  0
 41 80  1  0  0  0
 41 81  1  0  0  0
 41 82  1  0  0  0
 42 83  1  0  0  0
 42 84  1  0  0  0
 42 85  1  0  0  0
M  CHG  1  31   1
M  END
> <s_m_source_file>
BACE_135.smi

> <i_m_source_file_index>
1

> <i_lp_mmshare_version>
42013

> <i_f3d_flags>
0

> <s_epik_input>
W0NIM11DKD1PKVtDSDJdT2MoW2NIXWMxMilbY0hdYyhbY0hdMSlDKD1PKVtOSF1bQ0BASF0oW0NIMl1jM1tjSF1jKFtjSF1bY0hdW2NIXTMpW0NIMl1bQ0gyXVtDSDJdW0NIMl1PMilbQ0BIXShbT0hdKVtDSDJdW05IXVtDSDJdYzRbY0hdYyhbY0hdW2NIXW40KUMoW0NIM10pKFtDSDNdKVtDSDNd

> <s_epik_cmdline>
J2VwaWtfcHl0aG9uJywgJy1waCcsICc3LjAnLCAnLXRuJywgJzgnLCAnLW1hJywgJzIwMCcsICctaW1hZScsICc8aW5maWxlLm1hZT4nLCAnLW9tYWUnLCAnPG91dGZpbGUubWFlPic=

> <r_lp_tautomer_probability>
1

> <r_epik_Ionization_Penalty>
  0.0381

> <r_epik_Ionization_Penalty_Charging>
  0.0379

> <r_epik_Ionization_Penalty_Neutral>
  0.0002

> <r_epik_State_Penalty>
  0.0317

> <r_epik_Charging_Adjusted_Penalty>
0.0696342

> <i_epik_Tot_Q>
1

> <i_epik_Tot_abs_Q>
1

> <s_lp_Force_Field>
OPLS_2005

> <r_lp_Energy>
34.9043

> <b_lp_Chiralities_Consistent>
1

> <s_lp_Variant>
BACE_135.smi:1-1

> <chiral flag>
1

> <version>
0

> <s_i_glide_gridfile>
second_dock_grid_2

> <i_i_glide_lignum>
277

> <i_i_glide_rotatable_bonds>
10

> <r_i_docking_score>
-5.90849

> <r_i_glide_ligand_efficiency>
-0.140678

> <r_i_glide_ligand_efficiency_sa>
-0.489001

> <r_i_glide_ligand_efficiency_ln>
-1.24713

> <r_glide_XP_GScore>
-5.94019

> <r_i_glide_gscore>
-5.94019

> <r_i_glide_evdw>
-46.384

> <r_i_glide_ecoul>
-14.1473

> <r_i_glide_energy>
-60.5313

> <r_i_glide_einternal>
13.053

> <r_i_glide_emodel>
-77.1189

> <r_glide_XP_HBond>
-1.51384

> <i_i_glide_confnum>
1

> <i_i_glide_posenum>
2

> <r_i_glide_eff_state_penalty>
0.0317

> <i_glide_XP_PoseRank>
1

$$$$
