BACE_11.smi:1
                    3D
 Structure written by MMmdl.
 80 82  0  0  1  0            999 V2000
   21.5827   43.0832   -3.8375 C   0  0  0  0  0  0
   22.2473   42.4862   -5.0861 C   0  0  0  0  0  0
   22.8694   43.5714   -5.9777 C   0  0  0  0  0  0
   21.2781   41.6011   -5.8607 C   0  0  0  0  0  0
   20.1647   42.1579   -6.5317 C   0  0  0  0  0  0
   19.2647   41.3293   -7.2392 C   0  0  0  0  0  0
   18.0778   41.9225   -7.9752 C   0  0  0  0  0  0
   16.7869   41.3122   -7.6405 N   0  0  0  0  0  0
   15.5778   42.0571   -8.0404 C   0  0  0  0  0  0
   14.9264   41.5463   -9.3544 C   0  0  1  0  0  0
   13.6618   42.1524   -9.5683 O   0  0  0  0  0  0
   15.7194   41.7409  -10.6671 C   0  0  2  0  0  0
   16.2469   40.4255  -11.2873 C   0  0  0  0  0  0
   17.0596   39.4409  -10.4479 C   0  0  0  0  0  0
   18.4595   39.3831  -10.6274 C   0  0  0  0  0  0
   19.2389   38.3866   -9.9922 C   0  0  0  0  0  0
   18.5680   37.3609   -9.2875 C   0  0  0  0  0  0
   17.1750   37.4159   -9.0913 C   0  0  0  0  0  0
   16.4244   38.4664   -9.6443 C   0  0  0  0  0  0
   20.6233   38.3838   -9.9458 O   0  0  0  0  0  0
   21.3890   39.2017  -10.8338 C   0  0  0  0  0  0
   21.2931   40.7319  -10.6311 C   0  0  0  0  0  0
   22.4916   41.4302   -9.9764 C   0  0  0  0  0  0
   22.5142   42.9608  -10.2093 C   0  0  0  0  0  0
   21.3160   43.7611   -9.6368 C   0  0  0  0  0  0
   20.0739   43.8922  -10.5464 C   0  0  0  0  0  0
   20.0790   43.3339  -11.6391 O   0  0  0  0  0  0
   18.9997   44.6217  -10.1384 N   0  0  0  0  0  0
   18.9837   45.3340   -8.8541 C   0  0  0  0  0  0
   17.8780   44.9514  -11.0542 C   0  0  1  0  0  0
   18.3561   45.7786  -12.2712 C   0  0  0  0  0  0
   16.9666   43.7685  -11.4553 C   0  0  0  0  0  0
   16.4610   43.7514  -12.5746 O   0  0  0  0  0  0
   16.7293   42.8010  -10.5568 N   0  0  0  0  0  0
   19.4597   39.9377   -7.2159 C   0  0  0  0  0  0
   20.5694   39.3732   -6.5629 C   0  0  0  0  0  0
   21.4853   40.2058   -5.8944 C   0  0  0  0  0  0
   14.6860   40.4941   -9.2204 H   0  0  0  0  0  0
   15.0048   42.0873  -11.4168 H   0  0  0  0  0  0
   17.2039   45.6178  -10.5157 H   0  0  0  0  0  0
   21.1889   42.3024   -3.1884 H   0  0  0  0  0  0
   20.7585   43.7449   -4.0967 H   0  0  0  0  0  0
   22.2988   43.6609   -3.2559 H   0  0  0  0  0  0
   23.0657   41.8544   -4.7378 H   0  0  0  0  0  0
   23.3738   43.1261   -6.8349 H   0  0  0  0  0  0
   23.6106   44.1502   -5.4261 H   0  0  0  0  0  0
   22.1224   44.2686   -6.3571 H   0  0  0  0  0  0
   19.9981   43.2239   -6.4958 H   0  0  0  0  0  0
   18.0427   42.9905   -7.7614 H   0  0  0  0  0  0
   18.3032   41.7961   -9.0292 H   0  0  0  0  0  0
   16.7776   41.1674   -6.6285 H   0  0  0  0  0  0
   14.8391   41.9241   -7.2479 H   0  0  0  0  0  0
   15.7683   43.1328   -8.0747 H   0  0  0  0  0  0
   13.0274   41.7109   -8.9980 H   0  0  0  0  0  0
   15.3770   39.8723  -11.6384 H   0  0  0  0  0  0
   16.8183   40.6658  -12.1839 H   0  0  0  0  0  0
   18.9053   40.1221  -11.2722 H   0  0  0  0  0  0
   19.1297   36.5517   -8.8499 H   0  0  0  0  0  0
   16.6808   36.6549   -8.5026 H   0  0  0  0  0  0
   15.3526   38.4605   -9.5145 H   0  0  0  0  0  0
   22.4391   38.9011  -10.7354 H   0  0  0  0  0  0
   21.1052   38.9512  -11.8572 H   0  0  0  0  0  0
   21.1802   41.1469  -11.6315 H   0  0  0  0  0  0
   20.4087   41.0051  -10.0598 H   0  0  0  0  0  0
   22.5072   41.2099   -8.9068 H   0  0  0  0  0  0
   23.4133   41.0146  -10.3864 H   0  0  0  0  0  0
   23.4230   43.3455   -9.7457 H   0  0  0  0  0  0
   22.6392   43.1692  -11.2719 H   0  0  0  0  0  0
   21.0298   43.3169   -8.6912 H   0  0  0  0  0  0
   21.6571   44.7713   -9.4149 H   0  0  0  0  0  0
   19.4022   46.3330   -8.9797 H   0  0  0  0  0  0
   19.5408   44.8368   -8.0653 H   0  0  0  0  0  0
   17.9681   45.4412   -8.4769 H   0  0  0  0  0  0
   17.5126   46.2504  -12.7753 H   0  0  0  0  0  0
   18.8607   45.1605  -13.0117 H   0  0  0  0  0  0
   19.0396   46.5750  -11.9711 H   0  0  0  0  0  0
   17.1902   42.8632   -9.6622 H   0  0  0  0  0  0
   18.7237   39.2992   -7.6672 H   0  0  0  0  0  0
   20.7120   38.3021   -6.5662 H   0  0  0  0  0  0
   22.3319   39.7665   -5.3917 H   0  0  0  0  0  0
  1  2  1  0  0  0
  1 41  1  0  0  0
  1 42  1  0  0  0
  1 43  1  0  0  0
  2  3  1  0  0  0
  2  4  1  0  0  0
  2 44  1  0  0  0
  3 45  1  0  0  0
  3 46  1  0  0  0
  3 47  1  0  0  0
  4 37  1  0  0  0
  4  5  2  0  0  0
  5  6  1  0  0  0
  5 48  1  0  0  0
  6  7  1  0  0  0
  6 35  2  0  0  0
  7  8  1  0  0  0
  7 49  1  0  0  0
  7 50  1  0  0  0
  8  9  1  0  0  0
  8 51  1  0  0  0
  9 10  1  0  0  0
  9 52  1  0  0  0
  9 53  1  0  0  0
 10 38  1  0  0  0
 10 11  1  0  0  0
 10 12  1  0  0  0
 11 54  1  0  0  0
 12 39  1  0  0  0
 12 34  1  0  0  0
 12 13  1  0  0  0
 13 14  1  0  0  0
 13 55  1  0  0  0
 13 56  1  0  0  0
 14 19  1  0  0  0
 14 15  2  0  0  0
 15 16  1  0  0  0
 15 57  1  0  0  0
 16 17  2  0  0  0
 16 20  1  0  0  0
 17 18  1  0  0  0
 17 58  1  0  0  0
 18 19  2  0  0  0
 18 59  1  0  0  0
 19 60  1  0  0  0
 20 21  1  0  0  0
 21 22  1  0  0  0
 21 61  1  0  0  0
 21 62  1  0  0  0
 22 23  1  0  0  0
 22 63  1  0  0  0
 22 64  1  0  0  0
 23 24  1  0  0  0
 23 65  1  0  0  0
 23 66  1  0  0  0
 24 25  1  0  0  0
 24 67  1  0  0  0
 24 68  1  0  0  0
 25 26  1  0  0  0
 25 69  1  0  0  0
 25 70  1  0  0  0
 26 27  2  0  0  0
 26 28  1  0  0  0
 28 29  1  0  0  0
 28 30  1  0  0  0
 29 71  1  0  0  0
 29 72  1  0  0  0
 29 73  1  0  0  0
 30 40  1  0  0  0
 30 31  1  0  0  0
 30 32  1  0  0  0
 31 74  1  0  0  0
 31 75  1  0  0  0
 31 76  1  0  0  0
 32 33  2  0  0  0
 32 34  1  0  0  0
 34 77  1  0  0  0
 35 36  1  0  0  0
 35 78  1  0  0  0
 36 37  2  0  0  0
 36 79  1  0  0  0
 37 80  1  0  0  0
M  END
> <s_m_source_file>
BACE_11.smi

> <i_m_source_file_index>
1

> <i_lp_mmshare_version>
42013

> <i_f3d_flags>
0

> <s_epik_input>
W0NIM11bQ0hdKFtDSDNdKWMxW2NIXWMoW2NIXVtjSF1bY0hdMSlbQ0gyXVtOSF1bQ0gyXVtDQEBIXShbT0hdKVtDQEhdKFtDSDJdMilbTkhdQyg9TylbQ0BIXShbQ0gzXSlOKFtDSDNdKUMoPU8pW0NIMl1bQ0gyXVtDSDJdW0NIMl1bQ0gyXU9jKFtjSF1jMjMpW2NIXVtjSF1bY0hdMw==

> <s_epik_cmdline>
J2VwaWtfcHl0aG9uJywgJy1waCcsICc3LjAnLCAnLXRuJywgJzgnLCAnLW1hJywgJzIwMCcsICctaW1hZScsICc8aW5maWxlLm1hZT4nLCAnLW9tYWUnLCAnPG91dGZpbGUubWFlPic=

> <r_lp_tautomer_probability>
1

> <r_epik_Ionization_Penalty>
  1.9888

> <r_epik_Ionization_Penalty_Charging>
  0.0000

> <r_epik_Ionization_Penalty_Neutral>
  1.9888

> <r_epik_State_Penalty>
  2.1166

> <r_epik_Charging_Adjusted_Penalty>
2.11661

> <i_epik_Tot_Q>
0

> <i_epik_Tot_abs_Q>
0

> <s_lp_Force_Field>
OPLS_2005

> <r_lp_Energy>
43.4478

> <b_lp_Chiralities_Consistent>
1

> <s_lp_Variant>
BACE_11.smi:1-2

> <chiral flag>
1

> <version>
0

> <s_i_glide_gridfile>
second_dock_grid_2

> <i_i_glide_lignum>
19

> <i_i_glide_rotatable_bonds>
7

> <r_i_docking_score>
-3.13508

> <r_i_glide_ligand_efficiency>
-0.0847319

> <r_i_glide_ligand_efficiency_sa>
-0.282346

> <r_i_glide_ligand_efficiency_ln>
-0.679926

> <r_glide_XP_GScore>
-5.25168

> <r_i_glide_gscore>
-5.25168

> <r_i_glide_evdw>
-27.9043

> <r_i_glide_ecoul>
-14.5816

> <r_i_glide_energy>
-42.4859

> <r_i_glide_einternal>
5.52261

> <r_i_glide_emodel>
-58.5566

> <r_glide_XP_HBond>
-0.0713312

> <i_i_glide_confnum>
1

> <i_i_glide_posenum>
1

> <r_i_glide_eff_state_penalty>
2.1166

> <i_glide_XP_PoseRank>
1

$$$$
BACE_12.smi:1
                    3D
 Structure written by MMmdl.
 79 82  0  0  1  0            999 V2000
   20.1285   44.8598   -5.5167 C   0  0  0  0  0  0
   18.8595   45.1586   -6.0772 O   0  0  0  0  0  0
   18.7433   44.9055   -7.4221 C   0  0  0  0  0  0
   17.6282   44.2008   -7.8979 C   0  0  0  0  0  0
   17.5770   43.8769   -9.2706 C   0  0  0  0  0  0
   18.5985   44.3497  -10.1163 C   0  0  0  0  0  0
   19.6875   45.0451   -9.5387 C   0  0  0  0  0  0
   20.8114   45.4644  -10.2606 N   0  0  0  0  0  0
   21.2107   44.8141  -11.5027 C   0  0  0  0  0  0
   22.1348   43.5956  -11.2926 C   0  0  0  0  0  0
   21.4272   42.3194  -10.8094 C   0  0  0  0  0  0
   20.6171   41.5978  -11.9014 C   0  0  0  0  0  0
   19.7970   40.4667  -11.3151 C   0  0  0  0  0  0
   20.4383   39.2927  -10.8759 C   0  0  0  0  0  0
   19.6860   38.2715  -10.2700 C   0  0  0  0  0  0
   18.2975   38.4158  -10.0986 C   0  0  0  0  0  0
   17.6422   39.5925  -10.5197 C   0  0  0  0  0  0
   16.1254   39.7363  -10.3596 C   0  0  0  0  0  0
   15.6065   40.6513   -9.2095 C   0  0  2  0  0  0
   16.4067   41.8568   -9.0114 N   0  0  0  0  0  0
   16.5393   42.9332   -9.7929 C   0  0  0  0  0  0
   15.9897   43.0895  -10.8853 O   0  0  0  0  0  0
   15.3954   39.9443   -7.8285 C   0  0  2  0  0  0
   15.2601   40.9478   -6.8393 O   0  0  0  0  0  0
   16.5279   39.0291   -7.3167 C   0  0  0  0  0  0
   17.8210   39.7470   -7.2400 N   0  3  0  0  0  0
   18.9398   38.9451   -6.7011 C   0  0  0  0  0  0
   20.1420   39.8243   -6.3952 C   0  0  0  0  0  0
   20.9315   40.3537   -7.4343 C   0  0  0  0  0  0
   22.0137   41.2013   -7.1378 C   0  0  0  0  0  0
   22.3065   41.5373   -5.8038 C   0  0  0  0  0  0
   21.5218   41.0289   -4.7394 C   0  0  0  0  0  0
   20.4606   40.1503   -5.0610 C   0  0  0  0  0  0
   21.8028   41.4149   -3.2764 C   0  0  0  0  0  0
   20.5201   41.5362   -2.4271 C   0  0  0  0  0  0
   22.6399   42.7029   -3.1219 C   0  0  0  0  0  0
   18.4025   40.5939  -11.1674 C   0  0  0  0  0  0
   19.7516   45.3197   -8.2232 N   0  0  0  0  0  0
   14.6131   40.9933   -9.5063 H   0  0  0  0  0  0
   14.4685   39.3670   -7.8580 H   0  0  0  0  0  0
   20.0654   44.9805   -4.4381 H   0  0  0  0  0  0
   20.9312   45.5055   -5.8915 H   0  0  0  0  0  0
   20.3898   43.8160   -5.7097 H   0  0  0  0  0  0
   16.8672   43.8570   -7.2098 H   0  0  0  0  0  0
   18.5596   44.1077  -11.1647 H   0  0  0  0  0  0
   21.5532   45.8747   -9.7097 H   0  0  0  0  0  0
   20.3386   44.5528  -12.0920 H   0  0  0  0  0  0
   21.7502   45.5584  -12.0882 H   0  0  0  0  0  0
   22.6491   43.3689  -12.2288 H   0  0  0  0  0  0
   22.9183   43.8580  -10.5792 H   0  0  0  0  0  0
   22.1827   41.6269  -10.4287 H   0  0  0  0  0  0
   20.7909   42.5501   -9.9554 H   0  0  0  0  0  0
   19.9544   42.2920  -12.4216 H   0  0  0  0  0  0
   21.2916   41.1980  -12.6602 H   0  0  0  0  0  0
   21.5067   39.1827  -10.9842 H   0  0  0  0  0  0
   20.1840   37.3804   -9.9238 H   0  0  0  0  0  0
   17.7428   37.5946   -9.6681 H   0  0  0  0  0  0
   15.7594   40.1449  -11.3025 H   0  0  0  0  0  0
   15.6696   38.7485  -10.2804 H   0  0  0  0  0  0
   16.8258   41.9418   -8.0984 H   0  0  0  0  0  0
   14.5724   40.7457   -6.2081 H   0  0  0  0  0  0
   16.2682   38.6757   -6.3176 H   0  0  0  0  0  0
   16.6091   38.1351   -7.9305 H   0  0  0  0  0  0
   18.0683   40.1059   -8.1507 H   0  0  0  0  0  0
   18.6180   38.4483   -5.7855 H   0  0  0  0  0  0
   19.2179   38.1590   -7.4025 H   0  0  0  0  0  0
   20.7048   40.1332   -8.4610 H   0  0  0  0  0  0
   22.6143   41.6125   -7.9379 H   0  0  0  0  0  0
   23.1384   42.1983   -5.6233 H   0  0  0  0  0  0
   19.8369   39.7502   -4.2791 H   0  0  0  0  0  0
   22.3939   40.6037   -2.8486 H   0  0  0  0  0  0
   20.0322   40.5705   -2.2922 H   0  0  0  0  0  0
   19.7982   42.2256   -2.8743 H   0  0  0  0  0  0
   20.7428   41.9045   -1.4236 H   0  0  0  0  0  0
   23.6319   42.6125   -3.5713 H   0  0  0  0  0  0
   22.8052   42.9436   -2.0698 H   0  0  0  0  0  0
   22.1369   43.5616   -3.5694 H   0  0  0  0  0  0
   17.9153   41.4740  -11.5521 H   0  0  0  0  0  0
   17.6750   40.5200   -6.5937 H   0  0  0  0  0  0
  1  2  1  0  0  0
  1 41  1  0  0  0
  1 42  1  0  0  0
  1 43  1  0  0  0
  2  3  1  0  0  0
  3 38  1  0  0  0
  3  4  2  0  0  0
  4  5  1  0  0  0
  4 44  1  0  0  0
  5 21  1  0  0  0
  5  6  2  0  0  0
  6  7  1  0  0  0
  6 45  1  0  0  0
  7  8  1  0  0  0
  7 38  2  0  0  0
  8  9  1  0  0  0
  8 46  1  0  0  0
  9 10  1  0  0  0
  9 47  1  0  0  0
  9 48  1  0  0  0
 10 11  1  0  0  0
 10 49  1  0  0  0
 10 50  1  0  0  0
 11 12  1  0  0  0
 11 51  1  0  0  0
 11 52  1  0  0  0
 12 13  1  0  0  0
 12 53  1  0  0  0
 12 54  1  0  0  0
 13 37  1  0  0  0
 13 14  2  0  0  0
 14 15  1  0  0  0
 14 55  1  0  0  0
 15 16  2  0  0  0
 15 56  1  0  0  0
 16 17  1  0  0  0
 16 57  1  0  0  0
 17 18  1  0  0  0
 17 37  2  0  0  0
 18 19  1  0  0  0
 18 58  1  0  0  0
 18 59  1  0  0  0
 19 39  1  0  0  0
 19 20  1  0  0  0
 19 23  1  0  0  0
 20 21  1  0  0  0
 20 60  1  0  0  0
 21 22  2  0  0  0
 23 40  1  0  0  0
 23 24  1  0  0  0
 23 25  1  0  0  0
 24 61  1  0  0  0
 25 26  1  0  0  0
 25 62  1  0  0  0
 25 63  1  0  0  0
 26 27  1  0  0  0
 26 64  1  0  0  0
 26 79  1  0  0  0
 27 28  1  0  0  0
 27 65  1  0  0  0
 27 66  1  0  0  0
 28 33  1  0  0  0
 28 29  2  0  0  0
 29 30  1  0  0  0
 29 67  1  0  0  0
 30 31  2  0  0  0
 30 68  1  0  0  0
 31 32  1  0  0  0
 31 69  1  0  0  0
 32 33  2  0  0  0
 32 34  1  0  0  0
 33 70  1  0  0  0
 34 35  1  0  0  0
 34 36  1  0  0  0
 34 71  1  0  0  0
 35 72  1  0  0  0
 35 73  1  0  0  0
 35 74  1  0  0  0
 36 75  1  0  0  0
 36 76  1  0  0  0
 36 77  1  0  0  0
 37 78  1  0  0  0
M  CHG  1  26   1
M  END
> <s_m_source_file>
BACE_12.smi

> <i_m_source_file_index>
1

> <i_lp_mmshare_version>
42013

> <i_f3d_flags>
0

> <s_epik_input>
W0NIM11PYyhbY0hdYzEyKW5jKFtjSF0xKVtOSF1bQ0gyXVtDSDJdW0NIMl1bQ0gyXWMzW2NIXVtjSF1bY0hdYyhbY0hdMylbQ0gyXVtDQEhdKFtOSF1DMj1PKVtDQEhdKFtPSF0pW0NIMl1bTkhdW0NIMl1jNFtjSF1bY0hdW2NIXWMoW2NIXTQpW0NIXShbQ0gzXSlbQ0gzXQ==

> <s_epik_cmdline>
J2VwaWtfcHl0aG9uJywgJy1waCcsICc3LjAnLCAnLXRuJywgJzgnLCAnLW1hJywgJzIwMCcsICctaW1hZScsICc8aW5maWxlLm1hZT4nLCAnLW9tYWUnLCAnPG91dGZpbGUubWFlPic=

> <r_lp_tautomer_probability>
1

> <r_epik_Ionization_Penalty>
  0.0201

> <r_epik_Ionization_Penalty_Charging>
  0.0201

> <r_epik_Ionization_Penalty_Neutral>
  0.0000

> <r_epik_State_Penalty>
  0.0161

> <r_epik_Charging_Adjusted_Penalty>
0.0361071

> <i_epik_Tot_Q>
1

> <i_epik_Tot_abs_Q>
1

> <s_lp_Force_Field>
OPLS_2005

> <r_lp_Energy>
20.6554

> <b_lp_Chiralities_Consistent>
1

> <s_lp_Variant>
BACE_12.smi:1-1

> <chiral flag>
1

> <version>
0

> <s_i_glide_gridfile>
second_dock_grid_2

> <i_i_glide_lignum>
20

> <i_i_glide_rotatable_bonds>
8

> <r_i_docking_score>
-6.41052

> <r_i_glide_ligand_efficiency>
-0.168698

> <r_i_glide_ligand_efficiency_sa>
-0.567158

> <r_i_glide_ligand_efficiency_ln>
-1.3823

> <r_glide_XP_GScore>
-6.42662

> <r_i_glide_gscore>
-6.42662

> <r_i_glide_evdw>
-41.2222

> <r_i_glide_ecoul>
-13.0481

> <r_i_glide_energy>
-54.2703

> <r_i_glide_einternal>
13.3454

> <r_i_glide_emodel>
-69.8275

> <r_glide_XP_HBond>
0

> <i_i_glide_confnum>
1

> <i_i_glide_posenum>
2

> <r_i_glide_eff_state_penalty>
0.0161

> <i_glide_XP_PoseRank>
1

$$$$
BACE_12.smi:1
                    3D
 Structure written by MMmdl.
 78 81  0  0  1  0            999 V2000
   22.7423   45.8868  -10.6405 C   0  0  0  0  0  0
   21.3902   45.7960  -11.0738 O   0  0  0  0  0  0
   20.7514   44.5800  -10.9520 C   0  0  0  0  0  0
   19.4080   44.4835  -11.3583 C   0  0  0  0  0  0
   18.7404   43.2509  -11.2123 C   0  0  0  0  0  0
   19.4651   42.1490  -10.7014 C   0  0  0  0  0  0
   20.8171   42.3362  -10.3395 C   0  0  0  0  0  0
   21.6126   41.3115   -9.8163 N   0  0  0  0  0  0
   21.5279   39.9683  -10.3758 C   0  0  0  0  0  0
   21.2781   38.9029   -9.2918 C   0  0  0  0  0  0
   19.8316   38.8765   -8.7771 C   0  0  0  0  0  0
   18.8507   38.1985   -9.7500 C   0  0  0  0  0  0
   17.4168   38.5973   -9.4731 C   0  0  0  0  0  0
   16.7579   38.1469   -8.3150 C   0  0  0  0  0  0
   15.4359   38.5495   -8.0446 C   0  0  0  0  0  0
   14.7605   39.3987   -8.9372 C   0  0  0  0  0  0
   15.4211   39.8674  -10.0900 C   0  0  0  0  0  0
   14.7344   40.8454  -11.0222 C   0  0  0  0  0  0
   15.0816   42.3238  -10.7350 C   0  0  2  0  0  0
   16.5347   42.4943  -10.6997 N   0  0  0  0  0  0
   17.2985   43.1263  -11.5993 C   0  0  0  0  0  0
   16.8629   43.6303  -12.6367 O   0  0  0  0  0  0
   14.4320   42.8551   -9.4246 C   0  0  2  0  0  0
   13.0354   42.9500   -9.6400 O   0  0  0  0  0  0
   14.9118   44.2642   -9.0100 C   0  0  0  0  0  0
   16.1821   44.2169   -8.2858 N   0  0  0  0  0  0
   16.7791   45.5292   -8.0668 C   0  0  0  0  0  0
   18.1272   45.5113   -7.3599 C   0  0  0  0  0  0
   18.6950   44.3242   -6.8403 C   0  0  0  0  0  0
   19.9361   44.3633   -6.1777 C   0  0  0  0  0  0
   20.6269   45.5799   -6.0404 C   0  0  0  0  0  0
   20.0821   46.7707   -6.5664 C   0  0  0  0  0  0
   18.8303   46.7264   -7.2185 C   0  0  0  0  0  0
   20.8686   48.0726   -6.4681 C   0  0  0  0  0  0
   20.0553   49.2145   -5.8377 C   0  0  0  0  0  0
   21.4320   48.4752   -7.8384 C   0  0  0  0  0  0
   16.7397   39.4504  -10.3609 C   0  0  0  0  0  0
   21.4391   43.5253  -10.4521 N   0  0  0  0  0  0
   14.6783   42.9235  -11.5536 H   0  0  0  0  0  0
   14.5956   42.1672   -8.5949 H   0  0  0  0  0  0
   23.1049   46.9044  -10.7929 H   0  0  0  0  0  0
   23.3884   45.2169  -11.2108 H   0  0  0  0  0  0
   22.8374   45.6563   -9.5788 H   0  0  0  0  0  0
   18.8945   45.3491  -11.7496 H   0  0  0  0  0  0
   18.9934   41.1867  -10.5779 H   0  0  0  0  0  0
   22.5515   41.6075   -9.5928 H   0  0  0  0  0  0
   20.7956   39.9025  -11.1792 H   0  0  0  0  0  0
   22.4907   39.7637  -10.8406 H   0  0  0  0  0  0
   21.5387   37.9158   -9.6750 H   0  0  0  0  0  0
   21.9580   39.0802   -8.4577 H   0  0  0  0  0  0
   19.7872   38.3634   -7.8159 H   0  0  0  0  0  0
   19.5127   39.9020   -8.5799 H   0  0  0  0  0  0
   19.0910   38.4577  -10.7818 H   0  0  0  0  0  0
   18.9430   37.1135   -9.6826 H   0  0  0  0  0  0
   17.2604   37.4786   -7.6318 H   0  0  0  0  0  0
   14.9386   38.1898   -7.1529 H   0  0  0  0  0  0
   13.7451   39.6980   -8.7235 H   0  0  0  0  0  0
   15.0258   40.5877  -12.0400 H   0  0  0  0  0  0
   13.6602   40.6904  -10.9713 H   0  0  0  0  0  0
   16.9972   42.1747   -9.8581 H   0  0  0  0  0  0
   12.6166   42.2244   -9.1798 H   0  0  0  0  0  0
   14.9933   44.8953   -9.8958 H   0  0  0  0  0  0
   14.1644   44.7290   -8.3683 H   0  0  0  0  0  0
   16.0327   43.7590   -7.3880 H   0  0  0  0  0  0
   16.9197   46.0323   -9.0240 H   0  0  0  0  0  0
   16.0977   46.1501   -7.4896 H   0  0  0  0  0  0
   18.1892   43.3748   -6.9297 H   0  0  0  0  0  0
   20.3603   43.4525   -5.7799 H   0  0  0  0  0  0
   21.5862   45.5898   -5.5440 H   0  0  0  0  0  0
   18.4073   47.6291   -7.6333 H   0  0  0  0  0  0
   21.7201   47.8914   -5.8105 H   0  0  0  0  0  0
   19.7014   48.9487   -4.8422 H   0  0  0  0  0  0
   19.1862   49.4787   -6.4417 H   0  0  0  0  0  0
   20.6626   50.1132   -5.7307 H   0  0  0  0  0  0
   22.0617   47.6850   -8.2479 H   0  0  0  0  0  0
   22.0418   49.3763   -7.7656 H   0  0  0  0  0  0
   20.6347   48.6689   -8.5572 H   0  0  0  0  0  0
   17.2420   39.8043  -11.2487 H   0  0  0  0  0  0
  1  2  1  0  0  0
  1 41  1  0  0  0
  1 42  1  0  0  0
  1 43  1  0  0  0
  2  3  1  0  0  0
  3 38  1  0  0  0
  3  4  2  0  0  0
  4  5  1  0  0  0
  4 44  1  0  0  0
  5 21  1  0  0  0
  5  6  2  0  0  0
  6  7  1  0  0  0
  6 45  1  0  0  0
  7  8  1  0  0  0
  7 38  2  0  0  0
  8  9  1  0  0  0
  8 46  1  0  0  0
  9 10  1  0  0  0
  9 47  1  0  0  0
  9 48  1  0  0  0
 10 11  1  0  0  0
 10 49  1  0  0  0
 10 50  1  0  0  0
 11 12  1  0  0  0
 11 51  1  0  0  0
 11 52  1  0  0  0
 12 13  1  0  0  0
 12 53  1  0  0  0
 12 54  1  0  0  0
 13 37  1  0  0  0
 13 14  2  0  0  0
 14 15  1  0  0  0
 14 55  1  0  0  0
 15 16  2  0  0  0
 15 56  1  0  0  0
 16 17  1  0  0  0
 16 57  1  0  0  0
 17 18  1  0  0  0
 17 37  2  0  0  0
 18 19  1  0  0  0
 18 58  1  0  0  0
 18 59  1  0  0  0
 19 39  1  0  0  0
 19 20  1  0  0  0
 19 23  1  0  0  0
 20 21  1  0  0  0
 20 60  1  0  0  0
 21 22  2  0  0  0
 23 40  1  0  0  0
 23 24  1  0  0  0
 23 25  1  0  0  0
 24 61  1  0  0  0
 25 26  1  0  0  0
 25 62  1  0  0  0
 25 63  1  0  0  0
 26 27  1  0  0  0
 26 64  1  0  0  0
 27 28  1  0  0  0
 27 65  1  0  0  0
 27 66  1  0  0  0
 28 33  1  0  0  0
 28 29  2  0  0  0
 29 30  1  0  0  0
 29 67  1  0  0  0
 30 31  2  0  0  0
 30 68  1  0  0  0
 31 32  1  0  0  0
 31 69  1  0  0  0
 32 33  2  0  0  0
 32 34  1  0  0  0
 33 70  1  0  0  0
 34 35  1  0  0  0
 34 36  1  0  0  0
 34 71  1  0  0  0
 35 72  1  0  0  0
 35 73  1  0  0  0
 35 74  1  0  0  0
 36 75  1  0  0  0
 36 76  1  0  0  0
 36 77  1  0  0  0
 37 78  1  0  0  0
M  END
> <s_m_source_file>
BACE_12.smi

> <i_m_source_file_index>
1

> <i_lp_mmshare_version>
42013

> <i_f3d_flags>
0

> <s_epik_input>
W0NIM11PYyhbY0hdYzEyKW5jKFtjSF0xKVtOSF1bQ0gyXVtDSDJdW0NIMl1bQ0gyXWMzW2NIXVtjSF1bY0hdYyhbY0hdMylbQ0gyXVtDQEhdKFtOSF1DMj1PKVtDQEhdKFtPSF0pW0NIMl1bTkhdW0NIMl1jNFtjSF1bY0hdW2NIXWMoW2NIXTQpW0NIXShbQ0gzXSlbQ0gzXQ==

> <s_epik_cmdline>
J2VwaWtfcHl0aG9uJywgJy1waCcsICc3LjAnLCAnLXRuJywgJzgnLCAnLW1hJywgJzIwMCcsICctaW1hZScsICc8aW5maWxlLm1hZT4nLCAnLW9tYWUnLCAnPG91dGZpbGUubWFlPic=

> <r_lp_tautomer_probability>
1

> <r_epik_Ionization_Penalty>
  2.0161

> <r_epik_Ionization_Penalty_Charging>
  0.0000

> <r_epik_Ionization_Penalty_Neutral>
  2.0161

> <r_epik_State_Penalty>
  2.1460

> <r_epik_Charging_Adjusted_Penalty>
2.14597

> <i_epik_Tot_Q>
0

> <i_epik_Tot_abs_Q>
0

> <s_lp_Force_Field>
OPLS_2005

> <r_lp_Energy>
34.3281

> <b_lp_Chiralities_Consistent>
1

> <s_lp_Variant>
BACE_12.smi:1-2

> <chiral flag>
1

> <version>
0

> <s_i_glide_gridfile>
second_dock_grid_2

> <i_i_glide_lignum>
21

> <i_i_glide_rotatable_bonds>
8

> <r_i_docking_score>
1.70455

> <r_i_glide_ligand_efficiency>
0.0448565

> <r_i_glide_ligand_efficiency_sa>
0.150806

> <r_i_glide_ligand_efficiency_ln>
0.36755

> <r_glide_XP_GScore>
-0.441454

> <r_i_glide_gscore>
-0.441454

> <r_i_glide_evdw>
-38.005

> <r_i_glide_ecoul>
-13.4419

> <r_i_glide_energy>
-51.4469

> <r_i_glide_einternal>
1.73071

> <r_i_glide_emodel>
-72.0884

> <r_glide_XP_HBond>
-1.53089

> <i_i_glide_confnum>
1

> <i_i_glide_posenum>
4

> <r_i_glide_eff_state_penalty>
2.146

> <i_glide_XP_PoseRank>
1

$$$$
BACE_13.smi:1
                    3D
 Structure written by MMmdl.
 77 80  0  0  1  0            999 V2000
   18.1767   38.1503   -6.1506 C   0  0  0  0  0  0
   17.9029   37.8696   -7.5112 O   0  0  0  0  0  0
   17.3565   38.9693   -8.2130 C   0  0  0  0  0  0
   15.8128   39.0848   -8.1113 C   0  0  1  0  0  0
   15.2678   40.0100   -7.0042 C   0  0  0  0  0  0
   15.6654   41.4142   -7.2401 N   0  3  0  0  0  0
   15.2954   41.9035   -8.5922 C   0  0  2  0  0  0
   15.6912   40.8824   -9.6846 C   0  0  0  0  0  0
   15.2822   39.5587   -9.3494 O   0  0  0  0  0  0
   15.8096   43.3422   -8.9094 C   0  0  1  0  0  0
   15.2671   44.3134   -8.0400 O   0  0  0  0  0  0
   17.3298   43.6291   -9.1105 C   0  0  2  0  0  0
   17.7106   43.6125  -10.6138 C   0  0  0  0  0  0
   19.1963   43.4735  -10.8799 C   0  0  0  0  0  0
   20.0838   44.5010  -10.4987 C   0  0  0  0  0  0
   21.4677   44.3352  -10.6787 C   0  0  0  0  0  0
   21.9629   43.1441  -11.2410 C   0  0  0  0  0  0
   21.0854   42.1160  -11.6400 C   0  0  0  0  0  0
   19.6935   42.2949  -11.4702 C   0  0  0  0  0  0
   21.6598   40.9940  -12.1896 O   0  0  0  0  0  0
   20.8921   39.8157  -12.4059 C   0  0  0  0  0  0
   20.4367   39.1524  -11.0931 C   0  0  0  0  0  0
   21.5415   39.0988  -10.0250 C   0  0  0  0  0  0
   21.0293   38.4783   -8.7212 C   0  0  0  0  0  0
   21.7385   38.9670   -7.5452 N   0  0  0  0  0  0
   21.3335   40.1470   -6.8944 C   0  0  0  0  0  0
   21.7927   40.3717   -5.5788 C   0  0  0  0  0  0
   21.4156   41.5320   -4.8705 C   0  0  0  0  0  0
   21.9057   41.7620   -3.4488 C   0  0  0  0  0  0
   20.9894   41.3065   -2.4586 O   0  0  0  0  0  0
   19.9646   42.2336   -2.1297 C   0  0  0  0  0  0
   20.5704   42.4756   -5.4852 C   0  0  0  0  0  0
   20.0582   42.2531   -6.7826 C   0  0  0  0  0  0
   20.4716   41.1007   -7.4933 C   0  0  0  0  0  0
   19.0713   43.2383   -7.3578 C   0  0  0  0  0  0
   19.0159   44.3888   -6.9206 O   0  0  0  0  0  0
   18.2316   42.7797   -8.3094 N   0  0  0  0  0  0
   15.4056   38.0836   -7.9641 H   0  0  0  0  0  0
   14.2055   41.9473   -8.5946 H   0  0  0  0  0  0
   15.3297   43.6057   -9.8536 H   0  0  0  0  0  0
   17.5058   44.6675   -8.8218 H   0  0  0  0  0  0
   18.4599   37.2325   -5.6406 H   0  0  0  0  0  0
   17.3086   38.5502   -5.6401 H   0  0  0  0  0  0
   18.9906   38.8659   -6.0442 H   0  0  0  0  0  0
   17.6097   38.7697   -9.2557 H   0  0  0  0  0  0
   17.8635   39.8994   -7.9546 H   0  0  0  0  0  0
   15.5840   39.7037   -6.0099 H   0  0  0  0  0  0
   14.1790   39.9516   -6.9886 H   0  0  0  0  0  0
   16.6606   41.4975   -7.0891 H   0  0  0  0  0  0
   16.7639   40.9011   -9.8744 H   0  0  0  0  0  0
   15.2162   41.1515  -10.6287 H   0  0  0  0  0  0
   15.5856   44.1563   -7.1545 H   0  0  0  0  0  0
   17.1968   42.7985  -11.1240 H   0  0  0  0  0  0
   17.3539   44.5249  -11.0940 H   0  0  0  0  0  0
   19.7074   45.4060  -10.0458 H   0  0  0  0  0  0
   22.1523   45.1148  -10.3772 H   0  0  0  0  0  0
   23.0283   43.0143  -11.3698 H   0  0  0  0  0  0
   18.9958   41.5319  -11.7755 H   0  0  0  0  0  0
   20.0519   40.0206  -13.0679 H   0  0  0  0  0  0
   21.5345   39.1211  -12.9477 H   0  0  0  0  0  0
   19.5876   39.6932  -10.6813 H   0  0  0  0  0  0
   20.0601   38.1504  -11.2999 H   0  0  0  0  0  0
   22.4059   38.5424  -10.3875 H   0  0  0  0  0  0
   21.9001   40.1100   -9.8303 H   0  0  0  0  0  0
   19.9710   38.6839   -8.5938 H   0  0  0  0  0  0
   21.1146   37.3934   -8.7986 H   0  0  0  0  0  0
   22.2816   38.2953   -7.0213 H   0  0  0  0  0  0
   22.4356   39.6462   -5.1010 H   0  0  0  0  0  0
   22.8362   41.2079   -3.3130 H   0  0  0  0  0  0
   22.1598   42.8129   -3.2957 H   0  0  0  0  0  0
   19.3001   41.7958   -1.3846 H   0  0  0  0  0  0
   19.3547   42.4958   -2.9927 H   0  0  0  0  0  0
   20.3840   43.1497   -1.7122 H   0  0  0  0  0  0
   20.2789   43.3576   -4.9338 H   0  0  0  0  0  0
   20.1119   40.9436   -8.4972 H   0  0  0  0  0  0
   18.3727   41.8306   -8.6201 H   0  0  0  0  0  0
   15.1999   41.9818   -6.5333 H   0  0  0  0  0  0
  1  2  1  0  0  0
  1 42  1  0  0  0
  1 43  1  0  0  0
  1 44  1  0  0  0
  2  3  1  0  0  0
  3  4  1  0  0  0
  3 45  1  0  0  0
  3 46  1  0  0  0
  4 38  1  0  0  0
  4  9  1  0  0  0
  4  5  1  0  0  0
  5  6  1  0  0  0
  5 47  1  0  0  0
  5 48  1  0  0  0
  6  7  1  0  0  0
  6 49  1  0  0  0
  6 77  1  0  0  0
  7 39  1  0  0  0
  7  8  1  0  0  0
  7 10  1  0  0  0
  8  9  1  0  0  0
  8 50  1  0  0  0
  8 51  1  0  0  0
 10 40  1  0  0  0
 10 11  1  0  0  0
 10 12  1  0  0  0
 11 52  1  0  0  0
 12 41  1  0  0  0
 12 37  1  0  0  0
 12 13  1  0  0  0
 13 14  1  0  0  0
 13 53  1  0  0  0
 13 54  1  0  0  0
 14 19  1  0  0  0
 14 15  2  0  0  0
 15 16  1  0  0  0
 15 55  1  0  0  0
 16 17  2  0  0  0
 16 56  1  0  0  0
 17 18  1  0  0  0
 17 57  1  0  0  0
 18 19  2  0  0  0
 18 20  1  0  0  0
 19 58  1  0  0  0
 20 21  1  0  0  0
 21 22  1  0  0  0
 21 59  1  0  0  0
 21 60  1  0  0  0
 22 23  1  0  0  0
 22 61  1  0  0  0
 22 62  1  0  0  0
 23 24  1  0  0  0
 23 63  1  0  0  0
 23 64  1  0  0  0
 24 25  1  0  0  0
 24 65  1  0  0  0
 24 66  1  0  0  0
 25 26  1  0  0  0
 25 67  1  0  0  0
 26 34  1  0  0  0
 26 27  2  0  0  0
 27 28  1  0  0  0
 27 68  1  0  0  0
 28 29  1  0  0  0
 28 32  2  0  0  0
 29 30  1  0  0  0
 29 69  1  0  0  0
 29 70  1  0  0  0
 30 31  1  0  0  0
 31 71  1  0  0  0
 31 72  1  0  0  0
 31 73  1  0  0  0
 32 33  1  0  0  0
 32 74  1  0  0  0
 33 34  2  0  0  0
 33 35  1  0  0  0
 34 75  1  0  0  0
 35 36  2  0  0  0
 35 37  1  0  0  0
 37 76  1  0  0  0
M  CHG  1   6   1
M  END
> <s_m_source_file>
BACE_13.smi

> <i_m_source_file_index>
1

> <i_lp_mmshare_version>
42013

> <i_f3d_flags>
0

> <s_epik_input>
W0NIM11PW0NIMl1bQ0BIXTFbQ0gyXVtOSF1bQ0BIXShbQ0gyXU8xKVtDQEBIXShbT0hdKVtDQEhdKFtDSDJdMilbTkhdQyg9TyljKFtjSF0zKVtjSF1jKFtDSDJdT1tDSDNdKVtjSF1jM1tOSF1bQ0gyXVtDSDJdW0NIMl1bQ0gyXU9jKFtjSF00KVtjSF1bY0hdW2NIXWMyNA==

> <s_epik_cmdline>
J2VwaWtfcHl0aG9uJywgJy1waCcsICc3LjAnLCAnLXRuJywgJzgnLCAnLW1hJywgJzIwMCcsICctaW1hZScsICc8aW5maWxlLm1hZT4nLCAnLW9tYWUnLCAnPG91dGZpbGUubWFlPic=

> <r_lp_tautomer_probability>
1

> <r_epik_Ionization_Penalty>
  0.1160

> <r_epik_Ionization_Penalty_Charging>
  0.1157

> <r_epik_Ionization_Penalty_Neutral>
  0.0003

> <r_epik_State_Penalty>
  0.1053

> <r_epik_Charging_Adjusted_Penalty>
0.221036

> <i_epik_Tot_Q>
1

> <i_epik_Tot_abs_Q>
1

> <s_lp_Force_Field>
OPLS_2005

> <r_lp_Energy>
46.0312

> <b_lp_Chiralities_Consistent>
1

> <s_lp_Variant>
BACE_13.smi:1-1

> <chiral flag>
1

> <version>
0

> <s_i_glide_gridfile>
second_dock_grid_2

> <i_i_glide_lignum>
22

> <i_i_glide_rotatable_bonds>
7

> <r_i_docking_score>
-6.17577

> <r_i_glide_ligand_efficiency>
-0.166913

> <r_i_glide_ligand_efficiency_sa>
-0.556191

> <r_i_glide_ligand_efficiency_ln>
-1.33938

> <r_glide_XP_GScore>
-6.28107

> <r_i_glide_gscore>
-6.28107

> <r_i_glide_evdw>
-42.4713

> <r_i_glide_ecoul>
-11.702

> <r_i_glide_energy>
-54.1733

> <r_i_glide_einternal>
6.55092

> <r_i_glide_emodel>
-64.004

> <r_glide_XP_HBond>
-1.32077

> <i_i_glide_confnum>
1

> <i_i_glide_posenum>
17

> <r_i_glide_eff_state_penalty>
0.1053

> <i_glide_XP_PoseRank>
1

$$$$
BACE_13.smi:1
                    3D
 Structure written by MMmdl.
 76 79  0  0  1  0            999 V2000
   30.8066   43.8241   -9.9804 C   0  0  0  0  0  0
   30.1890   42.5490  -10.0387 O   0  0  0  0  0  0
   29.2394   42.3948  -11.0881 C   0  0  0  0  0  0
   27.9740   43.2660  -10.9293 C   0  0  1  0  0  0
   26.9381   42.9152  -12.0236 C   0  0  0  0  0  0
   25.6444   43.5635  -11.7785 N   0  0  0  0  0  0
   25.1335   43.3012  -10.4244 C   0  0  2  0  0  0
   26.2134   43.6874   -9.3848 C   0  0  0  0  0  0
   27.4346   42.9962   -9.6393 O   0  0  0  0  0  0
   24.5589   41.8585  -10.2880 C   0  0  1  0  0  0
   25.6105   40.9500  -10.0409 O   0  0  0  0  0  0
   23.4747   41.6817   -9.1879 C   0  0  2  0  0  0
   23.1870   40.1806   -8.9104 C   0  0  0  0  0  0
   21.9736   39.8818   -8.0448 C   0  0  0  0  0  0
   21.9973   40.2049   -6.6748 C   0  0  0  0  0  0
   20.8729   39.9447   -5.8737 C   0  0  0  0  0  0
   19.7287   39.3496   -6.4351 C   0  0  0  0  0  0
   19.6839   39.0187   -7.8106 C   0  0  0  0  0  0
   20.8197   39.2877   -8.6034 C   0  0  0  0  0  0
   18.5962   38.4453   -8.4390 O   0  0  0  0  0  0
   17.4145   38.1634   -7.6856 C   0  0  0  0  0  0
   16.5769   39.4249   -7.4091 C   0  0  0  0  0  0
   16.0390   40.0883   -8.6873 C   0  0  0  0  0  0
   15.4898   41.5043   -8.4360 C   0  0  0  0  0  0
   16.5327   42.4446   -8.0324 N   0  0  0  0  0  0
   17.5792   42.7281   -8.9166 C   0  0  0  0  0  0
   17.3326   42.9429  -10.2855 C   0  0  0  0  0  0
   18.3887   43.2443  -11.1653 C   0  0  0  0  0  0
   18.1010   43.5008  -12.6292 C   0  0  0  0  0  0
   16.8043   44.0324  -12.8413 O   0  0  0  0  0  0
   16.6915   45.4040  -12.4886 C   0  0  0  0  0  0
   19.7115   43.2840  -10.6855 C   0  0  0  0  0  0
   19.9777   43.0390   -9.3203 C   0  0  0  0  0  0
   18.9035   42.7935   -8.4338 C   0  0  0  0  0  0
   21.3879   43.0010   -8.8161 C   0  0  0  0  0  0
   21.6867   43.4450   -7.7087 O   0  0  0  0  0  0
   22.2258   42.3143   -9.6095 N   0  0  0  0  0  0
   28.2293   44.3243  -10.9985 H   0  0  0  0  0  0
   24.2907   43.9745  -10.2683 H   0  0  0  0  0  0
   24.1127   41.5718  -11.2392 H   0  0  0  0  0  0
   23.8312   42.1353   -8.2598 H   0  0  0  0  0  0
   31.5995   43.8074   -9.2339 H   0  0  0  0  0  0
   30.0961   44.5987   -9.6841 H   0  0  0  0  0  0
   31.2532   44.0997  -10.9387 H   0  0  0  0  0  0
   28.9480   41.3459  -11.0943 H   0  0  0  0  0  0
   29.7174   42.5836  -12.0505 H   0  0  0  0  0  0
   26.8094   41.8339  -12.0726 H   0  0  0  0  0  0
   27.3207   43.2119  -12.9998 H   0  0  0  0  0  0
   24.9757   43.2085  -12.4547 H   0  0  0  0  0  0
   25.8736   43.4497   -8.3765 H   0  0  0  0  0  0
   26.3953   44.7621   -9.4068 H   0  0  0  0  0  0
   25.2709   40.0607  -10.0402 H   0  0  0  0  0  0
   23.0463   39.6762   -9.8655 H   0  0  0  0  0  0
   24.0519   39.7224   -8.4338 H   0  0  0  0  0  0
   22.8672   40.6676   -6.2368 H   0  0  0  0  0  0
   20.8857   40.1992   -4.8240 H   0  0  0  0  0  0
   18.8935   39.1692   -5.7779 H   0  0  0  0  0  0
   20.7939   39.0397   -9.6549 H   0  0  0  0  0  0
   16.8153   37.4539   -8.2581 H   0  0  0  0  0  0
   17.6604   37.6547   -6.7559 H   0  0  0  0  0  0
   15.7380   39.1608   -6.7622 H   0  0  0  0  0  0
   17.1644   40.1419   -6.8404 H   0  0  0  0  0  0
   16.8179   40.1232   -9.4485 H   0  0  0  0  0  0
   15.2448   39.4644   -9.0971 H   0  0  0  0  0  0
   14.9668   41.8742   -9.3165 H   0  0  0  0  0  0
   14.7451   41.4665   -7.6396 H   0  0  0  0  0  0
   16.7751   42.3724   -7.0502 H   0  0  0  0  0  0
   16.3238   42.9001  -10.6648 H   0  0  0  0  0  0
   18.8579   44.1585  -13.0590 H   0  0  0  0  0  0
   18.1754   42.5505  -13.1580 H   0  0  0  0  0  0
   15.6796   45.7497  -12.6920 H   0  0  0  0  0  0
   17.3752   46.0199  -13.0741 H   0  0  0  0  0  0
   16.8945   45.5686  -11.4307 H   0  0  0  0  0  0
   20.5190   43.4957  -11.3719 H   0  0  0  0  0  0
   19.1009   42.6048   -7.3878 H   0  0  0  0  0  0
   21.8457   41.9949  -10.4876 H   0  0  0  0  0  0
  1  2  1  0  0  0
  1 42  1  0  0  0
  1 43  1  0  0  0
  1 44  1  0  0  0
  2  3  1  0  0  0
  3  4  1  0  0  0
  3 45  1  0  0  0
  3 46  1  0  0  0
  4 38  1  0  0  0
  4  9  1  0  0  0
  4  5  1  0  0  0
  5  6  1  0  0  0
  5 47  1  0  0  0
  5 48  1  0  0  0
  6  7  1  0  0  0
  6 49  1  0  0  0
  7 39  1  0  0  0
  7  8  1  0  0  0
  7 10  1  0  0  0
  8  9  1  0  0  0
  8 50  1  0  0  0
  8 51  1  0  0  0
 10 40  1  0  0  0
 10 11  1  0  0  0
 10 12  1  0  0  0
 11 52  1  0  0  0
 12 41  1  0  0  0
 12 37  1  0  0  0
 12 13  1  0  0  0
 13 14  1  0  0  0
 13 53  1  0  0  0
 13 54  1  0  0  0
 14 19  1  0  0  0
 14 15  2  0  0  0
 15 16  1  0  0  0
 15 55  1  0  0  0
 16 17  2  0  0  0
 16 56  1  0  0  0
 17 18  1  0  0  0
 17 57  1  0  0  0
 18 19  2  0  0  0
 18 20  1  0  0  0
 19 58  1  0  0  0
 20 21  1  0  0  0
 21 22  1  0  0  0
 21 59  1  0  0  0
 21 60  1  0  0  0
 22 23  1  0  0  0
 22 61  1  0  0  0
 22 62  1  0  0  0
 23 24  1  0  0  0
 23 63  1  0  0  0
 23 64  1  0  0  0
 24 25  1  0  0  0
 24 65  1  0  0  0
 24 66  1  0  0  0
 25 26  1  0  0  0
 25 67  1  0  0  0
 26 34  1  0  0  0
 26 27  2  0  0  0
 27 28  1  0  0  0
 27 68  1  0  0  0
 28 29  1  0  0  0
 28 32  2  0  0  0
 29 30  1  0  0  0
 29 69  1  0  0  0
 29 70  1  0  0  0
 30 31  1  0  0  0
 31 71  1  0  0  0
 31 72  1  0  0  0
 31 73  1  0  0  0
 32 33  1  0  0  0
 32 74  1  0  0  0
 33 34  2  0  0  0
 33 35  1  0  0  0
 34 75  1  0  0  0
 35 36  2  0  0  0
 35 37  1  0  0  0
 37 76  1  0  0  0
M  END
> <s_m_source_file>
BACE_13.smi

> <i_m_source_file_index>
1

> <i_lp_mmshare_version>
42013

> <i_f3d_flags>
0

> <s_epik_input>
W0NIM11PW0NIMl1bQ0BIXTFbQ0gyXVtOSF1bQ0BIXShbQ0gyXU8xKVtDQEBIXShbT0hdKVtDQEhdKFtDSDJdMilbTkhdQyg9TyljKFtjSF0zKVtjSF1jKFtDSDJdT1tDSDNdKVtjSF1jM1tOSF1bQ0gyXVtDSDJdW0NIMl1bQ0gyXU9jKFtjSF00KVtjSF1bY0hdW2NIXWMyNA==

> <s_epik_cmdline>
J2VwaWtfcHl0aG9uJywgJy1waCcsICc3LjAnLCAnLXRuJywgJzgnLCAnLW1hJywgJzIwMCcsICctaW1hZScsICc8aW5maWxlLm1hZT4nLCAnLW9tYWUnLCAnPG91dGZpbGUubWFlPic=

> <r_lp_tautomer_probability>
1

> <r_epik_Ionization_Penalty>
  1.0250

> <r_epik_Ionization_Penalty_Charging>
  0.0000

> <r_epik_Ionization_Penalty_Neutral>
  1.0250

> <r_epik_State_Penalty>
  1.0752

> <r_epik_Charging_Adjusted_Penalty>
1.07522

> <i_epik_Tot_Q>
0

> <i_epik_Tot_abs_Q>
0

> <s_lp_Force_Field>
OPLS_2005

> <r_lp_Energy>
47.6035

> <b_lp_Chiralities_Consistent>
1

> <s_lp_Variant>
BACE_13.smi:1-2

> <chiral flag>
1

> <version>
0

> <s_i_glide_gridfile>
second_dock_grid_2

> <i_i_glide_lignum>
23

> <i_i_glide_rotatable_bonds>
7

> <r_i_docking_score>
-3.81372

> <r_i_glide_ligand_efficiency>
-0.103073

> <r_i_glide_ligand_efficiency_sa>
-0.343463

> <r_i_glide_ligand_efficiency_ln>
-0.827105

> <r_glide_XP_GScore>
-4.88892

> <r_i_glide_gscore>
-4.88892

> <r_i_glide_evdw>
-38.0577

> <r_i_glide_ecoul>
-11.1677

> <r_i_glide_energy>
-49.2254

> <r_i_glide_einternal>
0

> <r_i_glide_emodel>
-63.629

> <r_glide_XP_HBond>
-1.93222

> <i_i_glide_confnum>
1

> <i_i_glide_posenum>
1

> <r_i_glide_eff_state_penalty>
1.0752

> <i_glide_XP_PoseRank>
1

$$$$
BACE_14.smi:1
                    3D
 Structure written by MMmdl.
 85 89  0  0  1  0            999 V2000
   28.0462   46.1696   -8.3625 C   0  0  0  0  0  0
   28.0611   44.6872   -7.9643 C   0  0  0  0  0  0
   27.2633   44.4390   -6.6731 C   0  0  0  0  0  0
   27.5760   43.8092   -9.1106 C   0  0  0  0  0  0
   26.2213   43.8235   -9.5017 C   0  0  0  0  0  0
   25.7618   43.0049  -10.5541 C   0  0  0  0  0  0
   26.6798   42.1657  -11.2189 C   0  0  0  0  0  0
   28.0351   42.1500  -10.8425 C   0  0  0  0  0  0
   28.4847   42.9702   -9.7932 C   0  0  0  0  0  0
   24.3105   42.9995  -10.9411 C   0  0  0  0  0  0
   23.5478   44.2919  -11.1339 C   0  0  0  0  0  0
   23.9233   43.4458  -12.3306 C   0  0  0  0  0  0
   23.6007   41.8506  -10.3888 N   0  0  0  0  0  0
   23.3334   41.9388   -8.9517 C   0  0  0  0  0  0
   22.5632   40.6930   -8.4633 C   0  0  1  0  0  0
   23.5359   39.7504   -8.0402 O   0  0  0  0  0  0
   21.5988   40.9466   -7.2725 C   0  0  2  0  0  0
   20.8333   39.6787   -6.8213 C   0  0  0  0  0  0
   19.7933   39.1743   -7.8118 C   0  0  0  0  0  0
   18.4307   39.4964   -7.6437 C   0  0  0  0  0  0
   17.4501   39.0311   -8.5391 C   0  0  0  0  0  0
   17.8553   38.2378   -9.6401 C   0  0  0  0  0  0
   19.2139   37.9314   -9.8283 C   0  0  0  0  0  0
   20.1786   38.3747   -8.9076 C   0  0  0  0  0  0
   16.1437   39.3877   -8.2823 O   0  0  0  0  0  0
   15.2162   39.4521   -9.3604 C   0  0  0  0  0  0
   15.5887   40.5885  -10.3332 C   0  0  0  0  0  0
   15.6493   41.9655   -9.6481 C   0  0  0  0  0  0
   16.4118   43.0043  -10.4866 C   0  0  0  0  0  0
   16.4962   44.3045   -9.8342 N   0  0  0  0  0  0
   17.4186   44.5806   -8.8089 C   0  0  0  0  0  0
   17.4089   45.8756   -8.2511 C   0  0  0  0  0  0
   18.2859   46.2176   -7.1968 C   0  0  0  0  0  0
   19.1802   45.2426   -6.7022 C   0  0  0  0  0  0
   19.2282   43.9509   -7.2683 C   0  0  0  0  0  0
   18.3310   43.6222   -8.3126 C   0  0  0  0  0  0
   20.1914   42.9343   -6.7205 C   0  0  0  0  0  0
   20.5716   43.0050   -5.5497 O   0  0  0  0  0  0
   20.6466   42.0153   -7.5892 N   0  0  0  0  0  0
   18.2264   47.5540   -6.5495 C   0  0  0  0  0  0
   17.8562   48.7450   -7.4270 C   0  0  0  0  0  0
   18.4563   47.7403   -5.3567 O   0  0  0  0  0  0
   21.9992   40.2759   -9.2979 H   0  0  0  0  0  0
   22.2233   41.2669   -6.4336 H   0  0  0  0  0  0
   28.4276   46.7973   -7.5568 H   0  0  0  0  0  0
   27.0381   46.5088   -8.5999 H   0  0  0  0  0  0
   28.6695   46.3417   -9.2403 H   0  0  0  0  0  0
   29.0965   44.4179   -7.7568 H   0  0  0  0  0  0
   27.6895   44.9961   -5.8389 H   0  0  0  0  0  0
   27.2696   43.3831   -6.4038 H   0  0  0  0  0  0
   26.2227   44.7470   -6.7723 H   0  0  0  0  0  0
   25.5211   44.4637   -8.9870 H   0  0  0  0  0  0
   26.3423   41.5304  -12.0253 H   0  0  0  0  0  0
   28.7297   41.4997  -11.3574 H   0  0  0  0  0  0
   29.5244   42.9468   -9.5039 H   0  0  0  0  0  0
   22.4921   44.3159  -10.8677 H   0  0  0  0  0  0
   24.0815   45.2319  -11.0040 H   0  0  0  0  0  0
   24.7116   43.8213  -12.9799 H   0  0  0  0  0  0
   23.1159   42.9191  -12.8360 H   0  0  0  0  0  0
   24.1533   41.0166  -10.5721 H   0  0  0  0  0  0
   22.7474   42.8387   -8.7643 H   0  0  0  0  0  0
   24.2558   42.0640   -8.3836 H   0  0  0  0  0  0
   23.9951   39.4022   -8.7968 H   0  0  0  0  0  0
   21.5307   38.8668   -6.6031 H   0  0  0  0  0  0
   20.3318   39.8842   -5.8740 H   0  0  0  0  0  0
   18.1232   40.1287   -6.8276 H   0  0  0  0  0  0
   17.1425   37.8613  -10.3554 H   0  0  0  0  0  0
   19.5155   37.3533  -10.6859 H   0  0  0  0  0  0
   21.2155   38.1066   -9.0522 H   0  0  0  0  0  0
   15.1269   38.4944   -9.8736 H   0  0  0  0  0  0
   14.2319   39.6481   -8.9350 H   0  0  0  0  0  0
   16.5509   40.3693  -10.7956 H   0  0  0  0  0  0
   14.8667   40.6180  -11.1480 H   0  0  0  0  0  0
   14.6355   42.3125   -9.4400 H   0  0  0  0  0  0
   16.1344   41.8680   -8.6763 H   0  0  0  0  0  0
   17.4140   42.6445  -10.7231 H   0  0  0  0  0  0
   15.9064   43.1378  -11.4426 H   0  0  0  0  0  0
   15.8535   45.0258  -10.1281 H   0  0  0  0  0  0
   16.6996   46.5966   -8.6260 H   0  0  0  0  0  0
   19.8425   45.4909   -5.8816 H   0  0  0  0  0  0
   18.3461   42.6239   -8.7223 H   0  0  0  0  0  0
   20.2800   42.0283   -8.5272 H   0  0  0  0  0  0
   16.8271   48.6725   -7.7722 H   0  0  0  0  0  0
   18.5085   48.7866   -8.2998 H   0  0  0  0  0  0
   17.9649   49.6738   -6.8645 H   0  0  0  0  0  0
  1  2  1  0  0  0
  1 45  1  0  0  0
  1 46  1  0  0  0
  1 47  1  0  0  0
  2  3  1  0  0  0
  2  4  1  0  0  0
  2 48  1  0  0  0
  3 49  1  0  0  0
  3 50  1  0  0  0
  3 51  1  0  0  0
  4  9  1  0  0  0
  4  5  2  0  0  0
  5  6  1  0  0  0
  5 52  1  0  0  0
  6  7  2  0  0  0
  6 10  1  0  0  0
  7  8  1  0  0  0
  7 53  1  0  0  0
  8  9  2  0  0  0
  8 54  1  0  0  0
  9 55  1  0  0  0
 10 12  1  0  0  0
 10 11  1  0  0  0
 10 13  1  0  0  0
 11 12  1  0  0  0
 11 56  1  0  0  0
 11 57  1  0  0  0
 12 58  1  0  0  0
 12 59  1  0  0  0
 13 14  1  0  0  0
 13 60  1  0  0  0
 14 15  1  0  0  0
 14 61  1  0  0  0
 14 62  1  0  0  0
 15 43  1  0  0  0
 15 16  1  0  0  0
 15 17  1  0  0  0
 16 63  1  0  0  0
 17 44  1  0  0  0
 17 39  1  0  0  0
 17 18  1  0  0  0
 18 19  1  0  0  0
 18 64  1  0  0  0
 18 65  1  0  0  0
 19 24  1  0  0  0
 19 20  2  0  0  0
 20 21  1  0  0  0
 20 66  1  0  0  0
 21 22  2  0  0  0
 21 25  1  0  0  0
 22 23  1  0  0  0
 22 67  1  0  0  0
 23 24  2  0  0  0
 23 68  1  0  0  0
 24 69  1  0  0  0
 25 26  1  0  0  0
 26 27  1  0  0  0
 26 70  1  0  0  0
 26 71  1  0  0  0
 27 28  1  0  0  0
 27 72  1  0  0  0
 27 73  1  0  0  0
 28 29  1  0  0  0
 28 74  1  0  0  0
 28 75  1  0  0  0
 29 30  1  0  0  0
 29 76  1  0  0  0
 29 77  1  0  0  0
 30 31  1  0  0  0
 30 78  1  0  0  0
 31 36  1  0  0  0
 31 32  2  0  0  0
 32 33  1  0  0  0
 32 79  1  0  0  0
 33 34  2  0  0  0
 33 40  1  0  0  0
 34 35  1  0  0  0
 34 80  1  0  0  0
 35 36  2  0  0  0
 35 37  1  0  0  0
 36 81  1  0  0  0
 37 38  2  0  0  0
 37 39  1  0  0  0
 39 82  1  0  0  0
 40 41  1  0  0  0
 40 42  2  0  0  0
 41 83  1  0  0  0
 41 84  1  0  0  0
 41 85  1  0  0  0
M  END
> <s_m_source_file>
BACE_14.smi

> <i_m_source_file_index>
1

> <i_lp_mmshare_version>
42013

> <i_f3d_flags>
0

> <s_epik_input>
W0NIM11bQ0hdKFtDSDNdKWMxW2NIXWMoW2NIXVtjSF1bY0hdMSlDMihbQ0gyXVtDSDJdMilbTkhdW0NIMl1bQ0BASF0oW09IXSlbQ0BIXShbQ0gyXTMpW05IXUMoPU8pYyhbY0hdNClbY0hdYyhDKD1PKVtDSDNdKVtjSF1jNFtOSF1bQ0gyXVtDSDJdW0NIMl1bQ0gyXU9jKFtjSF1jMzUpW2NIXVtjSF1bY0hdNQ==

> <s_epik_cmdline>
J2VwaWtfcHl0aG9uJywgJy1waCcsICc3LjAnLCAnLXRuJywgJzgnLCAnLW1hJywgJzIwMCcsICctaW1hZScsICc8aW5maWxlLm1hZT4nLCAnLW9tYWUnLCAnPG91dGZpbGUubWFlPic=

> <r_lp_tautomer_probability>
0.99995

> <r_epik_Ionization_Penalty>
  0.3230

> <r_epik_Ionization_Penalty_Charging>
  0.0000

> <r_epik_Ionization_Penalty_Neutral>
  0.3230

> <r_epik_State_Penalty>
  0.3176

> <r_epik_Charging_Adjusted_Penalty>
0.317604

> <i_epik_Tot_Q>
0

> <i_epik_Tot_abs_Q>
0

> <s_lp_Force_Field>
OPLS_2005

> <r_lp_Energy>
49.9675

> <b_lp_Chiralities_Consistent>
1

> <s_lp_Variant>
BACE_14.smi:1-1

> <chiral flag>
1

> <version>
0

> <s_i_glide_gridfile>
second_dock_grid_2

> <i_i_glide_lignum>
24

> <i_i_glide_rotatable_bonds>
8

> <r_i_docking_score>
-3.08991

> <r_i_glide_ligand_efficiency>
-0.0735694

> <r_i_glide_ligand_efficiency_sa>
-0.255729

> <r_i_glide_ligand_efficiency_ln>
-0.652201

> <r_glide_XP_GScore>
-3.40751

> <r_i_glide_gscore>
-3.40751

> <r_i_glide_evdw>
-46.0942

> <r_i_glide_ecoul>
-5.96164

> <r_i_glide_energy>
-52.0559

> <r_i_glide_einternal>
7.9023

> <r_i_glide_emodel>
-71.6688

> <r_glide_XP_HBond>
-1.34839

> <i_i_glide_confnum>
1

> <i_i_glide_posenum>
3

> <r_i_glide_eff_state_penalty>
0.3176

> <i_glide_XP_PoseRank>
1

$$$$
BACE_14.smi:1
                    3D
 Structure written by MMmdl.
 86 90  0  0  1  0            999 V2000
   21.6479   39.2445   -6.4468 C   0  0  0  0  0  0
   20.9120   40.1145   -7.4702 C   0  0  0  0  0  0
   21.8735   40.6539   -8.5432 C   0  0  0  0  0  0
   19.7224   39.3742   -8.0722 C   0  0  0  0  0  0
   18.4113   39.6770   -7.6427 C   0  0  0  0  0  0
   17.2758   39.0616   -8.2345 C   0  0  0  0  0  0
   17.5032   38.0814   -9.2252 C   0  0  0  0  0  0
   18.8047   37.7495   -9.6394 C   0  0  0  0  0  0
   19.9135   38.4005   -9.0734 C   0  0  0  0  0  0
   15.8470   39.4459   -7.8680 C   0  0  0  0  0  0
   14.8636   38.3632   -7.5270 C   0  0  0  0  0  0
   14.6505   39.1856   -8.7718 C   0  0  0  0  0  0
   15.6769   40.6424   -7.0020 N   0  3  0  0  0  0
   15.8210   41.9987   -7.6079 C   0  0  0  0  0  0
   16.4699   42.1166   -9.0216 C   0  0  1  0  0  0
   15.4347   42.0378   -9.9880 O   0  0  0  0  0  0
   17.2594   43.4283   -9.2556 C   0  0  2  0  0  0
   17.9221   43.4402  -10.6616 C   0  0  0  0  0  0
   19.0570   44.4369  -10.8428 C   0  0  0  0  0  0
   20.3903   44.0520  -10.5832 C   0  0  0  0  0  0
   21.4518   44.9671  -10.7183 C   0  0  0  0  0  0
   21.1603   46.2889  -11.1442 C   0  0  0  0  0  0
   19.8329   46.6728  -11.4186 C   0  0  0  0  0  0
   18.7814   45.7516  -11.2655 C   0  0  0  0  0  0
   22.7160   44.4996  -10.4180 O   0  0  0  0  0  0
   23.8312   45.3820  -10.4867 C   0  0  0  0  0  0
   23.9103   46.2872   -9.2417 C   0  0  0  0  0  0
   24.2996   45.5142   -7.9675 C   0  0  0  0  0  0
   24.2058   46.3630   -6.6836 C   0  0  0  0  0  0
   22.8376   46.7685   -6.3680 N   0  0  0  0  0  0
   21.9097   45.7411   -6.1435 C   0  0  0  0  0  0
   22.2025   44.6577   -5.2878 C   0  0  0  0  0  0
   21.2772   43.6025   -5.1213 C   0  0  0  0  0  0
   20.0622   43.6351   -5.8453 C   0  0  0  0  0  0
   19.7669   44.7089   -6.7092 C   0  0  0  0  0  0
   20.6807   45.7762   -6.8293 C   0  0  0  0  0  0
   18.5073   44.7253   -7.5180 C   0  0  0  0  0  0
   17.8135   45.7399   -7.5881 O   0  0  0  0  0  0
   18.2765   43.5996   -8.2116 N   0  0  0  0  0  0
   21.5740   42.4551   -4.2170 C   0  0  0  0  0  0
   22.8308   42.5301   -3.3558 C   0  0  0  0  0  0
   20.8599   41.4577   -4.1240 O   0  0  0  0  0  0
   17.1689   41.3158   -9.2283 H   0  0  0  0  0  0
   16.5628   44.2673   -9.2035 H   0  0  0  0  0  0
   22.4788   39.7904   -5.9987 H   0  0  0  0  0  0
   22.0438   38.3379   -6.9067 H   0  0  0  0  0  0
   20.9744   38.9521   -5.6430 H   0  0  0  0  0  0
   20.5220   40.9830   -6.9404 H   0  0  0  0  0  0
   22.6332   41.2933   -8.0915 H   0  0  0  0  0  0
   21.3425   41.2469   -9.2869 H   0  0  0  0  0  0
   22.3924   39.8480   -9.0648 H   0  0  0  0  0  0
   18.2922   40.4210   -6.8704 H   0  0  0  0  0  0
   16.6813   37.5631   -9.6909 H   0  0  0  0  0  0
   18.9408   37.0010  -10.4075 H   0  0  0  0  0  0
   20.9066   38.1382   -9.4099 H   0  0  0  0  0  0
   15.2550   37.3552   -7.6401 H   0  0  0  0  0  0
   14.1740   38.5212   -6.6979 H   0  0  0  0  0  0
   13.8015   39.8610   -8.7442 H   0  0  0  0  0  0
   14.8013   38.6882   -9.7251 H   0  0  0  0  0  0
   16.3669   40.5712   -6.2647 H   0  0  0  0  0  0
   16.4156   42.5461   -6.8751 H   0  0  0  0  0  0
   14.8424   42.4791   -7.6324 H   0  0  0  0  0  0
   15.0048   41.1975   -9.9109 H   0  0  0  0  0  0
   18.3244   42.4541  -10.8874 H   0  0  0  0  0  0
   17.1659   43.6259  -11.4234 H   0  0  0  0  0  0
   20.6041   43.0457  -10.2545 H   0  0  0  0  0  0
   21.9339   47.0306  -11.2677 H   0  0  0  0  0  0
   19.6218   47.6801  -11.7416 H   0  0  0  0  0  0
   17.7643   46.0591  -11.4641 H   0  0  0  0  0  0
   24.7339   44.7734  -10.5447 H   0  0  0  0  0  0
   23.8195   45.9641  -11.4075 H   0  0  0  0  0  0
   24.6477   47.0730   -9.4151 H   0  0  0  0  0  0
   22.9582   46.7940   -9.0959 H   0  0  0  0  0  0
   23.6839   44.6198   -7.8750 H   0  0  0  0  0  0
   25.3234   45.1530   -8.0774 H   0  0  0  0  0  0
   24.6379   45.8195   -5.8447 H   0  0  0  0  0  0
   24.8111   47.2627   -6.7956 H   0  0  0  0  0  0
   22.5024   47.5210   -6.9516 H   0  0  0  0  0  0
   23.1449   44.6488   -4.7608 H   0  0  0  0  0  0
   19.3519   42.8261   -5.7392 H   0  0  0  0  0  0
   20.4580   46.5943   -7.4989 H   0  0  0  0  0  0
   18.9425   42.8483   -8.1019 H   0  0  0  0  0  0
   22.8351   43.4432   -2.7592 H   0  0  0  0  0  0
   23.7240   42.5073   -3.9796 H   0  0  0  0  0  0
   22.8589   41.6788   -2.6775 H   0  0  0  0  0  0
   14.7744   40.6023   -6.5407 H   0  0  0  0  0  0
  1  2  1  0  0  0
  1 45  1  0  0  0
  1 46  1  0  0  0
  1 47  1  0  0  0
  2  3  1  0  0  0
  2  4  1  0  0  0
  2 48  1  0  0  0
  3 49  1  0  0  0
  3 50  1  0  0  0
  3 51  1  0  0  0
  4  9  1  0  0  0
  4  5  2  0  0  0
  5  6  1  0  0  0
  5 52  1  0  0  0
  6  7  2  0  0  0
  6 10  1  0  0  0
  7  8  1  0  0  0
  7 53  1  0  0  0
  8  9  2  0  0  0
  8 54  1  0  0  0
  9 55  1  0  0  0
 10 12  1  0  0  0
 10 11  1  0  0  0
 10 13  1  0  0  0
 11 12  1  0  0  0
 11 56  1  0  0  0
 11 57  1  0  0  0
 12 58  1  0  0  0
 12 59  1  0  0  0
 13 14  1  0  0  0
 13 60  1  0  0  0
 13 86  1  0  0  0
 14 15  1  0  0  0
 14 61  1  0  0  0
 14 62  1  0  0  0
 15 43  1  0  0  0
 15 16  1  0  0  0
 15 17  1  0  0  0
 16 63  1  0  0  0
 17 44  1  0  0  0
 17 39  1  0  0  0
 17 18  1  0  0  0
 18 19  1  0  0  0
 18 64  1  0  0  0
 18 65  1  0  0  0
 19 24  1  0  0  0
 19 20  2  0  0  0
 20 21  1  0  0  0
 20 66  1  0  0  0
 21 22  2  0  0  0
 21 25  1  0  0  0
 22 23  1  0  0  0
 22 67  1  0  0  0
 23 24  2  0  0  0
 23 68  1  0  0  0
 24 69  1  0  0  0
 25 26  1  0  0  0
 26 27  1  0  0  0
 26 70  1  0  0  0
 26 71  1  0  0  0
 27 28  1  0  0  0
 27 72  1  0  0  0
 27 73  1  0  0  0
 28 29  1  0  0  0
 28 74  1  0  0  0
 28 75  1  0  0  0
 29 30  1  0  0  0
 29 76  1  0  0  0
 29 77  1  0  0  0
 30 31  1  0  0  0
 30 78  1  0  0  0
 31 36  1  0  0  0
 31 32  2  0  0  0
 32 33  1  0  0  0
 32 79  1  0  0  0
 33 34  2  0  0  0
 33 40  1  0  0  0
 34 35  1  0  0  0
 34 80  1  0  0  0
 35 36  2  0  0  0
 35 37  1  0  0  0
 36 81  1  0  0  0
 37 38  2  0  0  0
 37 39  1  0  0  0
 39 82  1  0  0  0
 40 41  1  0  0  0
 40 42  2  0  0  0
 41 83  1  0  0  0
 41 84  1  0  0  0
 41 85  1  0  0  0
M  CHG  1  13   1
M  END
> <s_m_source_file>
BACE_14.smi

> <i_m_source_file_index>
1

> <i_lp_mmshare_version>
42013

> <i_f3d_flags>
0

> <s_epik_input>
W0NIM11bQ0hdKFtDSDNdKWMxW2NIXWMoW2NIXVtjSF1bY0hdMSlDMihbQ0gyXVtDSDJdMilbTkhdW0NIMl1bQ0BASF0oW09IXSlbQ0BIXShbQ0gyXTMpW05IXUMoPU8pYyhbY0hdNClbY0hdYyhDKD1PKVtDSDNdKVtjSF1jNFtOSF1bQ0gyXVtDSDJdW0NIMl1bQ0gyXU9jKFtjSF1jMzUpW2NIXVtjSF1bY0hdNQ==

> <s_epik_cmdline>
J2VwaWtfcHl0aG9uJywgJy1waCcsICc3LjAnLCAnLXRuJywgJzgnLCAnLW1hJywgJzIwMCcsICctaW1hZScsICc8aW5maWxlLm1hZT4nLCAnLW9tYWUnLCAnPG91dGZpbGUubWFlPic=

> <r_lp_tautomer_probability>
0.99995

> <r_epik_Ionization_Penalty>
  0.5137

> <r_epik_Ionization_Penalty_Charging>
  0.5137

> <r_epik_Ionization_Penalty_Neutral>
  0.0000

> <r_epik_State_Penalty>
  0.5212

> <r_epik_Charging_Adjusted_Penalty>
1.03485

> <i_epik_Tot_Q>
1

> <i_epik_Tot_abs_Q>
1

> <s_lp_Force_Field>
OPLS_2005

> <r_lp_Energy>
43.6153

> <b_lp_Chiralities_Consistent>
1

> <s_lp_Variant>
BACE_14.smi:1-2

> <chiral flag>
1

> <version>
0

> <s_i_glide_gridfile>
second_dock_grid_2

> <i_i_glide_lignum>
25

> <i_i_glide_rotatable_bonds>
8

> <r_i_docking_score>
-5.13205

> <r_i_glide_ligand_efficiency>
-0.122192

> <r_i_glide_ligand_efficiency_sa>
-0.424741

> <r_i_glide_ligand_efficiency_ln>
-1.08324

> <r_glide_XP_GScore>
-5.65325

> <r_i_glide_gscore>
-5.65325

> <r_i_glide_evdw>
-39.2886

> <r_i_glide_ecoul>
-13.7454

> <r_i_glide_energy>
-53.034

> <r_i_glide_einternal>
2.22775

> <r_i_glide_emodel>
-75.1688

> <r_glide_XP_HBond>
-1.23713

> <i_i_glide_confnum>
1

> <i_i_glide_posenum>
130

> <r_i_glide_eff_state_penalty>
0.5212

> <i_glide_XP_PoseRank>
1

$$$$
BACE_15.smi:1
                    3D
 Structure written by MMmdl.
 83 86  0  0  1  0            999 V2000
   19.8084   46.9403   -5.8891 C   0  0  0  0  0  0
   19.2596   45.7608   -5.3187 O   0  0  0  0  0  0
   19.9295   44.5569   -5.6722 C   0  0  0  0  0  0
   19.7354   44.1929   -7.1301 C   0  0  0  0  0  0
   20.6849   44.6303   -8.0741 C   0  0  0  0  0  0
   20.5050   44.3770   -9.4439 C   0  0  0  0  0  0
   19.3940   43.6035   -9.8518 C   0  0  0  0  0  0
   18.4378   43.1494   -8.9200 C   0  0  0  0  0  0
   18.6079   43.4540   -7.5514 C   0  0  0  0  0  0
   17.3067   42.2926   -9.4087 C   0  0  0  0  0  0
   17.4994   41.5165  -10.3454 O   0  0  0  0  0  0
   16.0947   42.4843   -8.8517 N   0  0  0  0  0  0
   14.8613   41.7656   -9.2234 C   0  0  1  0  0  0
   14.4731   41.9616  -10.7201 C   0  0  0  0  0  0
   14.3846   43.3979  -11.2403 C   0  0  0  0  0  0
   15.5420   44.1011  -11.6408 C   0  0  0  0  0  0
   15.4619   45.3923  -12.2198 C   0  0  0  0  0  0
   14.1907   45.9566  -12.4376 C   0  0  0  0  0  0
   13.0302   45.2681  -12.0412 C   0  0  0  0  0  0
   13.1236   44.0006  -11.4348 C   0  0  0  0  0  0
   16.5643   46.1278  -12.6051 O   0  0  0  0  0  0
   17.8167   45.7492  -12.0497 C   0  0  0  0  0  0
   18.8923   46.8070  -12.3332 C   0  0  0  0  0  0
   20.1069   46.6808  -11.3927 C   0  0  0  0  0  0
   20.9364   45.3875  -11.5636 C   0  0  0  0  0  0
   21.4272   44.9184  -10.3127 O   0  0  0  0  0  0
   14.9849   40.2641   -8.8148 C   0  0  2  0  0  0
   14.0600   39.4182   -9.4601 O   0  0  0  0  0  0
   14.8530   40.0244   -7.2948 C   0  0  0  0  0  0
   15.7517   38.9501   -6.8399 N   0  3  0  0  0  0
   17.1723   39.3497   -6.7325 C   0  0  0  0  0  0
   18.0395   38.8660   -7.8616 C   0  0  0  0  0  0
   19.1186   39.6729   -8.2870 C   0  0  0  0  0  0
   19.8666   39.3254   -9.4281 C   0  0  0  0  0  0
   19.5270   38.1488  -10.1204 C   0  0  0  0  0  0
   18.5050   37.3063   -9.6417 C   0  0  0  0  0  0
   17.7606   37.6528   -8.5099 C   0  0  0  0  0  0
   21.0241   40.2023   -9.8904 C   0  0  0  0  0  0
   20.9219   40.5786  -11.3788 C   0  0  0  0  0  0
   22.3684   39.5357   -9.5689 C   0  0  0  0  0  0
   14.0599   42.2140   -8.6363 H   0  0  0  0  0  0
   15.9439   39.8937   -9.1702 H   0  0  0  0  0  0
   19.2926   47.8110   -5.4836 H   0  0  0  0  0  0
   19.6839   46.9620   -6.9701 H   0  0  0  0  0  0
   20.8696   47.0365   -5.6532 H   0  0  0  0  0  0
   20.9934   44.6351   -5.4382 H   0  0  0  0  0  0
   19.5488   43.7452   -5.0516 H   0  0  0  0  0  0
   21.5363   45.2124   -7.7540 H   0  0  0  0  0  0
   19.2567   43.3406  -10.8887 H   0  0  0  0  0  0
   17.8947   43.1026   -6.8205 H   0  0  0  0  0  0
   16.0232   43.1613   -8.1045 H   0  0  0  0  0  0
   15.1673   41.4128  -11.3562 H   0  0  0  0  0  0
   13.5057   41.4915  -10.8948 H   0  0  0  0  0  0
   16.4966   43.6186  -11.5364 H   0  0  0  0  0  0
   14.1104   46.9327  -12.8933 H   0  0  0  0  0  0
   12.0612   45.7192  -12.1892 H   0  0  0  0  0  0
   12.2228   43.4765  -11.1484 H   0  0  0  0  0  0
   17.7053   45.6316  -10.9702 H   0  0  0  0  0  0
   18.1292   44.7918  -12.4649 H   0  0  0  0  0  0
   19.2051   46.7619  -13.3760 H   0  0  0  0  0  0
   18.4529   47.7949  -12.1901 H   0  0  0  0  0  0
   20.7661   47.5371  -11.5276 H   0  0  0  0  0  0
   19.7451   46.7651  -10.3676 H   0  0  0  0  0  0
   20.3823   44.6089  -12.0759 H   0  0  0  0  0  0
   21.7948   45.5912  -12.2042 H   0  0  0  0  0  0
   13.1780   39.6561   -9.1930 H   0  0  0  0  0  0
   15.0660   40.9323   -6.7260 H   0  0  0  0  0  0
   13.8359   39.7452   -7.0227 H   0  0  0  0  0  0
   15.4498   38.6674   -5.9057 H   0  0  0  0  0  0
   17.2289   40.4344   -6.8398 H   0  0  0  0  0  0
   17.5994   39.0295   -5.7829 H   0  0  0  0  0  0
   19.3534   40.5819   -7.7538 H   0  0  0  0  0  0
   20.0617   37.8595  -11.0086 H   0  0  0  0  0  0
   18.2901   36.3802  -10.1409 H   0  0  0  0  0  0
   16.9742   36.9944   -8.1686 H   0  0  0  0  0  0
   20.9793   41.1316   -9.3221 H   0  0  0  0  0  0
   19.9659   41.0565  -11.5952 H   0  0  0  0  0  0
   21.0164   39.7080  -12.0284 H   0  0  0  0  0  0
   21.7121   41.2776  -11.6573 H   0  0  0  0  0  0
   22.4707   39.3548   -8.4986 H   0  0  0  0  0  0
   23.2109   40.1551   -9.8820 H   0  0  0  0  0  0
   22.4596   38.5744  -10.0757 H   0  0  0  0  0  0
   15.6615   38.1236   -7.4144 H   0  0  0  0  0  0
  1  2  1  0  0  0
  1 43  1  0  0  0
  1 44  1  0  0  0
  1 45  1  0  0  0
  2  3  1  0  0  0
  3  4  1  0  0  0
  3 46  1  0  0  0
  3 47  1  0  0  0
  4  9  1  0  0  0
  4  5  2  0  0  0
  5  6  1  0  0  0
  5 48  1  0  0  0
  6 26  1  0  0  0
  6  7  2  0  0  0
  7  8  1  0  0  0
  7 49  1  0  0  0
  8  9  2  0  0  0
  8 10  1  0  0  0
  9 50  1  0  0  0
 10 11  2  0  0  0
 10 12  1  0  0  0
 12 13  1  0  0  0
 12 51  1  0  0  0
 13 41  1  0  0  0
 13 14  1  0  0  0
 13 27  1  0  0  0
 14 15  1  0  0  0
 14 52  1  0  0  0
 14 53  1  0  0  0
 15 20  1  0  0  0
 15 16  2  0  0  0
 16 17  1  0  0  0
 16 54  1  0  0  0
 17 18  2  0  0  0
 17 21  1  0  0  0
 18 19  1  0  0  0
 18 55  1  0  0  0
 19 20  2  0  0  0
 19 56  1  0  0  0
 20 57  1  0  0  0
 21 22  1  0  0  0
 22 23  1  0  0  0
 22 58  1  0  0  0
 22 59  1  0  0  0
 23 24  1  0  0  0
 23 60  1  0  0  0
 23 61  1  0  0  0
 24 25  1  0  0  0
 24 62  1  0  0  0
 24 63  1  0  0  0
 25 26  1  0  0  0
 25 64  1  0  0  0
 25 65  1  0  0  0
 27 42  1  0  0  0
 27 28  1  0  0  0
 27 29  1  0  0  0
 28 66  1  0  0  0
 29 30  1  0  0  0
 29 67  1  0  0  0
 29 68  1  0  0  0
 30 31  1  0  0  0
 30 69  1  0  0  0
 30 83  1  0  0  0
 31 32  1  0  0  0
 31 70  1  0  0  0
 31 71  1  0  0  0
 32 37  1  0  0  0
 32 33  2  0  0  0
 33 34  1  0  0  0
 33 72  1  0  0  0
 34 35  2  0  0  0
 34 38  1  0  0  0
 35 36  1  0  0  0
 35 73  1  0  0  0
 36 37  2  0  0  0
 36 74  1  0  0  0
 37 75  1  0  0  0
 38 39  1  0  0  0
 38 40  1  0  0  0
 38 76  1  0  0  0
 39 77  1  0  0  0
 39 78  1  0  0  0
 39 79  1  0  0  0
 40 80  1  0  0  0
 40 81  1  0  0  0
 40 82  1  0  0  0
M  CHG  1  30   1
M  END
> <s_m_source_file>
BACE_15.smi

> <i_m_source_file_index>
1

> <i_lp_mmshare_version>
42013

> <i_f3d_flags>
0

> <s_epik_input>
W2NIXTFbY0hdW2NIXWMoW0NIXShbQ0gzXSlbQ0gzXSlbY0hdYzFbQ0gyXVtOSF1bQ0gyXVtDQEBIXShbT0hdKVtDQEBIXShbTkhdQyg9TyljKFtjSF0yKVtjSF1jKFtjSF1jMjMpW0NIMl1PW0NIM10pW0NIMl1jNFtjSF1jKFtjSF1bY0hdW2NIXTQpT1tDSDJdW0NIMl1bQ0gyXVtDSDJdTzM=

> <s_epik_cmdline>
J2VwaWtfcHl0aG9uJywgJy1waCcsICc3LjAnLCAnLXRuJywgJzgnLCAnLW1hJywgJzIwMCcsICctaW1hZScsICc8aW5maWxlLm1hZT4nLCAnLW9tYWUnLCAnPG91dGZpbGUubWFlPic=

> <r_lp_tautomer_probability>
1

> <r_epik_Ionization_Penalty>
  0.0191

> <r_epik_Ionization_Penalty_Charging>
  0.0191

> <r_epik_Ionization_Penalty_Neutral>
  0.0000

> <r_epik_State_Penalty>
  0.0153

> <r_epik_Charging_Adjusted_Penalty>
0.0343718

> <i_epik_Tot_Q>
1

> <i_epik_Tot_abs_Q>
1

> <s_lp_Force_Field>
OPLS_2005

> <r_lp_Energy>
30.6611

> <b_lp_Chiralities_Consistent>
1

> <s_lp_Variant>
BACE_15.smi:1-1

> <chiral flag>
1

> <version>
0

> <s_i_glide_gridfile>
second_dock_grid_2

> <i_i_glide_lignum>
26

> <i_i_glide_rotatable_bonds>
9

> <r_i_docking_score>
-6.8464

> <r_i_glide_ligand_efficiency>
-0.17116

> <r_i_glide_ligand_efficiency_sa>
-0.585359

> <r_i_glide_ligand_efficiency_ln>
-1.46014

> <r_glide_XP_GScore>
-6.8617

> <r_i_glide_gscore>
-6.8617

> <r_i_glide_evdw>
-35.2348

> <r_i_glide_ecoul>
-20.1347

> <r_i_glide_energy>
-55.3695

> <r_i_glide_einternal>
10.6303

> <r_i_glide_emodel>
-69.999

> <r_glide_XP_HBond>
-0.968654

> <i_i_glide_confnum>
1

> <i_i_glide_posenum>
1

> <r_i_glide_eff_state_penalty>
0.0153

> <i_glide_XP_PoseRank>
1

$$$$
BACE_15.smi:1
                    3D
 Structure written by MMmdl.
 82 85  0  0  1  0            999 V2000
   17.1645   50.4918  -10.4221 C   0  0  0  0  0  0
   17.7139   49.2148  -10.7079 O   0  0  0  0  0  0
   17.4321   48.2389   -9.7147 C   0  0  0  0  0  0
   18.0334   46.8799  -10.0273 C   0  0  0  0  0  0
   19.4173   46.6671   -9.8448 C   0  0  0  0  0  0
   19.9940   45.4105  -10.1492 C   0  0  0  0  0  0
   19.1656   44.3844  -10.6327 C   0  0  0  0  0  0
   17.7732   44.5671  -10.7662 C   0  0  0  0  0  0
   17.2123   45.8311  -10.4942 C   0  0  0  0  0  0
   16.9125   43.4106  -11.1704 C   0  0  0  0  0  0
   16.0322   43.5156  -12.0233 O   0  0  0  0  0  0
   17.1953   42.2904  -10.4899 N   0  0  0  0  0  0
   16.7033   40.9345  -10.7104 C   0  0  1  0  0  0
   17.6503   39.9146  -10.0177 C   0  0  0  0  0  0
   19.1338   40.1749  -10.2567 C   0  0  0  0  0  0
   19.8370   41.1073   -9.4611 C   0  0  0  0  0  0
   21.1902   41.4130   -9.7161 C   0  0  0  0  0  0
   21.8597   40.7138  -10.7519 C   0  0  0  0  0  0
   21.1728   39.7603  -11.5283 C   0  0  0  0  0  0
   19.8109   39.4985  -11.2904 C   0  0  0  0  0  0
   21.7660   42.4052   -8.9477 O   0  0  0  0  0  0
   23.1416   42.7041   -9.1547 C   0  0  0  0  0  0
   23.5785   43.8845   -8.2680 C   0  0  0  0  0  0
   23.4891   45.2739   -8.9336 C   0  0  0  0  0  0
   22.0761   45.8626   -9.0651 C   0  0  0  0  0  0
   21.3287   45.1080  -10.0048 O   0  0  0  0  0  0
   15.2096   40.8014  -10.3052 C   0  0  2  0  0  0
   14.3921   40.9259  -11.4524 O   0  0  0  0  0  0
   14.7409   41.8615   -9.2916 C   0  0  0  0  0  0
   15.3814   41.6859   -7.9892 N   0  0  0  0  0  0
   15.2179   40.3512   -7.4170 C   0  0  0  0  0  0
   16.2080   39.3431   -7.9687 C   0  0  0  0  0  0
   17.5782   39.4534   -7.6543 C   0  0  0  0  0  0
   18.5060   38.5124   -8.1524 C   0  0  0  0  0  0
   18.0495   37.4605   -8.9756 C   0  0  0  0  0  0
   16.6821   37.3485   -9.2926 C   0  0  0  0  0  0
   15.7615   38.2866   -8.7882 C   0  0  0  0  0  0
   19.9840   38.6195   -7.8001 C   0  0  0  0  0  0
   20.2714   39.8713   -6.9563 C   0  0  0  0  0  0
   20.8734   38.5621   -9.0519 C   0  0  0  0  0  0
   16.7833   40.7656  -11.7856 H   0  0  0  0  0  0
   15.0219   39.8153   -9.8786 H   0  0  0  0  0  0
   17.3911   51.1769  -11.2391 H   0  0  0  0  0  0
   17.5826   50.9149   -9.5081 H   0  0  0  0  0  0
   16.0798   50.4404  -10.3191 H   0  0  0  0  0  0
   17.7549   48.5924   -8.7340 H   0  0  0  0  0  0
   16.3496   48.1210   -9.6573 H   0  0  0  0  0  0
   20.0216   47.4839   -9.4804 H   0  0  0  0  0  0
   19.6116   43.4319  -10.8747 H   0  0  0  0  0  0
   16.1494   45.9880  -10.6104 H   0  0  0  0  0  0
   17.9202   42.3718   -9.7915 H   0  0  0  0  0  0
   17.4899   39.9218   -8.9391 H   0  0  0  0  0  0
   17.4142   38.9025  -10.3469 H   0  0  0  0  0  0
   19.3201   41.6334   -8.6716 H   0  0  0  0  0  0
   22.8979   40.8982  -10.9808 H   0  0  0  0  0  0
   21.6901   39.2388  -12.3201 H   0  0  0  0  0  0
   19.2881   38.7808  -11.9057 H   0  0  0  0  0  0
   23.7274   41.8221   -8.8908 H   0  0  0  0  0  0
   23.3470   42.9359  -10.2008 H   0  0  0  0  0  0
   23.0422   43.8717   -7.3184 H   0  0  0  0  0  0
   24.6268   43.7251   -8.0127 H   0  0  0  0  0  0
   24.0773   45.9675   -8.3317 H   0  0  0  0  0  0
   23.9730   45.2522   -9.9107 H   0  0  0  0  0  0
   21.5775   45.8718   -8.0945 H   0  0  0  0  0  0
   22.1615   46.8944   -9.4076 H   0  0  0  0  0  0
   13.5117   40.6736  -11.2197 H   0  0  0  0  0  0
   14.9357   42.8622   -9.6773 H   0  0  0  0  0  0
   13.6590   41.7873   -9.1750 H   0  0  0  0  0  0
   15.0432   42.3847   -7.3355 H   0  0  0  0  0  0
   15.3670   40.4021   -6.3382 H   0  0  0  0  0  0
   14.1980   39.9934   -7.5636 H   0  0  0  0  0  0
   17.9156   40.2602   -7.0200 H   0  0  0  0  0  0
   18.7449   36.7315   -9.3651 H   0  0  0  0  0  0
   16.3385   36.5401   -9.9207 H   0  0  0  0  0  0
   14.7127   38.1929   -9.0298 H   0  0  0  0  0  0
   20.2413   37.7550   -7.1864 H   0  0  0  0  0  0
   19.6698   39.8750   -6.0466 H   0  0  0  0  0  0
   20.0501   40.7871   -7.5053 H   0  0  0  0  0  0
   21.3191   39.9108   -6.6576 H   0  0  0  0  0  0
   20.6985   37.6447   -9.6146 H   0  0  0  0  0  0
   21.9295   38.5847   -8.7816 H   0  0  0  0  0  0
   20.6865   39.4038   -9.7195 H   0  0  0  0  0  0
  1  2  1  0  0  0
  1 43  1  0  0  0
  1 44  1  0  0  0
  1 45  1  0  0  0
  2  3  1  0  0  0
  3  4  1  0  0  0
  3 46  1  0  0  0
  3 47  1  0  0  0
  4  9  1  0  0  0
  4  5  2  0  0  0
  5  6  1  0  0  0
  5 48  1  0  0  0
  6 26  1  0  0  0
  6  7  2  0  0  0
  7  8  1  0  0  0
  7 49  1  0  0  0
  8  9  2  0  0  0
  8 10  1  0  0  0
  9 50  1  0  0  0
 10 11  2  0  0  0
 10 12  1  0  0  0
 12 13  1  0  0  0
 12 51  1  0  0  0
 13 41  1  0  0  0
 13 14  1  0  0  0
 13 27  1  0  0  0
 14 15  1  0  0  0
 14 52  1  0  0  0
 14 53  1  0  0  0
 15 20  1  0  0  0
 15 16  2  0  0  0
 16 17  1  0  0  0
 16 54  1  0  0  0
 17 18  2  0  0  0
 17 21  1  0  0  0
 18 19  1  0  0  0
 18 55  1  0  0  0
 19 20  2  0  0  0
 19 56  1  0  0  0
 20 57  1  0  0  0
 21 22  1  0  0  0
 22 23  1  0  0  0
 22 58  1  0  0  0
 22 59  1  0  0  0
 23 24  1  0  0  0
 23 60  1  0  0  0
 23 61  1  0  0  0
 24 25  1  0  0  0
 24 62  1  0  0  0
 24 63  1  0  0  0
 25 26  1  0  0  0
 25 64  1  0  0  0
 25 65  1  0  0  0
 27 42  1  0  0  0
 27 28  1  0  0  0
 27 29  1  0  0  0
 28 66  1  0  0  0
 29 30  1  0  0  0
 29 67  1  0  0  0
 29 68  1  0  0  0
 30 31  1  0  0  0
 30 69  1  0  0  0
 31 32  1  0  0  0
 31 70  1  0  0  0
 31 71  1  0  0  0
 32 37  1  0  0  0
 32 33  2  0  0  0
 33 34  1  0  0  0
 33 72  1  0  0  0
 34 35  2  0  0  0
 34 38  1  0  0  0
 35 36  1  0  0  0
 35 73  1  0  0  0
 36 37  2  0  0  0
 36 74  1  0  0  0
 37 75  1  0  0  0
 38 39  1  0  0  0
 38 40  1  0  0  0
 38 76  1  0  0  0
 39 77  1  0  0  0
 39 78  1  0  0  0
 39 79  1  0  0  0
 40 80  1  0  0  0
 40 81  1  0  0  0
 40 82  1  0  0  0
M  END
> <s_m_source_file>
BACE_15.smi

> <i_m_source_file_index>
1

> <i_lp_mmshare_version>
42013

> <i_f3d_flags>
0

> <s_epik_input>
W2NIXTFbY0hdW2NIXWMoW0NIXShbQ0gzXSlbQ0gzXSlbY0hdYzFbQ0gyXVtOSF1bQ0gyXVtDQEBIXShbT0hdKVtDQEBIXShbTkhdQyg9TyljKFtjSF0yKVtjSF1jKFtjSF1jMjMpW0NIMl1PW0NIM10pW0NIMl1jNFtjSF1jKFtjSF1bY0hdW2NIXTQpT1tDSDJdW0NIMl1bQ0gyXVtDSDJdTzM=

> <s_epik_cmdline>
J2VwaWtfcHl0aG9uJywgJy1waCcsICc3LjAnLCAnLXRuJywgJzgnLCAnLW1hJywgJzIwMCcsICctaW1hZScsICc8aW5maWxlLm1hZT4nLCAnLW9tYWUnLCAnPG91dGZpbGUubWFlPic=

> <r_lp_tautomer_probability>
1

> <r_epik_Ionization_Penalty>
  2.0439

> <r_epik_Ionization_Penalty_Charging>
  0.0000

> <r_epik_Ionization_Penalty_Neutral>
  2.0439

> <r_epik_State_Penalty>
  2.1759

> <r_epik_Charging_Adjusted_Penalty>
2.17586

> <i_epik_Tot_Q>
0

> <i_epik_Tot_abs_Q>
0

> <s_lp_Force_Field>
OPLS_2005

> <r_lp_Energy>
42.2366

> <b_lp_Chiralities_Consistent>
1

> <s_lp_Variant>
BACE_15.smi:1-2

> <chiral flag>
1

> <version>
0

> <s_i_glide_gridfile>
second_dock_grid_2

> <i_i_glide_lignum>
27

> <i_i_glide_rotatable_bonds>
9

> <r_i_docking_score>
-3.1099

> <r_i_glide_ligand_efficiency>
-0.0777475

> <r_i_glide_ligand_efficiency_sa>
-0.265893

> <r_i_glide_ligand_efficiency_ln>
-0.66325

> <r_glide_XP_GScore>
-5.2858

> <r_i_glide_gscore>
-5.2858

> <r_i_glide_evdw>
-37.5843

> <r_i_glide_ecoul>
-16.029

> <r_i_glide_energy>
-53.6134

> <r_i_glide_einternal>
3.23411

> <r_i_glide_emodel>
-80.7552

> <r_glide_XP_HBond>
-1.37086

> <i_i_glide_confnum>
1

> <i_i_glide_posenum>
6

> <r_i_glide_eff_state_penalty>
2.1759

> <i_glide_XP_PoseRank>
1

$$$$
BACE_16.smi:1
                    3D
 Structure written by MMmdl.
 85 88  0  0  1  0            999 V2000
   19.1553   48.8490   -6.8453 C   0  0  0  0  0  0
   18.0669   49.3987   -7.7606 C   0  0  0  0  0  0
   17.6603   50.5555   -7.6418 O   0  0  0  0  0  0
   17.4647   48.4874   -8.8234 C   0  0  0  0  0  0
   18.1526   47.2442   -8.8884 O   0  0  0  0  0  0
   17.6249   46.2898   -9.7327 C   0  0  0  0  0  0
   16.3222   46.3558  -10.2858 C   0  0  0  0  0  0
   15.8183   45.3225  -11.0974 C   0  0  0  0  0  0
   16.6703   44.2459  -11.4260 C   0  0  0  0  0  0
   17.9637   44.1530  -10.8843 C   0  0  0  0  0  0
   18.4331   45.1714  -10.0261 C   0  0  0  0  0  0
   18.8301   42.9937  -11.2707 C   0  0  0  0  0  0
   18.8600   42.6073  -12.4392 O   0  0  0  0  0  0
   19.4846   42.4096  -10.2560 N   0  0  0  0  0  0
   20.4798   41.3349  -10.3468 C   0  0  1  0  0  0
   19.9618   39.9954  -10.9467 C   0  0  0  0  0  0
   18.7170   39.4446  -10.2611 C   0  0  0  0  0  0
   17.4464   39.9268  -10.6302 C   0  0  0  0  0  0
   16.2710   39.4698   -9.9902 C   0  0  0  0  0  0
   16.3799   38.4638   -9.0088 C   0  0  0  0  0  0
   17.6441   37.9557   -8.6490 C   0  0  0  0  0  0
   18.8122   38.4492   -9.2672 C   0  0  0  0  0  0
   15.0252   39.9815  -10.2831 O   0  0  0  0  0  0
   14.9968   41.3615  -10.6257 C   0  0  0  0  0  0
   13.5737   41.9210  -10.5226 C   0  0  0  0  0  0
   13.5224   43.4546  -10.3916 C   0  0  0  0  0  0
   13.7889   44.1996  -11.7169 C   0  0  0  0  0  0
   14.5065   45.4149  -11.5188 O   0  0  0  0  0  0
   21.8011   41.8797  -10.9540 C   0  0  2  0  0  0
   21.7942   41.7499  -12.3646 O   0  0  0  0  0  0
   23.0559   41.1952  -10.3817 C   0  0  0  0  0  0
   24.2800   41.8827  -10.8399 N   0  3  0  0  0  0
   25.4723   41.6103  -10.0213 C   0  0  0  0  0  0
   26.6645   42.3856  -10.5483 C   0  0  0  0  0  0
   27.6250   41.7502  -11.3649 C   0  0  0  0  0  0
   28.7646   42.4542  -11.8112 C   0  0  0  0  0  0
   28.9025   43.8224  -11.4848 C   0  0  0  0  0  0
   27.9324   44.4638  -10.6921 C   0  0  0  0  0  0
   26.8219   43.7458  -10.2141 C   0  0  0  0  0  0
   29.8491   41.7266  -12.5983 C   0  0  0  0  0  0
   31.2471   41.9620  -12.0015 C   0  0  0  0  0  0
   29.8063   42.0772  -14.0899 C   0  0  0  0  0  0
   20.6874   41.1234   -9.2964 H   0  0  0  0  0  0
   21.8769   42.9448  -10.7250 H   0  0  0  0  0  0
   18.7614   48.0229   -6.2491 H   0  0  0  0  0  0
   19.5115   49.6246   -6.1662 H   0  0  0  0  0  0
   20.0005   48.4840   -7.4298 H   0  0  0  0  0  0
   16.4215   48.3352   -8.5477 H   0  0  0  0  0  0
   17.5004   48.9860   -9.7950 H   0  0  0  0  0  0
   15.6608   47.1806  -10.0760 H   0  0  0  0  0  0
   16.3453   43.4595  -12.0828 H   0  0  0  0  0  0
   19.4282   45.1186   -9.6080 H   0  0  0  0  0  0
   19.2979   42.7634   -9.3272 H   0  0  0  0  0  0
   19.7399   40.1079  -12.0079 H   0  0  0  0  0  0
   20.7458   39.2394  -10.8902 H   0  0  0  0  0  0
   17.3818   40.6546  -11.4213 H   0  0  0  0  0  0
   15.4956   38.0956   -8.5087 H   0  0  0  0  0  0
   17.7121   37.1968   -7.8813 H   0  0  0  0  0  0
   19.7753   38.0586   -8.9731 H   0  0  0  0  0  0
   15.6501   41.9143   -9.9480 H   0  0  0  0  0  0
   15.3653   41.4999  -11.6393 H   0  0  0  0  0  0
   12.9779   41.5972  -11.3739 H   0  0  0  0  0  0
   13.1119   41.4839   -9.6402 H   0  0  0  0  0  0
   12.5424   43.7502  -10.0157 H   0  0  0  0  0  0
   14.2264   43.7588   -9.6164 H   0  0  0  0  0  0
   14.2847   43.5620  -12.4397 H   0  0  0  0  0  0
   12.8317   44.4451  -12.1786 H   0  0  0  0  0  0
   22.5246   41.2124  -12.6530 H   0  0  0  0  0  0
   23.0178   41.2376   -9.2903 H   0  0  0  0  0  0
   23.1020   40.1395  -10.6569 H   0  0  0  0  0  0
   24.4607   41.5769  -11.7933 H   0  0  0  0  0  0
   25.2613   41.9038   -8.9915 H   0  0  0  0  0  0
   25.6970   40.5439  -10.0202 H   0  0  0  0  0  0
   27.5013   40.7121  -11.6361 H   0  0  0  0  0  0
   29.7575   44.3862  -11.8272 H   0  0  0  0  0  0
   28.0493   45.5075  -10.4362 H   0  0  0  0  0  0
   26.0950   44.2452   -9.5876 H   0  0  0  0  0  0
   29.6502   40.6565  -12.5156 H   0  0  0  0  0  0
   31.2598   41.7022  -10.9436 H   0  0  0  0  0  0
   31.5625   43.0002  -12.0948 H   0  0  0  0  0  0
   31.9946   41.3499  -12.5063 H   0  0  0  0  0  0
   28.8603   41.7633  -14.5323 H   0  0  0  0  0  0
   30.5965   41.5617  -14.6367 H   0  0  0  0  0  0
   29.9251   43.1485  -14.2588 H   0  0  0  0  0  0
   24.1221   42.8802  -10.8436 H   0  0  0  0  0  0
  1  2  1  0  0  0
  1 45  1  0  0  0
  1 46  1  0  0  0
  1 47  1  0  0  0
  2  3  2  0  0  0
  2  4  1  0  0  0
  4  5  1  0  0  0
  4 48  1  0  0  0
  4 49  1  0  0  0
  5  6  1  0  0  0
  6 11  1  0  0  0
  6  7  2  0  0  0
  7  8  1  0  0  0
  7 50  1  0  0  0
  8 28  1  0  0  0
  8  9  2  0  0  0
  9 10  1  0  0  0
  9 51  1  0  0  0
 10 11  2  0  0  0
 10 12  1  0  0  0
 11 52  1  0  0  0
 12 13  2  0  0  0
 12 14  1  0  0  0
 14 15  1  0  0  0
 14 53  1  0  0  0
 15 43  1  0  0  0
 15 16  1  0  0  0
 15 29  1  0  0  0
 16 17  1  0  0  0
 16 54  1  0  0  0
 16 55  1  0  0  0
 17 22  1  0  0  0
 17 18  2  0  0  0
 18 19  1  0  0  0
 18 56  1  0  0  0
 19 20  2  0  0  0
 19 23  1  0  0  0
 20 21  1  0  0  0
 20 57  1  0  0  0
 21 22  2  0  0  0
 21 58  1  0  0  0
 22 59  1  0  0  0
 23 24  1  0  0  0
 24 25  1  0  0  0
 24 60  1  0  0  0
 24 61  1  0  0  0
 25 26  1  0  0  0
 25 62  1  0  0  0
 25 63  1  0  0  0
 26 27  1  0  0  0
 26 64  1  0  0  0
 26 65  1  0  0  0
 27 28  1  0  0  0
 27 66  1  0  0  0
 27 67  1  0  0  0
 29 44  1  0  0  0
 29 30  1  0  0  0
 29 31  1  0  0  0
 30 68  1  0  0  0
 31 32  1  0  0  0
 31 69  1  0  0  0
 31 70  1  0  0  0
 32 33  1  0  0  0
 32 71  1  0  0  0
 32 85  1  0  0  0
 33 34  1  0  0  0
 33 72  1  0  0  0
 33 73  1  0  0  0
 34 39  1  0  0  0
 34 35  2  0  0  0
 35 36  1  0  0  0
 35 74  1  0  0  0
 36 37  2  0  0  0
 36 40  1  0  0  0
 37 38  1  0  0  0
 37 75  1  0  0  0
 38 39  2  0  0  0
 38 76  1  0  0  0
 39 77  1  0  0  0
 40 41  1  0  0  0
 40 42  1  0  0  0
 40 78  1  0  0  0
 41 79  1  0  0  0
 41 80  1  0  0  0
 41 81  1  0  0  0
 42 82  1  0  0  0
 42 83  1  0  0  0
 42 84  1  0  0  0
M  CHG  1  32   1
M  END
> <s_m_source_file>
BACE_16.smi

> <i_m_source_file_index>
1

> <i_lp_mmshare_version>
42013

> <i_f3d_flags>
0

> <s_epik_input>
W2NIXTFbY0hdW2NIXWMoW0NIXShbQ0gzXSlbQ0gzXSlbY0hdYzFbQ0gyXVtOSF1bQ0gyXVtDQEBIXShbT0hdKVtDQEBIXShbTkhdQyg9TyljKFtjSF0yKVtjSF1jKFtjSF1jMjMpT1tDSDJdQyg9TylbQ0gzXSlbQ0gyXWM0W2NIXWMoW2NIXVtjSF1bY0hdNClPW0NIMl1bQ0gyXVtDSDJdW0NIMl1PMw==

> <s_epik_cmdline>
J2VwaWtfcHl0aG9uJywgJy1waCcsICc3LjAnLCAnLXRuJywgJzgnLCAnLW1hJywgJzIwMCcsICctaW1hZScsICc8aW5maWxlLm1hZT4nLCAnLW9tYWUnLCAnPG91dGZpbGUubWFlPic=

> <r_lp_tautomer_probability>
1

> <r_epik_Ionization_Penalty>
  0.0191

> <r_epik_Ionization_Penalty_Charging>
  0.0191

> <r_epik_Ionization_Penalty_Neutral>
  0.0000

> <r_epik_State_Penalty>
  0.0153

> <r_epik_Charging_Adjusted_Penalty>
0.0343718

> <i_epik_Tot_Q>
1

> <i_epik_Tot_abs_Q>
1

> <s_lp_Force_Field>
OPLS_2005

> <r_lp_Energy>
38.2662

> <b_lp_Chiralities_Consistent>
1

> <s_lp_Variant>
BACE_16.smi:1-1

> <chiral flag>
1

> <version>
0

> <s_i_glide_gridfile>
second_dock_grid_2

> <i_i_glide_lignum>
28

> <i_i_glide_rotatable_bonds>
10

> <r_i_docking_score>
-5.74411

> <r_i_glide_ligand_efficiency>
-0.136765

> <r_i_glide_ligand_efficiency_sa>
-0.475397

> <r_i_glide_ligand_efficiency_ln>
-1.21243

> <r_glide_XP_GScore>
-5.75941

> <r_i_glide_gscore>
-5.75941

> <r_i_glide_evdw>
-42.0735

> <r_i_glide_ecoul>
-16.5224

> <r_i_glide_energy>
-58.5958

> <r_i_glide_einternal>
8.88352

> <r_i_glide_emodel>
-82.0497

> <r_glide_XP_HBond>
-1.19993

> <i_i_glide_confnum>
1

> <i_i_glide_posenum>
1

> <r_i_glide_eff_state_penalty>
0.0153

> <i_glide_XP_PoseRank>
1

$$$$
BACE_16.smi:1
                    3D
 Structure written by MMmdl.
 84 87  0  0  1  0            999 V2000
   11.6574   42.5502  -11.0419 C   0  0  0  0  0  0
   12.2681   43.7554  -10.3512 C   0  0  0  0  0  0
   12.1568   44.8800  -10.8403 O   0  0  0  0  0  0
   13.0023   43.5050   -9.0316 C   0  0  0  0  0  0
   13.9378   44.5457   -8.7513 O   0  0  0  0  0  0
   15.2533   44.2575   -9.0424 C   0  0  0  0  0  0
   15.6487   43.5424  -10.1976 C   0  0  0  0  0  0
   16.9971   43.2113  -10.4221 C   0  0  0  0  0  0
   17.9682   43.6282   -9.4785 C   0  0  0  0  0  0
   17.5878   44.3167   -8.3036 C   0  0  0  0  0  0
   16.2369   44.6724   -8.1264 C   0  0  0  0  0  0
   18.5970   44.6497   -7.2414 C   0  0  0  0  0  0
   18.5172   45.6893   -6.5834 O   0  0  0  0  0  0
   19.5262   43.7031   -7.0336 N   0  0  0  0  0  0
   20.6475   43.7586   -6.0961 C   0  0  1  0  0  0
   20.8535   42.3763   -5.4156 C   0  0  0  0  0  0
   21.1283   41.1988   -6.3509 C   0  0  0  0  0  0
   20.0860   40.4861   -6.9881 C   0  0  0  0  0  0
   20.3739   39.4139   -7.8742 C   0  0  0  0  0  0
   21.7189   39.0592   -8.0952 C   0  0  0  0  0  0
   22.7596   39.7491   -7.4514 C   0  0  0  0  0  0
   22.4600   40.8047   -6.5721 C   0  0  0  0  0  0
   19.4313   38.6784   -8.5645 O   0  0  0  0  0  0
   18.0608   39.0697   -8.5264 C   0  0  0  0  0  0
   17.8250   40.3633   -9.3253 C   0  0  0  0  0  0
   18.0855   40.2380  -10.8368 C   0  0  0  0  0  0
   18.3870   41.5750  -11.5462 C   0  0  0  0  0  0
   17.2709   42.4677  -11.5521 O   0  0  0  0  0  0
   21.8892   44.3653   -6.8135 C   0  0  2  0  0  0
   22.2476   43.5647   -7.9241 O   0  0  0  0  0  0
   23.1461   44.5349   -5.9204 C   0  0  0  0  0  0
   23.0607   45.6393   -4.9549 N   0  0  0  0  0  0
   23.1259   46.9658   -5.5740 C   0  0  0  0  0  0
   23.1021   48.1134   -4.5804 C   0  0  0  0  0  0
   24.1361   48.2605   -3.6310 C   0  0  0  0  0  0
   24.1529   49.3700   -2.7549 C   0  0  0  0  0  0
   23.1250   50.3345   -2.8406 C   0  0  0  0  0  0
   22.0770   50.1751   -3.7674 C   0  0  0  0  0  0
   22.0636   49.0652   -4.6334 C   0  0  0  0  0  0
   25.2970   49.5231   -1.7589 C   0  0  0  0  0  0
   24.8221   49.9275   -0.3531 C   0  0  0  0  0  0
   26.3683   50.4831   -2.2916 C   0  0  0  0  0  0
   20.3858   44.4505   -5.2913 H   0  0  0  0  0  0
   21.6097   45.3295   -7.2377 H   0  0  0  0  0  0
   10.9875   42.0197  -10.3608 H   0  0  0  0  0  0
   12.4494   41.8652  -11.3514 H   0  0  0  0  0  0
   11.1012   42.8501  -11.9314 H   0  0  0  0  0  0
   12.2624   43.4783   -8.2304 H   0  0  0  0  0  0
   13.4843   42.5296   -9.0493 H   0  0  0  0  0  0
   14.9200   43.2117  -10.9213 H   0  0  0  0  0  0
   19.0128   43.4058   -9.6268 H   0  0  0  0  0  0
   15.9306   45.2023   -7.2400 H   0  0  0  0  0  0
   19.4657   42.8673   -7.5962 H   0  0  0  0  0  0
   21.6574   42.4392   -4.6817 H   0  0  0  0  0  0
   19.9754   42.1496   -4.8184 H   0  0  0  0  0  0
   19.0675   40.7827   -6.7972 H   0  0  0  0  0  0
   21.9557   38.2502   -8.7731 H   0  0  0  0  0  0
   23.7861   39.4668   -7.6345 H   0  0  0  0  0  0
   23.2566   41.3293   -6.0707 H   0  0  0  0  0  0
   17.4668   38.2652   -8.9592 H   0  0  0  0  0  0
   17.7159   39.1683   -7.4958 H   0  0  0  0  0  0
   16.8012   40.7025   -9.1604 H   0  0  0  0  0  0
   18.4625   41.1423   -8.9240 H   0  0  0  0  0  0
   18.9395   39.5792  -10.9972 H   0  0  0  0  0  0
   17.2348   39.7470  -11.3102 H   0  0  0  0  0  0
   19.3003   42.0267  -11.1643 H   0  0  0  0  0  0
   18.6093   41.3551  -12.5896 H   0  0  0  0  0  0
   22.3260   42.6664   -7.6352 H   0  0  0  0  0  0
   23.3647   43.6060   -5.3957 H   0  0  0  0  0  0
   24.0153   44.7016   -6.5610 H   0  0  0  0  0  0
   23.8416   45.5408   -4.3092 H   0  0  0  0  0  0
   24.0426   47.0554   -6.1572 H   0  0  0  0  0  0
   22.3030   47.1060   -6.2730 H   0  0  0  0  0  0
   24.9334   47.5307   -3.5954 H   0  0  0  0  0  0
   23.1285   51.1956   -2.1910 H   0  0  0  0  0  0
   21.2794   50.9025   -3.8059 H   0  0  0  0  0  0
   21.2591   48.9577   -5.3475 H   0  0  0  0  0  0
   25.7748   48.5502   -1.6569 H   0  0  0  0  0  0
   24.0744   49.2305    0.0223 H   0  0  0  0  0  0
   24.3920   50.9294   -0.3405 H   0  0  0  0  0  0
   25.6532   49.9289    0.3529 H   0  0  0  0  0  0
   26.7664   50.1403   -3.2478 H   0  0  0  0  0  0
   27.2076   50.5497   -1.5969 H   0  0  0  0  0  0
   25.9665   51.4867   -2.4402 H   0  0  0  0  0  0
  1  2  1  0  0  0
  1 45  1  0  0  0
  1 46  1  0  0  0
  1 47  1  0  0  0
  2  3  2  0  0  0
  2  4  1  0  0  0
  4  5  1  0  0  0
  4 48  1  0  0  0
  4 49  1  0  0  0
  5  6  1  0  0  0
  6 11  1  0  0  0
  6  7  2  0  0  0
  7  8  1  0  0  0
  7 50  1  0  0  0
  8 28  1  0  0  0
  8  9  2  0  0  0
  9 10  1  0  0  0
  9 51  1  0  0  0
 10 11  2  0  0  0
 10 12  1  0  0  0
 11 52  1  0  0  0
 12 13  2  0  0  0
 12 14  1  0  0  0
 14 15  1  0  0  0
 14 53  1  0  0  0
 15 43  1  0  0  0
 15 16  1  0  0  0
 15 29  1  0  0  0
 16 17  1  0  0  0
 16 54  1  0  0  0
 16 55  1  0  0  0
 17 22  1  0  0  0
 17 18  2  0  0  0
 18 19  1  0  0  0
 18 56  1  0  0  0
 19 20  2  0  0  0
 19 23  1  0  0  0
 20 21  1  0  0  0
 20 57  1  0  0  0
 21 22  2  0  0  0
 21 58  1  0  0  0
 22 59  1  0  0  0
 23 24  1  0  0  0
 24 25  1  0  0  0
 24 60  1  0  0  0
 24 61  1  0  0  0
 25 26  1  0  0  0
 25 62  1  0  0  0
 25 63  1  0  0  0
 26 27  1  0  0  0
 26 64  1  0  0  0
 26 65  1  0  0  0
 27 28  1  0  0  0
 27 66  1  0  0  0
 27 67  1  0  0  0
 29 44  1  0  0  0
 29 30  1  0  0  0
 29 31  1  0  0  0
 30 68  1  0  0  0
 31 32  1  0  0  0
 31 69  1  0  0  0
 31 70  1  0  0  0
 32 33  1  0  0  0
 32 71  1  0  0  0
 33 34  1  0  0  0
 33 72  1  0  0  0
 33 73  1  0  0  0
 34 39  1  0  0  0
 34 35  2  0  0  0
 35 36  1  0  0  0
 35 74  1  0  0  0
 36 37  2  0  0  0
 36 40  1  0  0  0
 37 38  1  0  0  0
 37 75  1  0  0  0
 38 39  2  0  0  0
 38 76  1  0  0  0
 39 77  1  0  0  0
 40 41  1  0  0  0
 40 42  1  0  0  0
 40 78  1  0  0  0
 41 79  1  0  0  0
 41 80  1  0  0  0
 41 81  1  0  0  0
 42 82  1  0  0  0
 42 83  1  0  0  0
 42 84  1  0  0  0
M  END
> <s_m_source_file>
BACE_16.smi

> <i_m_source_file_index>
1

> <i_lp_mmshare_version>
42013

> <i_f3d_flags>
0

> <s_epik_input>
W2NIXTFbY0hdW2NIXWMoW0NIXShbQ0gzXSlbQ0gzXSlbY0hdYzFbQ0gyXVtOSF1bQ0gyXVtDQEBIXShbT0hdKVtDQEBIXShbTkhdQyg9TyljKFtjSF0yKVtjSF1jKFtjSF1jMjMpT1tDSDJdQyg9TylbQ0gzXSlbQ0gyXWM0W2NIXWMoW2NIXVtjSF1bY0hdNClPW0NIMl1bQ0gyXVtDSDJdW0NIMl1PMw==

> <s_epik_cmdline>
J2VwaWtfcHl0aG9uJywgJy1waCcsICc3LjAnLCAnLXRuJywgJzgnLCAnLW1hJywgJzIwMCcsICctaW1hZScsICc8aW5maWxlLm1hZT4nLCAnLW9tYWUnLCAnPG91dGZpbGUubWFlPic=

> <r_lp_tautomer_probability>
1

> <r_epik_Ionization_Penalty>
  2.0439

> <r_epik_Ionization_Penalty_Charging>
  0.0000

> <r_epik_Ionization_Penalty_Neutral>
  2.0439

> <r_epik_State_Penalty>
  2.1759

> <r_epik_Charging_Adjusted_Penalty>
2.17586

> <i_epik_Tot_Q>
0

> <i_epik_Tot_abs_Q>
0

> <s_lp_Force_Field>
OPLS_2005

> <r_lp_Energy>
43.0104

> <b_lp_Chiralities_Consistent>
1

> <s_lp_Variant>
BACE_16.smi:1-2

> <chiral flag>
1

> <version>
0

> <s_i_glide_gridfile>
second_dock_grid_2

> <i_i_glide_lignum>
29

> <i_i_glide_rotatable_bonds>
10

> <r_i_docking_score>
-2.82716

> <r_i_glide_ligand_efficiency>
-0.0673133

> <r_i_glide_ligand_efficiency_sa>
-0.233983

> <r_i_glide_ligand_efficiency_ln>
-0.59674

> <r_glide_XP_GScore>
-5.00306

> <r_i_glide_gscore>
-5.00306

> <r_i_glide_evdw>
-41.975

> <r_i_glide_ecoul>
-14.1203

> <r_i_glide_energy>
-56.0953

> <r_i_glide_einternal>
2.88558

> <r_i_glide_emodel>
-76.0824

> <r_glide_XP_HBond>
-1.21463

> <i_i_glide_confnum>
1

> <i_i_glide_posenum>
1

> <r_i_glide_eff_state_penalty>
2.1759

> <i_glide_XP_PoseRank>
1

$$$$
BACE_19.smi:1
                    3D
 Structure written by MMmdl.
 76 77  0  0  1  0            999 V2000
   32.6235   42.5795  -12.8200 C   0  0  0  0  0  0
   31.2395   42.1395  -13.3097 C   0  0  0  0  0  0
   30.2092   42.0631  -12.1743 C   0  0  0  0  0  0
   28.8185   41.6348  -12.6702 C   0  0  0  0  0  0
   27.8445   41.6424  -11.5862 N   0  0  0  0  0  0
   26.9365   42.6059  -11.3675 C   0  0  0  0  0  0
   26.8163   43.5988  -12.0857 O   0  0  0  0  0  0
   26.0425   42.4312  -10.1312 C   0  0  2  0  0  0
   25.6720   40.9496   -9.9489 C   0  0  0  0  0  0
   24.7719   43.3131  -10.2003 C   0  0  0  0  0  0
   23.5913   42.7277  -11.0134 C   0  0  2  0  0  0
   23.4892   43.4217  -12.2411 O   0  0  0  0  0  0
   22.2499   42.7743  -10.2398 C   0  0  2  0  0  0
   22.2410   42.0195   -8.8846 C   0  0  0  0  0  0
   22.4349   40.4783   -8.8547 C   0  0  2  0  0  0
   21.5435   39.6739   -9.8231 C   0  0  0  0  0  0
   22.3644   39.9221   -7.4072 C   0  0  0  0  0  0
   21.1307   40.2933   -6.5476 C   0  0  0  0  0  0
   19.7895   39.9073   -7.1490 C   0  0  0  0  0  0
   19.3883   38.5564   -7.1743 C   0  0  0  0  0  0
   18.1472   38.2007   -7.7346 C   0  0  0  0  0  0
   17.3086   39.1901   -8.2830 C   0  0  0  0  0  0
   17.7097   40.5439   -8.2852 C   0  0  0  0  0  0
   16.8221   41.6358   -8.8695 C   0  0  0  0  0  0
   16.3642   41.3561  -10.6480 S   0  0  0  0  0  0
   15.6299   40.0847  -10.7333 O   0  0  0  0  0  0
   15.7052   42.5771  -11.1330 O   0  0  0  0  0  0
   17.9877   41.0968  -11.5343 C   0  0  0  0  0  0
   18.8268   42.3346  -11.9671 C   0  0  1  0  0  0
   18.0481   43.5327  -12.5383 C   0  0  0  0  0  0
   19.8294   42.7849  -10.8959 C   0  0  0  0  0  0
   19.4544   43.4508   -9.9320 O   0  0  0  0  0  0
   21.1122   42.4366  -11.0981 N   0  0  0  0  0  0
   18.9394   40.8958   -7.6907 C   0  0  0  0  0  0
   26.6163   42.7304   -9.2526 H   0  0  0  0  0  0
   23.7983   41.6831  -11.2470 H   0  0  0  0  0  0
   22.1139   43.8241   -9.9726 H   0  0  0  0  0  0
   23.4573   40.2851   -9.1802 H   0  0  0  0  0  0
   19.4337   41.9730  -12.7995 H   0  0  0  0  0  0
   33.3315   42.6266  -13.6477 H   0  0  0  0  0  0
   33.0208   41.8824  -12.0819 H   0  0  0  0  0  0
   32.5825   43.5676  -12.3607 H   0  0  0  0  0  0
   30.8912   42.8365  -14.0729 H   0  0  0  0  0  0
   31.3228   41.1663  -13.7951 H   0  0  0  0  0  0
   30.5570   41.3607  -11.4157 H   0  0  0  0  0  0
   30.1405   43.0356  -11.6848 H   0  0  0  0  0  0
   28.4838   42.2810  -13.4837 H   0  0  0  0  0  0
   28.8635   40.6235  -13.0752 H   0  0  0  0  0  0
   27.8815   40.8711  -10.9353 H   0  0  0  0  0  0
   26.5609   40.3186   -9.9111 H   0  0  0  0  0  0
   25.0425   40.5900  -10.7638 H   0  0  0  0  0  0
   25.1251   40.7969   -9.0181 H   0  0  0  0  0  0
   24.4310   43.5213   -9.1850 H   0  0  0  0  0  0
   25.0487   44.2817  -10.6186 H   0  0  0  0  0  0
   23.4589   42.7873  -12.9411 H   0  0  0  0  0  0
   23.0120   42.4623   -8.2527 H   0  0  0  0  0  0
   21.3079   42.2728   -8.3906 H   0  0  0  0  0  0
   20.4925   39.9286   -9.7230 H   0  0  0  0  0  0
   21.6410   38.6018   -9.6518 H   0  0  0  0  0  0
   21.8164   39.8471  -10.8625 H   0  0  0  0  0  0
   22.4567   38.8360   -7.4407 H   0  0  0  0  0  0
   23.2499   40.2638   -6.8699 H   0  0  0  0  0  0
   21.2157   39.8006   -5.5784 H   0  0  0  0  0  0
   21.1341   41.3603   -6.3244 H   0  0  0  0  0  0
   20.0298   37.7919   -6.7611 H   0  0  0  0  0  0
   17.8364   37.1664   -7.7433 H   0  0  0  0  0  0
   16.3551   38.8963   -8.6938 H   0  0  0  0  0  0
   15.8987   41.6885   -8.2930 H   0  0  0  0  0  0
   17.2984   42.6116   -8.7899 H   0  0  0  0  0  0
   18.5843   40.4024  -10.9445 H   0  0  0  0  0  0
   17.7306   40.5490  -12.4410 H   0  0  0  0  0  0
   18.7205   44.2136  -13.0611 H   0  0  0  0  0  0
   17.5520   44.1153  -11.7622 H   0  0  0  0  0  0
   17.2964   43.2070  -13.2576 H   0  0  0  0  0  0
   21.3249   41.8970  -11.9248 H   0  0  0  0  0  0
   19.2348   41.9334   -7.6591 H   0  0  0  0  0  0
  1  2  1  0  0  0
  1 40  1  0  0  0
  1 41  1  0  0  0
  1 42  1  0  0  0
  2  3  1  0  0  0
  2 43  1  0  0  0
  2 44  1  0  0  0
  3  4  1  0  0  0
  3 45  1  0  0  0
  3 46  1  0  0  0
  4  5  1  0  0  0
  4 47  1  0  0  0
  4 48  1  0  0  0
  5  6  1  0  0  0
  5 49  1  0  0  0
  6  7  2  0  0  0
  6  8  1  0  0  0
  8 35  1  0  0  0
  8  9  1  0  0  0
  8 10  1  0  0  0
  9 50  1  0  0  0
  9 51  1  0  0  0
  9 52  1  0  0  0
 10 11  1  0  0  0
 10 53  1  0  0  0
 10 54  1  0  0  0
 11 36  1  0  0  0
 11 12  1  0  0  0
 11 13  1  0  0  0
 12 55  1  0  0  0
 13 37  1  0  0  0
 13 33  1  0  0  0
 13 14  1  0  0  0
 14 15  1  0  0  0
 14 56  1  0  0  0
 14 57  1  0  0  0
 15 38  1  0  0  0
 15 16  1  0  0  0
 15 17  1  0  0  0
 16 58  1  0  0  0
 16 59  1  0  0  0
 16 60  1  0  0  0
 17 18  1  0  0  0
 17 61  1  0  0  0
 17 62  1  0  0  0
 18 19  1  0  0  0
 18 63  1  0  0  0
 18 64  1  0  0  0
 19 34  1  0  0  0
 19 20  2  0  0  0
 20 21  1  0  0  0
 20 65  1  0  0  0
 21 22  2  0  0  0
 21 66  1  0  0  0
 22 23  1  0  0  0
 22 67  1  0  0  0
 23 24  1  0  0  0
 23 34  2  0  0  0
 24 25  1  0  0  0
 24 68  1  0  0  0
 24 69  1  0  0  0
 25 26  2  0  0  0
 25 27  2  0  0  0
 25 28  1  0  0  0
 28 29  1  0  0  0
 28 70  1  0  0  0
 28 71  1  0  0  0
 29 39  1  0  0  0
 29 30  1  0  0  0
 29 31  1  0  0  0
 30 72  1  0  0  0
 30 73  1  0  0  0
 30 74  1  0  0  0
 31 32  2  0  0  0
 31 33  1  0  0  0
 33 75  1  0  0  0
 34 76  1  0  0  0
M  END
> <s_m_source_file>
BACE_19.smi

> <i_m_source_file_index>
1

> <i_lp_mmshare_version>
42013

> <i_f3d_flags>
0

> <s_epik_input>
W0NIM11bQ0gyXVtDSDJdW0NIMl1bTkhdQyg9TylbQ0BIXShbQ0gzXSlbQ0gyXVtDQEhdKFtPSF0pW0NASF0oW0NIMl1bQ0BIXShbQ0gzXSlbQ0gyXVtDSDJdMSlbTkhdQyg9TylbQ0BIXShbQ0gzXSlbQ0gyXVMoPU8pKD1PKVtDSDJdYyhbY0hdMilbY0hdW2NIXVtjSF1jMTI=

> <s_epik_cmdline>
J2VwaWtfcHl0aG9uJywgJy1waCcsICc3LjAnLCAnLXRuJywgJzgnLCAnLW1hJywgJzIwMCcsICctaW1hZScsICc8aW5maWxlLm1hZT4nLCAnLW9tYWUnLCAnPG91dGZpbGUubWFlPic=

> <r_lp_tautomer_probability>
1

> <r_epik_Ionization_Penalty>
  0.0000

> <r_epik_Ionization_Penalty_Charging>
  0.0000

> <r_epik_Ionization_Penalty_Neutral>
  0.0000

> <r_epik_State_Penalty>
 -0.0000

> <r_epik_Charging_Adjusted_Penalty>
0

> <i_epik_Tot_Q>
0

> <i_epik_Tot_abs_Q>
0

> <s_lp_Force_Field>
OPLS_2005

> <r_lp_Energy>
20.2302

> <b_lp_Chiralities_Consistent>
1

> <s_lp_Variant>
BACE_19.smi:1-1

> <chiral flag>
1

> <version>
0

> <s_i_glide_gridfile>
second_dock_grid_2

> <i_i_glide_lignum>
30

> <i_i_glide_rotatable_bonds>
9

> <r_i_docking_score>
-3.92036

> <r_i_glide_ligand_efficiency>
-0.115305

> <r_i_glide_ligand_efficiency_sa>
-0.373542

> <r_i_glide_ligand_efficiency_ln>
-0.866117

> <r_glide_XP_GScore>
-3.92036

> <r_i_glide_gscore>
-3.92036

> <r_i_glide_evdw>
-38.9475

> <r_i_glide_ecoul>
-5.18357

> <r_i_glide_energy>
-44.131

> <r_i_glide_einternal>
4.83681

> <r_i_glide_emodel>
-60.9286

> <r_glide_XP_HBond>
-0.744987

> <i_i_glide_confnum>
1

> <i_i_glide_posenum>
2

> <r_i_glide_eff_state_penalty>
-0

> <i_glide_XP_PoseRank>
1

$$$$
BACE_20.smi:1
                    3D
 Structure written by MMmdl.
 78 79  0  0  1  0            999 V2000
   12.1883   42.9811  -10.6427 C   0  0  0  0  0  0
   13.3814   43.8888  -10.9605 C   0  0  0  0  0  0
   14.7267   43.1507  -10.8950 C   0  0  0  0  0  0
   15.9111   44.1006  -11.1175 C   0  0  0  0  0  0
   17.1815   43.3873  -11.0439 N   0  0  0  0  0  0
   17.9759   43.0832  -12.0812 C   0  0  0  0  0  0
   17.6576   43.3500  -13.2400 O   0  0  0  0  0  0
   19.3474   42.4262  -11.7985 C   0  0  2  0  0  0
   19.7087   41.4077  -12.8982 C   0  0  0  0  0  0
   19.5272   41.8630  -10.3493 C   0  0  0  0  0  0
   20.9667   41.8657   -9.7701 C   0  0  2  0  0  0
   21.4913   43.1708   -9.9547 O   0  0  0  0  0  0
   21.9287   40.7231  -10.2583 C   0  0  2  0  0  0
   21.9092   39.4205   -9.4059 C   0  0  0  0  0  0
   20.5399   38.9431   -8.9455 C   0  0  0  0  0  0
   20.1123   39.1966   -7.6224 C   0  0  0  0  0  0
   18.8579   38.7367   -7.1802 C   0  0  0  0  0  0
   18.0230   38.0149   -8.0558 C   0  0  0  0  0  0
   18.4446   37.7595   -9.3753 C   0  0  0  0  0  0
   19.6979   38.2220   -9.8189 C   0  0  0  0  0  0
   23.3153   41.1813  -10.4386 N   0  0  0  0  0  0
   24.0960   41.6802   -9.4604 C   0  0  0  0  0  0
   23.7339   41.7979   -8.2895 O   0  0  0  0  0  0
   25.4414   42.1925   -9.8802 C   0  0  0  0  0  0
   25.9788   43.3519   -9.2781 C   0  0  0  0  0  0
   27.2714   43.7729   -9.6384 C   0  0  0  0  0  0
   27.8309   44.8891   -9.0018 N   0  0  0  0  0  0
   29.2174   45.2799   -9.2344 C   0  0  0  0  0  0
   30.2163   44.3691   -8.4995 C   0  0  0  0  0  0
   31.6869   44.7402   -8.7470 C   0  0  0  0  0  0
   32.1678   44.4069  -10.1669 C   0  0  0  0  0  0
   28.0090   43.1251  -10.5656 N   0  0  0  0  0  0
   27.5032   42.0097  -11.1411 C   0  0  0  0  0  0
   26.2354   41.4987  -10.8139 C   0  0  0  0  0  0
   28.2749   41.3496  -12.0703 O   0  0  0  0  0  0
   29.6016   41.8091  -12.2996 C   0  0  0  0  0  0
   20.0206   43.2694  -11.9256 H   0  0  0  0  0  0
   20.8833   41.7612   -8.6869 H   0  0  0  0  0  0
   21.6084   40.4213  -11.2500 H   0  0  0  0  0  0
   11.2524   43.5368  -10.6891 H   0  0  0  0  0  0
   12.2724   42.5568   -9.6402 H   0  0  0  0  0  0
   12.1242   42.1552  -11.3525 H   0  0  0  0  0  0
   13.2515   44.3272  -11.9515 H   0  0  0  0  0  0
   13.3924   44.7176  -10.2522 H   0  0  0  0  0  0
   14.8271   42.6691   -9.9212 H   0  0  0  0  0  0
   14.7437   42.3517  -11.6393 H   0  0  0  0  0  0
   15.8048   44.6260  -12.0657 H   0  0  0  0  0  0
   15.9130   44.8705  -10.3440 H   0  0  0  0  0  0
   17.5051   43.1409  -10.1195 H   0  0  0  0  0  0
   20.7850   41.2711  -12.9777 H   0  0  0  0  0  0
   19.3932   41.7500  -13.8807 H   0  0  0  0  0  0
   19.2507   40.4347  -12.7129 H   0  0  0  0  0  0
   18.9565   42.4525   -9.6344 H   0  0  0  0  0  0
   19.0937   40.8657  -10.2862 H   0  0  0  0  0  0
   21.8285   43.2329  -10.8360 H   0  0  0  0  0  0
   22.3838   38.6156   -9.9683 H   0  0  0  0  0  0
   22.5218   39.5371   -8.5104 H   0  0  0  0  0  0
   20.7462   39.7433   -6.9384 H   0  0  0  0  0  0
   18.5312   38.9328   -6.1677 H   0  0  0  0  0  0
   17.0639   37.6589   -7.7073 H   0  0  0  0  0  0
   17.8010   37.2039  -10.0437 H   0  0  0  0  0  0
   20.0134   38.0214  -10.8332 H   0  0  0  0  0  0
   23.7038   41.1094  -11.3740 H   0  0  0  0  0  0
   25.4105   43.8880   -8.5331 H   0  0  0  0  0  0
   27.3160   45.3441   -8.2615 H   0  0  0  0  0  0
   29.4183   45.2843  -10.3062 H   0  0  0  0  0  0
   29.3414   46.3099   -8.8989 H   0  0  0  0  0  0
   30.0166   44.4106   -7.4288 H   0  0  0  0  0  0
   30.0628   43.3317   -8.7953 H   0  0  0  0  0  0
   31.8442   45.8002   -8.5418 H   0  0  0  0  0  0
   32.3119   44.1995   -8.0344 H   0  0  0  0  0  0
   33.2257   44.6422  -10.2828 H   0  0  0  0  0  0
   31.6203   44.9737  -10.9199 H   0  0  0  0  0  0
   32.0377   43.3476  -10.3886 H   0  0  0  0  0  0
   25.8906   40.5707  -11.2398 H   0  0  0  0  0  0
   30.0821   41.1590  -13.0277 H   0  0  0  0  0  0
   30.1950   41.7861  -11.3823 H   0  0  0  0  0  0
   29.6064   42.8250  -12.7006 H   0  0  0  0  0  0
  1  2  1  0  0  0
  1 40  1  0  0  0
  1 41  1  0  0  0
  1 42  1  0  0  0
  2  3  1  0  0  0
  2 43  1  0  0  0
  2 44  1  0  0  0
  3  4  1  0  0  0
  3 45  1  0  0  0
  3 46  1  0  0  0
  4  5  1  0  0  0
  4 47  1  0  0  0
  4 48  1  0  0  0
  5  6  1  0  0  0
  5 49  1  0  0  0
  6  7  2  0  0  0
  6  8  1  0  0  0
  8 37  1  0  0  0
  8  9  1  0  0  0
  8 10  1  0  0  0
  9 50  1  0  0  0
  9 51  1  0  0  0
  9 52  1  0  0  0
 10 11  1  0  0  0
 10 53  1  0  0  0
 10 54  1  0  0  0
 11 38  1  0  0  0
 11 12  1  0  0  0
 11 13  1  0  0  0
 12 55  1  0  0  0
 13 39  1  0  0  0
 13 14  1  0  0  0
 13 21  1  0  0  0
 14 15  1  0  0  0
 14 56  1  0  0  0
 14 57  1  0  0  0
 15 20  1  0  0  0
 15 16  2  0  0  0
 16 17  1  0  0  0
 16 58  1  0  0  0
 17 18  2  0  0  0
 17 59  1  0  0  0
 18 19  1  0  0  0
 18 60  1  0  0  0
 19 20  2  0  0  0
 19 61  1  0  0  0
 20 62  1  0  0  0
 21 22  1  0  0  0
 21 63  1  0  0  0
 22 23  2  0  0  0
 22 24  1  0  0  0
 24 34  1  0  0  0
 24 25  2  0  0  0
 25 26  1  0  0  0
 25 64  1  0  0  0
 26 27  1  0  0  0
 26 32  2  0  0  0
 27 28  1  0  0  0
 27 65  1  0  0  0
 28 29  1  0  0  0
 28 66  1  0  0  0
 28 67  1  0  0  0
 29 30  1  0  0  0
 29 68  1  0  0  0
 29 69  1  0  0  0
 30 31  1  0  0  0
 30 70  1  0  0  0
 30 71  1  0  0  0
 31 72  1  0  0  0
 31 73  1  0  0  0
 31 74  1  0  0  0
 32 33  1  0  0  0
 33 34  2  0  0  0
 33 35  1  0  0  0
 34 75  1  0  0  0
 35 36  1  0  0  0
 36 76  1  0  0  0
 36 77  1  0  0  0
 36 78  1  0  0  0
M  END
> <s_m_source_file>
BACE_20.smi

> <i_m_source_file_index>
1

> <i_lp_mmshare_version>
42013

> <i_f3d_flags>
0

> <s_epik_input>
W0NIM11bQ0gyXVtDSDJdW0NIMl1bTkhdQyg9TylbQ0BIXShbQ0gzXSlbQ0gyXVtDQEhdKFtPSF0pW0NASF0oW0NIMl1jMVtjSF1bY0hdW2NIXVtjSF1bY0hdMSlbTkhdQyg9TyljMltjSF1jKG5jKFtjSF0yKU9bQ0gzXSlbTkhdW0NIMl1bQ0gyXVtDSDJdW0NIM10=

> <s_epik_cmdline>
J2VwaWtfcHl0aG9uJywgJy1waCcsICc3LjAnLCAnLXRuJywgJzgnLCAnLW1hJywgJzIwMCcsICctaW1hZScsICc8aW5maWxlLm1hZT4nLCAnLW9tYWUnLCAnPG91dGZpbGUubWFlPic=

> <r_lp_tautomer_probability>
1

> <r_epik_Ionization_Penalty>
  0.0000

> <r_epik_Ionization_Penalty_Charging>
  0.0000

> <r_epik_Ionization_Penalty_Neutral>
  0.0000

> <r_epik_State_Penalty>
 -0.0000

> <r_epik_Charging_Adjusted_Penalty>
0

> <i_epik_Tot_Q>
0

> <i_epik_Tot_abs_Q>
0

> <s_lp_Force_Field>
OPLS_2005

> <r_lp_Energy>
15.1762

> <b_lp_Chiralities_Consistent>
1

> <s_lp_Variant>
BACE_20.smi:1-1

> <chiral flag>
1

> <version>
0

> <s_i_glide_gridfile>
second_dock_grid_2

> <i_i_glide_lignum>
31

> <i_i_glide_rotatable_bonds>
19

> <r_i_docking_score>
-5.53372

> <r_i_glide_ligand_efficiency>
-0.153715

> <r_i_glide_ligand_efficiency_sa>
-0.507554

> <r_i_glide_ligand_efficiency_ln>
-1.20731

> <r_glide_XP_GScore>
-5.53372

> <r_i_glide_gscore>
-5.53372

> <r_i_glide_evdw>
-42.4409

> <r_i_glide_ecoul>
-8.40727

> <r_i_glide_energy>
-50.8481

> <r_i_glide_einternal>
4.39935

> <r_i_glide_emodel>
-73.5029

> <r_glide_XP_HBond>
-1.23635

> <i_i_glide_confnum>
1

> <i_i_glide_posenum>
4

> <r_i_glide_eff_state_penalty>
-0

> <i_glide_XP_PoseRank>
1

$$$$
BACE_21.smi:1
                    3D
 Structure written by MMmdl.
 83 84  0  0  1  0            999 V2000
   15.5486   45.3703   -8.3960 C   0  0  0  0  0  0
   16.4542   44.1351   -8.3029 C   0  0  0  0  0  0
   17.7880   44.3573   -9.0281 C   0  0  0  0  0  0
   15.7445   42.8775   -8.7891 C   0  0  0  0  0  0
   15.5072   41.8229   -7.8851 C   0  0  0  0  0  0
   14.8600   40.6430   -8.2982 C   0  0  0  0  0  0
   14.6272   39.5241   -7.2892 C   0  0  0  0  0  0
   15.7412   38.5536   -7.2913 N   0  3  0  0  0  0
   17.0883   39.1570   -7.2695 C   0  0  0  0  0  0
   18.2170   38.1286   -7.1626 C   0  0  1  0  0  0
   17.9267   37.0591   -8.0402 O   0  0  0  0  0  0
   19.6222   38.7232   -7.4595 C   0  0  2  0  0  0
   20.0211   39.7663   -6.3867 C   0  0  0  0  0  0
   21.4861   40.2563   -6.4412 C   0  0  2  0  0  0
   22.0890   40.3187   -5.0256 C   0  0  0  0  0  0
   21.5573   41.6217   -7.1516 C   0  0  0  0  0  0
   22.9756   42.1314   -7.4366 C   0  0  0  0  0  0
   22.9177   43.3953   -8.2593 C   0  0  0  0  0  0
   23.3556   43.5025   -9.5219 C   0  0  0  0  0  0
   23.1878   44.7509  -10.3570 C   0  0  0  0  0  0
   22.3169   44.5223  -11.6027 C   0  0  0  0  0  0
   20.9044   43.9642  -11.3190 C   0  0  0  0  0  0
   20.8079   42.4244  -11.4489 C   0  0  0  0  0  0
   19.3709   41.8763  -11.5245 C   0  0  0  0  0  0
   18.4604   42.6726  -11.7641 O   0  0  0  0  0  0
   19.1119   40.5535  -11.3258 N   0  0  0  0  0  0
   17.7044   40.1683  -11.1685 C   0  0  0  0  0  0
   20.0894   39.4379  -11.2444 C   0  0  1  0  0  0
   21.2376   39.5268  -12.2744 C   0  0  0  0  0  0
   20.4498   38.9418   -9.8196 C   0  0  0  0  0  0
   21.3989   38.1769   -9.6469 O   0  0  0  0  0  0
   19.6495   39.3148   -8.8064 N   0  0  0  0  0  0
   14.4561   40.5080   -9.6409 C   0  0  0  0  0  0
   14.6640   41.5650  -10.5468 C   0  0  0  0  0  0
   15.3108   42.7449  -10.1274 C   0  0  0  0  0  0
   18.2185   37.7083   -6.1551 H   0  0  0  0  0  0
   20.3368   37.9012   -7.3954 H   0  0  0  0  0  0
   22.0716   39.5372   -7.0155 H   0  0  0  0  0  0
   19.5407   38.5779  -11.6308 H   0  0  0  0  0  0
   14.6404   45.2311   -7.8101 H   0  0  0  0  0  0
   15.2603   45.5764   -9.4262 H   0  0  0  0  0  0
   16.0589   46.2550   -8.0167 H   0  0  0  0  0  0
   16.6936   43.9899   -7.2475 H   0  0  0  0  0  0
   18.4373   43.4854   -8.9382 H   0  0  0  0  0  0
   18.3246   45.2095   -8.6094 H   0  0  0  0  0  0
   17.6382   44.5551  -10.0892 H   0  0  0  0  0  0
   15.8226   41.9160   -6.8551 H   0  0  0  0  0  0
   14.5228   39.9431   -6.2873 H   0  0  0  0  0  0
   13.6955   39.0023   -7.5098 H   0  0  0  0  0  0
   15.6580   37.9196   -6.4919 H   0  0  0  0  0  0
   17.2242   39.7319   -8.1808 H   0  0  0  0  0  0
   17.1411   39.8503   -6.4402 H   0  0  0  0  0  0
   17.3618   36.4676   -7.5527 H   0  0  0  0  0  0
   19.3507   40.6246   -6.4424 H   0  0  0  0  0  0
   19.8223   39.3501   -5.4023 H   0  0  0  0  0  0
   21.5619   41.0396   -4.4009 H   0  0  0  0  0  0
   23.1410   40.5996   -5.0433 H   0  0  0  0  0  0
   22.0336   39.3495   -4.5322 H   0  0  0  0  0  0
   21.0265   41.5543   -8.1021 H   0  0  0  0  0  0
   21.0180   42.3680   -6.5654 H   0  0  0  0  0  0
   23.4980   42.3631   -6.5097 H   0  0  0  0  0  0
   23.5557   41.3698   -7.9609 H   0  0  0  0  0  0
   22.4370   44.2403   -7.7883 H   0  0  0  0  0  0
   23.8156   42.6534  -10.0081 H   0  0  0  0  0  0
   22.7489   45.5401   -9.7457 H   0  0  0  0  0  0
   24.1739   45.1046  -10.6545 H   0  0  0  0  0  0
   22.2109   45.4828  -12.1064 H   0  0  0  0  0  0
   22.8439   43.8832  -12.3115 H   0  0  0  0  0  0
   20.5551   44.2864  -10.3387 H   0  0  0  0  0  0
   20.2272   44.4293  -12.0364 H   0  0  0  0  0  0
   21.3158   42.1457  -12.3707 H   0  0  0  0  0  0
   21.3376   41.9458  -10.6249 H   0  0  0  0  0  0
   17.2917   40.6696  -10.2948 H   0  0  0  0  0  0
   17.5571   39.0987  -11.0203 H   0  0  0  0  0  0
   17.1160   40.4705  -12.0360 H   0  0  0  0  0  0
   21.5996   38.5505  -12.5868 H   0  0  0  0  0  0
   22.0829   40.0785  -11.8749 H   0  0  0  0  0  0
   20.9128   40.0117  -13.1954 H   0  0  0  0  0  0
   18.9132   39.9682   -9.0288 H   0  0  0  0  0  0
   13.9478   39.6115   -9.9686 H   0  0  0  0  0  0
   14.3257   41.4680  -11.5670 H   0  0  0  0  0  0
   15.4789   43.5447  -10.8328 H   0  0  0  0  0  0
   15.6777   37.9883   -8.1235 H   0  0  0  0  0  0
  1  2  1  0  0  0
  1 40  1  0  0  0
  1 41  1  0  0  0
  1 42  1  0  0  0
  2  3  1  0  0  0
  2  4  1  0  0  0
  2 43  1  0  0  0
  3 44  1  0  0  0
  3 45  1  0  0  0
  3 46  1  0  0  0
  4 35  1  0  0  0
  4  5  2  0  0  0
  5  6  1  0  0  0
  5 47  1  0  0  0
  6  7  1  0  0  0
  6 33  2  0  0  0
  7  8  1  0  0  0
  7 48  1  0  0  0
  7 49  1  0  0  0
  8  9  1  0  0  0
  8 50  1  0  0  0
  8 83  1  0  0  0
  9 10  1  0  0  0
  9 51  1  0  0  0
  9 52  1  0  0  0
 10 36  1  0  0  0
 10 11  1  0  0  0
 10 12  1  0  0  0
 11 53  1  0  0  0
 12 37  1  0  0  0
 12 32  1  0  0  0
 12 13  1  0  0  0
 13 14  1  0  0  0
 13 54  1  0  0  0
 13 55  1  0  0  0
 14 38  1  0  0  0
 14 15  1  0  0  0
 14 16  1  0  0  0
 15 56  1  0  0  0
 15 57  1  0  0  0
 15 58  1  0  0  0
 16 17  1  0  0  0
 16 59  1  0  0  0
 16 60  1  0  0  0
 17 18  1  0  0  0
 17 61  1  0  0  0
 17 62  1  0  0  0
 18 19  2  0  0  0
 18 63  1  0  0  0
 19 20  1  0  0  0
 19 64  1  0  0  0
 20 21  1  0  0  0
 20 65  1  0  0  0
 20 66  1  0  0  0
 21 22  1  0  0  0
 21 67  1  0  0  0
 21 68  1  0  0  0
 22 23  1  0  0  0
 22 69  1  0  0  0
 22 70  1  0  0  0
 23 24  1  0  0  0
 23 71  1  0  0  0
 23 72  1  0  0  0
 24 25  2  0  0  0
 24 26  1  0  0  0
 26 27  1  0  0  0
 26 28  1  0  0  0
 27 73  1  0  0  0
 27 74  1  0  0  0
 27 75  1  0  0  0
 28 39  1  0  0  0
 28 29  1  0  0  0
 28 30  1  0  0  0
 29 76  1  0  0  0
 29 77  1  0  0  0
 29 78  1  0  0  0
 30 31  2  0  0  0
 30 32  1  0  0  0
 32 79  1  0  0  0
 33 34  1  0  0  0
 33 80  1  0  0  0
 34 35  2  0  0  0
 34 81  1  0  0  0
 35 82  1  0  0  0
M  CHG  1   8   1
M  END
> <s_m_source_file>
BACE_21.smi

> <i_m_source_file_index>
1

> <i_lp_mmshare_version>
42013

> <i_f3d_flags>
0

> <s_epik_input>
W0NIM11bQ0hdKFtDSDNdKWMxW2NIXWMoW2NIXVtjSF1bY0hdMSlbQ0gyXVtOSF1bQ0gyXVtDQEBIXShbT0hdKVtDQEBIXTJbQ0gyXVtDQEhdKFtDSDNdKVtDSDJdW0NIMl0vW0NIXT1bQ0hdL1tDSDJdW0NIMl1bQ0gyXVtDSDJdQyg9TylOKFtDSDNdKVtDQEBIXShbQ0gzXSlDKD1PKVtOSF0y

> <s_epik_cmdline>
J2VwaWtfcHl0aG9uJywgJy1waCcsICc3LjAnLCAnLXRuJywgJzgnLCAnLW1hJywgJzIwMCcsICctaW1hZScsICc8aW5maWxlLm1hZT4nLCAnLW9tYWUnLCAnPG91dGZpbGUubWFlPic=

> <r_epik_Ionization_Penalty>
  0.0182

> <r_epik_Ionization_Penalty_Charging>
  0.0182

> <r_epik_Ionization_Penalty_Neutral>
  0.0000

> <r_epik_State_Penalty>
  0.0145

> <r_epik_Charging_Adjusted_Penalty>
0.0327167

> <i_epik_Tot_Q>
1

> <i_epik_Tot_abs_Q>
1

> <s_lp_Force_Field>
OPLS_2005

> <r_lp_Energy>
31.9362

> <b_lp_Chiralities_Consistent>
1

> <s_lp_Variant>
BACE_21.smi:1-1

> <chiral flag>
1

> <version>
0

> <s_i_glide_gridfile>
second_dock_grid_2

> <i_i_glide_lignum>
32

> <i_i_glide_rotatable_bonds>
7

> <r_i_docking_score>
-6.43675

> <r_i_glide_ligand_efficiency>
-0.183907

> <r_i_glide_ligand_efficiency_sa>
-0.601572

> <r_i_glide_ligand_efficiency_ln>
-1.41301

> <r_glide_XP_GScore>
-6.45125

> <r_i_glide_gscore>
-6.45125

> <r_i_glide_evdw>
-36.1222

> <r_i_glide_ecoul>
-14.1035

> <r_i_glide_energy>
-50.2257

> <r_i_glide_einternal>
8.0811

> <r_i_glide_emodel>
-67.2913

> <r_glide_XP_HBond>
-0.35

> <i_i_glide_confnum>
1

> <i_i_glide_posenum>
11

> <r_i_glide_eff_state_penalty>
0.0145

> <i_glide_XP_PoseRank>
1

$$$$
BACE_21.smi:1
                    3D
 Structure written by MMmdl.
 82 83  0  0  1  0            999 V2000
   21.1364   42.0015   -5.4141 C   0  0  0  0  0  0
   21.0719   40.5088   -5.0668 C   0  0  0  0  0  0
   22.3659   40.0232   -4.3818 C   0  0  0  0  0  0
   20.7057   39.6837   -6.2950 C   0  0  0  0  0  0
   19.3937   39.1771   -6.4399 C   0  0  0  0  0  0
   19.0259   38.4199   -7.5676 C   0  0  0  0  0  0
   17.6100   37.8704   -7.6907 C   0  0  0  0  0  0
   16.9738   38.1997   -8.9648 N   0  0  0  0  0  0
   16.3103   39.5054   -9.0180 C   0  0  0  0  0  0
   16.0748   39.9375  -10.4885 C   0  0  1  0  0  0
   14.8717   40.6879  -10.5895 O   0  0  0  0  0  0
   17.2476   40.7541  -11.1162 C   0  0  2  0  0  0
   18.5881   39.9902  -11.0309 C   0  0  0  0  0  0
   19.8380   40.5829  -11.7297 C   0  0  2  0  0  0
   20.8277   39.4495  -12.0721 C   0  0  0  0  0  0
   20.5433   41.6499  -10.8555 C   0  0  0  0  0  0
   21.8689   42.1662  -11.4337 C   0  0  0  0  0  0
   22.4788   43.2643  -10.5957 C   0  0  0  0  0  0
   22.6137   44.5366  -11.0036 C   0  0  0  0  0  0
   23.2209   45.6361  -10.1586 C   0  0  0  0  0  0
   22.1712   46.6159   -9.6114 C   0  0  0  0  0  0
   21.1727   45.9639   -8.6368 C   0  0  0  0  0  0
   19.8200   45.5776   -9.2779 C   0  0  0  0  0  0
   18.8891   44.8154   -8.3195 C   0  0  0  0  0  0
   19.2756   44.6643   -7.1567 O   0  0  0  0  0  0
   17.6863   44.3217   -8.7326 N   0  0  0  0  0  0
   16.9692   43.4897   -7.7530 C   0  0  0  0  0  0
   17.0189   44.4636  -10.0611 C   0  0  1  0  0  0
   17.1485   45.8326  -10.7623 C   0  0  0  0  0  0
   17.0865   43.2448  -11.0056 C   0  0  0  0  0  0
   16.8604   43.3812  -12.2107 O   0  0  0  0  0  0
   17.3531   42.0523  -10.4517 N   0  0  0  0  0  0
   19.9991   38.1500   -8.5527 C   0  0  0  0  0  0
   21.3142   38.6340   -8.4137 C   0  0  0  0  0  0
   21.6633   39.4107   -7.2950 C   0  0  0  0  0  0
   15.8989   39.0443  -11.0851 H   0  0  0  0  0  0
   17.0176   40.8940  -12.1727 H   0  0  0  0  0  0
   19.5188   41.0366  -12.6684 H   0  0  0  0  0  0
   15.9589   44.4703   -9.8039 H   0  0  0  0  0  0
   20.1862   42.3446   -5.8280 H   0  0  0  0  0  0
   21.9135   42.2048   -6.1523 H   0  0  0  0  0  0
   21.3470   42.6059   -4.5313 H   0  0  0  0  0  0
   20.2668   40.3827   -4.3415 H   0  0  0  0  0  0
   22.2997   38.9655   -4.1237 H   0  0  0  0  0  0
   22.5436   40.5722   -3.4570 H   0  0  0  0  0  0
   23.2513   40.1538   -5.0055 H   0  0  0  0  0  0
   18.6572   39.3497   -5.6695 H   0  0  0  0  0  0
   17.6681   36.7864   -7.6094 H   0  0  0  0  0  0
   16.9893   38.1750   -6.8471 H   0  0  0  0  0  0
   16.3094   37.4666   -9.1934 H   0  0  0  0  0  0
   15.3594   39.4346   -8.4867 H   0  0  0  0  0  0
   16.8929   40.2609   -8.4895 H   0  0  0  0  0  0
   14.1779   40.2182  -10.1483 H   0  0  0  0  0  0
   18.8316   39.8701   -9.9820 H   0  0  0  0  0  0
   18.4044   38.9848  -11.4144 H   0  0  0  0  0  0
   21.3942   39.1438  -11.1962 H   0  0  0  0  0  0
   21.5427   39.7551  -12.8368 H   0  0  0  0  0  0
   20.3288   38.5588  -12.4401 H   0  0  0  0  0  0
   19.8864   42.5044  -10.7085 H   0  0  0  0  0  0
   20.7308   41.2466   -9.8588 H   0  0  0  0  0  0
   22.6041   41.3650  -11.5007 H   0  0  0  0  0  0
   21.7080   42.5348  -12.4409 H   0  0  0  0  0  0
   22.8128   42.9788   -9.6100 H   0  0  0  0  0  0
   22.2582   44.8277  -11.9805 H   0  0  0  0  0  0
   23.7774   45.1943   -9.3309 H   0  0  0  0  0  0
   23.9492   46.1726  -10.7685 H   0  0  0  0  0  0
   22.7044   47.4048   -9.0793 H   0  0  0  0  0  0
   21.6444   47.1146  -10.4264 H   0  0  0  0  0  0
   21.6363   45.0969   -8.1625 H   0  0  0  0  0  0
   20.9753   46.6673   -7.8269 H   0  0  0  0  0  0
   19.3414   46.5073   -9.5765 H   0  0  0  0  0  0
   19.9752   44.9730  -10.1712 H   0  0  0  0  0  0
   17.5278   42.5783   -7.5344 H   0  0  0  0  0  0
   15.9717   43.1861   -8.0723 H   0  0  0  0  0  0
   16.8621   44.0314   -6.8159 H   0  0  0  0  0  0
   16.3529   45.9593  -11.4982 H   0  0  0  0  0  0
   18.0846   45.9289  -11.3117 H   0  0  0  0  0  0
   17.0570   46.6589  -10.0575 H   0  0  0  0  0  0
   17.5287   42.0338   -9.4589 H   0  0  0  0  0  0
   19.7390   37.5567   -9.4170 H   0  0  0  0  0  0
   22.0590   38.4116   -9.1637 H   0  0  0  0  0  0
   22.6715   39.7871   -7.2076 H   0  0  0  0  0  0
  1  2  1  0  0  0
  1 40  1  0  0  0
  1 41  1  0  0  0
  1 42  1  0  0  0
  2  3  1  0  0  0
  2  4  1  0  0  0
  2 43  1  0  0  0
  3 44  1  0  0  0
  3 45  1  0  0  0
  3 46  1  0  0  0
  4 35  1  0  0  0
  4  5  2  0  0  0
  5  6  1  0  0  0
  5 47  1  0  0  0
  6  7  1  0  0  0
  6 33  2  0  0  0
  7  8  1  0  0  0
  7 48  1  0  0  0
  7 49  1  0  0  0
  8  9  1  0  0  0
  8 50  1  0  0  0
  9 10  1  0  0  0
  9 51  1  0  0  0
  9 52  1  0  0  0
 10 36  1  0  0  0
 10 11  1  0  0  0
 10 12  1  0  0  0
 11 53  1  0  0  0
 12 37  1  0  0  0
 12 32  1  0  0  0
 12 13  1  0  0  0
 13 14  1  0  0  0
 13 54  1  0  0  0
 13 55  1  0  0  0
 14 38  1  0  0  0
 14 15  1  0  0  0
 14 16  1  0  0  0
 15 56  1  0  0  0
 15 57  1  0  0  0
 15 58  1  0  0  0
 16 17  1  0  0  0
 16 59  1  0  0  0
 16 60  1  0  0  0
 17 18  1  0  0  0
 17 61  1  0  0  0
 17 62  1  0  0  0
 18 19  2  0  0  0
 18 63  1  0  0  0
 19 20  1  0  0  0
 19 64  1  0  0  0
 20 21  1  0  0  0
 20 65  1  0  0  0
 20 66  1  0  0  0
 21 22  1  0  0  0
 21 67  1  0  0  0
 21 68  1  0  0  0
 22 23  1  0  0  0
 22 69  1  0  0  0
 22 70  1  0  0  0
 23 24  1  0  0  0
 23 71  1  0  0  0
 23 72  1  0  0  0
 24 25  2  0  0  0
 24 26  1  0  0  0
 26 27  1  0  0  0
 26 28  1  0  0  0
 27 73  1  0  0  0
 27 74  1  0  0  0
 27 75  1  0  0  0
 28 39  1  0  0  0
 28 29  1  0  0  0
 28 30  1  0  0  0
 29 76  1  0  0  0
 29 77  1  0  0  0
 29 78  1  0  0  0
 30 31  2  0  0  0
 30 32  1  0  0  0
 32 79  1  0  0  0
 33 34  1  0  0  0
 33 80  1  0  0  0
 34 35  2  0  0  0
 34 81  1  0  0  0
 35 82  1  0  0  0
M  END
> <s_m_source_file>
BACE_21.smi

> <i_m_source_file_index>
1

> <i_lp_mmshare_version>
42013

> <i_f3d_flags>
0

> <s_epik_input>
W0NIM11bQ0hdKFtDSDNdKWMxW2NIXWMoW2NIXVtjSF1bY0hdMSlbQ0gyXVtOSF1bQ0gyXVtDQEBIXShbT0hdKVtDQEBIXTJbQ0gyXVtDQEhdKFtDSDNdKVtDSDJdW0NIMl0vW0NIXT1bQ0hdL1tDSDJdW0NIMl1bQ0gyXVtDSDJdQyg9TylOKFtDSDNdKVtDQEBIXShbQ0gzXSlDKD1PKVtOSF0y

> <s_epik_cmdline>
J2VwaWtfcHl0aG9uJywgJy1waCcsICc3LjAnLCAnLXRuJywgJzgnLCAnLW1hJywgJzIwMCcsICctaW1hZScsICc8aW5maWxlLm1hZT4nLCAnLW9tYWUnLCAnPG91dGZpbGUubWFlPic=

> <r_epik_Ionization_Penalty>
  2.0718

> <r_epik_Ionization_Penalty_Charging>
  0.0000

> <r_epik_Ionization_Penalty_Neutral>
  2.0718

> <r_epik_State_Penalty>
  2.2058

> <r_epik_Charging_Adjusted_Penalty>
2.20584

> <i_epik_Tot_Q>
0

> <i_epik_Tot_abs_Q>
0

> <s_lp_Force_Field>
OPLS_2005

> <r_lp_Energy>
40.4832

> <b_lp_Chiralities_Consistent>
1

> <s_lp_Variant>
BACE_21.smi:1-2

> <chiral flag>
1

> <version>
0

> <s_i_glide_gridfile>
second_dock_grid_2

> <i_i_glide_lignum>
33

> <i_i_glide_rotatable_bonds>
7

> <r_i_docking_score>
-1.91574

> <r_i_glide_ligand_efficiency>
-0.0547353

> <r_i_glide_ligand_efficiency_sa>
-0.179043

> <r_i_glide_ligand_efficiency_ln>
-0.420547

> <r_glide_XP_GScore>
-4.12154

> <r_i_glide_gscore>
-4.12154

> <r_i_glide_evdw>
-36.9712

> <r_i_glide_ecoul>
-10.5915

> <r_i_glide_energy>
-47.5628

> <r_i_glide_einternal>
9.25169

> <r_i_glide_emodel>
-55.905

> <r_glide_XP_HBond>
-0.7

> <i_i_glide_confnum>
1

> <i_i_glide_posenum>
1

> <r_i_glide_eff_state_penalty>
2.2058

> <i_glide_XP_PoseRank>
1

$$$$
BACE_22.smi:1
                    3D
 Structure written by MMmdl.
 79 80  0  0  1  0            999 V2000
   14.1821   38.8640   -7.8412 C   0  0  0  0  0  0
   15.4106   38.6716   -8.7433 C   0  0  2  0  0  0
   16.5869   38.3108   -7.9202 N   0  3  0  0  0  0
   17.1310   39.3724   -7.0404 C   0  0  0  0  0  0
   18.6838   39.4231   -7.0646 C   0  0  1  0  0  0
   19.1850   38.1500   -7.4146 O   0  0  0  0  0  0
   19.3620   40.5099   -7.9533 C   0  0  2  0  0  0
   20.8957   40.5017   -7.6888 C   0  0  0  0  0  0
   21.7792   41.4965   -8.4726 C   0  0  2  0  0  0
   21.7818   41.2052   -9.9840 C   0  0  0  0  0  0
   23.2249   41.4922   -7.9185 C   0  0  0  0  0  0
   23.8451   42.8959   -7.8036 C   0  0  0  0  0  0
   23.3520   43.6635   -6.5605 C   0  0  0  0  0  0
   23.9762   45.0637   -6.3943 C   0  0  0  0  0  0
   23.6785   46.0549   -7.5379 C   0  0  0  0  0  0
   22.1863   46.3200   -7.8059 C   0  0  0  0  0  0
   21.4691   47.0838   -6.6766 C   0  0  0  0  0  0
   19.9800   47.3510   -6.9708 C   0  0  0  0  0  0
   19.1154   46.0886   -6.7982 C   0  0  0  0  0  0
   18.8598   45.7536   -5.6402 O   0  0  0  0  0  0
   18.6838   45.3897   -7.8819 N   0  0  0  0  0  0
   18.8616   45.9064   -9.2485 C   0  0  0  0  0  0
   17.9514   44.1088   -7.7238 C   0  0  1  0  0  0
   16.4753   44.2787   -8.1212 C   0  0  0  0  0  0
   18.6206   42.8939   -8.4019 C   0  0  0  0  0  0
   18.9646   42.9274   -9.5819 O   0  0  0  0  0  0
   18.7839   41.8130   -7.6254 N   0  0  0  0  0  0
   15.7179   39.8490   -9.6727 C   0  0  0  0  0  0
   16.9031   39.8290  -10.4401 C   0  0  0  0  0  0
   17.2591   40.9306  -11.2399 C   0  0  0  0  0  0
   16.4266   42.0622  -11.2860 C   0  0  0  0  0  0
   15.2098   42.0693  -10.5791 C   0  0  0  0  0  0
   14.0380   43.5635  -10.7131 Br  0  0  0  0  0  0
   14.8599   40.9690   -9.7751 C   0  0  0  0  0  0
   15.2113   37.8119   -9.3842 H   0  0  0  0  0  0
   19.0077   39.6097   -6.0399 H   0  0  0  0  0  0
   19.1735   40.2831   -9.0011 H   0  0  0  0  0  0
   21.3716   42.4952   -8.3247 H   0  0  0  0  0  0
   17.9131   43.8400   -6.6669 H   0  0  0  0  0  0
   14.0604   38.0096   -7.1748 H   0  0  0  0  0  0
   13.2707   38.9504   -8.4343 H   0  0  0  0  0  0
   14.2647   39.7497   -7.2081 H   0  0  0  0  0  0
   17.3488   38.0203   -8.5161 H   0  0  0  0  0  0
   16.7909   39.1134   -6.0398 H   0  0  0  0  0  0
   16.6935   40.3498   -7.2432 H   0  0  0  0  0  0
   19.2644   37.6313   -6.6269 H   0  0  0  0  0  0
   21.0438   40.6834   -6.6240 H   0  0  0  0  0  0
   21.2923   39.5030   -7.8682 H   0  0  0  0  0  0
   22.3968   41.9297  -10.5175 H   0  0  0  0  0  0
   20.7820   41.2543  -10.4129 H   0  0  0  0  0  0
   22.1793   40.2116  -10.1973 H   0  0  0  0  0  0
   23.2599   41.0193   -6.9369 H   0  0  0  0  0  0
   23.8565   40.8651   -8.5512 H   0  0  0  0  0  0
   23.6417   43.4544   -8.7186 H   0  0  0  0  0  0
   24.9283   42.7982   -7.7452 H   0  0  0  0  0  0
   22.2661   43.7404   -6.5690 H   0  0  0  0  0  0
   23.5923   43.0779   -5.6708 H   0  0  0  0  0  0
   25.0579   44.9584   -6.2913 H   0  0  0  0  0  0
   23.6373   45.4881   -5.4478 H   0  0  0  0  0  0
   24.1761   47.0017   -7.3267 H   0  0  0  0  0  0
   24.1398   45.6897   -8.4549 H   0  0  0  0  0  0
   21.6792   45.3782   -8.0112 H   0  0  0  0  0  0
   22.1036   46.9019   -8.7245 H   0  0  0  0  0  0
   21.5614   46.5346   -5.7392 H   0  0  0  0  0  0
   21.9737   48.0359   -6.5120 H   0  0  0  0  0  0
   19.8650   47.8367   -7.9378 H   0  0  0  0  0  0
   19.6132   48.0796   -6.2493 H   0  0  0  0  0  0
   18.3501   45.3029   -9.9966 H   0  0  0  0  0  0
   19.9146   45.9381   -9.5270 H   0  0  0  0  0  0
   18.4418   46.9075   -9.3478 H   0  0  0  0  0  0
   15.9184   43.3575   -7.9447 H   0  0  0  0  0  0
   16.3639   44.5359   -9.1734 H   0  0  0  0  0  0
   15.9971   45.0633   -7.5356 H   0  0  0  0  0  0
   18.4594   41.8973   -6.6668 H   0  0  0  0  0  0
   17.5658   38.9757  -10.4055 H   0  0  0  0  0  0
   18.1843   40.9126  -11.7969 H   0  0  0  0  0  0
   16.7198   42.9171  -11.8761 H   0  0  0  0  0  0
   13.9242   41.0096   -9.2396 H   0  0  0  0  0  0
   16.3429   37.5205   -7.3203 H   0  0  0  0  0  0
  1  2  1  0  0  0
  1 40  1  0  0  0
  1 41  1  0  0  0
  1 42  1  0  0  0
  2 35  1  0  0  0
  2  3  1  0  0  0
  2 28  1  0  0  0
  3  4  1  0  0  0
  3 43  1  0  0  0
  3 79  1  0  0  0
  4  5  1  0  0  0
  4 44  1  0  0  0
  4 45  1  0  0  0
  5 36  1  0  0  0
  5  6  1  0  0  0
  5  7  1  0  0  0
  6 46  1  0  0  0
  7 37  1  0  0  0
  7 27  1  0  0  0
  7  8  1  0  0  0
  8  9  1  0  0  0
  8 47  1  0  0  0
  8 48  1  0  0  0
  9 38  1  0  0  0
  9 10  1  0  0  0
  9 11  1  0  0  0
 10 49  1  0  0  0
 10 50  1  0  0  0
 10 51  1  0  0  0
 11 12  1  0  0  0
 11 52  1  0  0  0
 11 53  1  0  0  0
 12 13  1  0  0  0
 12 54  1  0  0  0
 12 55  1  0  0  0
 13 14  1  0  0  0
 13 56  1  0  0  0
 13 57  1  0  0  0
 14 15  1  0  0  0
 14 58  1  0  0  0
 14 59  1  0  0  0
 15 16  1  0  0  0
 15 60  1  0  0  0
 15 61  1  0  0  0
 16 17  1  0  0  0
 16 62  1  0  0  0
 16 63  1  0  0  0
 17 18  1  0  0  0
 17 64  1  0  0  0
 17 65  1  0  0  0
 18 19  1  0  0  0
 18 66  1  0  0  0
 18 67  1  0  0  0
 19 20  2  0  0  0
 19 21  1  0  0  0
 21 22  1  0  0  0
 21 23  1  0  0  0
 22 68  1  0  0  0
 22 69  1  0  0  0
 22 70  1  0  0  0
 23 39  1  0  0  0
 23 24  1  0  0  0
 23 25  1  0  0  0
 24 71  1  0  0  0
 24 72  1  0  0  0
 24 73  1  0  0  0
 25 26  2  0  0  0
 25 27  1  0  0  0
 27 74  1  0  0  0
 28 34  1  0  0  0
 28 29  2  0  0  0
 29 30  1  0  0  0
 29 75  1  0  0  0
 30 31  2  0  0  0
 30 76  1  0  0  0
 31 32  1  0  0  0
 31 77  1  0  0  0
 32 33  1  0  0  0
 32 34  2  0  0  0
 34 78  1  0  0  0
M  CHG  1   3   1
M  END
> <s_m_source_file>
BACE_22.smi

> <i_m_source_file_index>
1

> <i_lp_mmshare_version>
42013

> <i_f3d_flags>
0

> <s_epik_input>
QnJjKFtjSF0xKVtjSF1bY0hdW2NIXWMxW0NASF0oW0NIM10pW05IXVtDSDJdW0NAQEhdKFtPSF0pW0NAQEhdMltDSDJdW0NASF0oW0NIM10pW0NIMl1bQ0gyXVtDSDJdW0NIMl1bQ0gyXVtDSDJdW0NIMl1bQ0gyXUMoPU8pTihbQ0gzXSlbQ0BASF0oW0NIM10pQyg9TylbTkhdMg==

> <s_epik_cmdline>
J2VwaWtfcHl0aG9uJywgJy1waCcsICc3LjAnLCAnLXRuJywgJzgnLCAnLW1hJywgJzIwMCcsICctaW1hZScsICc8aW5maWxlLm1hZT4nLCAnLW9tYWUnLCAnPG91dGZpbGUubWFlPic=

> <r_epik_Ionization_Penalty>
  0.0224

> <r_epik_Ionization_Penalty_Charging>
  0.0224

> <r_epik_Ionization_Penalty_Neutral>
  0.0000

> <r_epik_State_Penalty>
  0.0180

> <r_epik_Charging_Adjusted_Penalty>
0.0404039

> <i_epik_Tot_Q>
1

> <i_epik_Tot_abs_Q>
1

> <s_lp_Force_Field>
OPLS_2005

> <r_lp_Energy>
33.6396

> <b_lp_Chiralities_Consistent>
1

> <s_lp_Variant>
BACE_22.smi:1-1

> <chiral flag>
1

> <version>
0

> <s_i_glide_gridfile>
second_dock_grid_2

> <i_i_glide_lignum>
34

> <i_i_glide_rotatable_bonds>
6

> <r_i_docking_score>
-5.6393

> <r_i_glide_ligand_efficiency>
-0.165862

> <r_i_glide_ligand_efficiency_sa>
-0.537327

> <r_i_glide_ligand_efficiency_ln>
-1.24588

> <r_glide_XP_GScore>
-5.6573

> <r_i_glide_gscore>
-5.6573

> <r_i_glide_evdw>
-31.3027

> <r_i_glide_ecoul>
-17.7002

> <r_i_glide_energy>
-49.0029

> <r_i_glide_einternal>
16.6255

> <r_i_glide_emodel>
-59.6778

> <r_glide_XP_HBond>
-0.63491

> <i_i_glide_confnum>
1

> <i_i_glide_posenum>
146

> <r_i_glide_eff_state_penalty>
0.018

> <i_glide_XP_PoseRank>
1

$$$$
BACE_22.smi:1
                    3D
 Structure written by MMmdl.
 78 79  0  0  1  0            999 V2000
   17.1114   39.2285   -8.3504 C   0  0  0  0  0  0
   18.6483   39.2105   -8.3998 C   0  0  2  0  0  0
   19.1849   39.9801   -7.2685 N   0  0  0  0  0  0
   20.4835   39.5541   -6.7305 C   0  0  0  0  0  0
   20.9877   40.4209   -5.5496 C   0  0  1  0  0  0
   22.1096   39.7492   -5.0080 O   0  0  0  0  0  0
   21.3641   41.8520   -5.9224 C   0  0  2  0  0  0
   22.0350   42.5238   -4.7010 C   0  0  0  0  0  0
   22.4024   44.0172   -4.8661 C   0  0  2  0  0  0
   21.1488   44.8004   -5.2454 C   0  0  0  0  0  0
   23.5284   44.2923   -5.8868 C   0  0  0  0  0  0
   23.5055   45.7240   -6.4552 C   0  0  0  0  0  0
   23.7381   46.8341   -5.4097 C   0  0  0  0  0  0
   23.6214   48.2668   -5.9768 C   0  0  0  0  0  0
   22.2541   48.6297   -6.6006 C   0  0  0  0  0  0
   21.0653   48.5258   -5.6225 C   0  0  0  0  0  0
   19.6975   48.8861   -6.2445 C   0  0  0  0  0  0
   19.1674   47.9023   -7.3247 C   0  0  0  0  0  0
   18.8650   46.4722   -6.8515 C   0  0  0  0  0  0
   18.6478   46.2400   -5.6737 O   0  0  0  0  0  0
   18.8328   45.5337   -7.8099 N   0  0  0  0  0  0
   19.1070   45.9515   -9.1700 C   0  0  0  0  0  0
   18.6492   44.0964   -7.5099 C   0  0  1  0  0  0
   17.9067   43.4435   -8.6723 C   0  0  0  0  0  0
   20.0113   43.3821   -7.3727 C   0  0  0  0  0  0
   20.8943   43.5446   -8.1987 O   0  0  0  0  0  0
   20.1438   42.5601   -6.3219 N   0  0  0  0  0  0
   19.1502   39.7133   -9.7523 C   0  0  0  0  0  0
   20.2043   39.0581  -10.4313 C   0  0  0  0  0  0
   20.6595   39.5406  -11.6743 C   0  0  0  0  0  0
   20.0682   40.6824  -12.2476 C   0  0  0  0  0  0
   19.0219   41.3433  -11.5761 C   0  0  0  0  0  0
   18.2235   42.8894  -12.3479 Br  0  0  0  0  0  0
   18.5661   40.8613  -10.3328 C   0  0  0  0  0  0
   18.9448   38.1672   -8.2983 H   0  0  0  0  0  0
   20.2292   40.4271   -4.7677 H   0  0  0  0  0  0
   22.0747   41.7569   -6.7434 H   0  0  0  0  0  0
   22.7023   44.4188   -3.8981 H   0  0  0  0  0  0
   18.0264   43.9308   -6.6308 H   0  0  0  0  0  0
   16.7455   38.8241   -7.4060 H   0  0  0  0  0  0
   16.6852   38.6216   -9.1500 H   0  0  0  0  0  0
   16.7127   40.2386   -8.4512 H   0  0  0  0  0  0
   18.4918   40.0506   -6.5303 H   0  0  0  0  0  0
   21.2209   39.5666   -7.5324 H   0  0  0  0  0  0
   20.4223   38.5114   -6.4166 H   0  0  0  0  0  0
   21.8313   38.8998   -4.7012 H   0  0  0  0  0  0
   21.3687   42.4220   -3.8444 H   0  0  0  0  0  0
   22.9291   41.9607   -4.4335 H   0  0  0  0  0  0
   21.3570   45.8638   -5.3602 H   0  0  0  0  0  0
   20.3730   44.7191   -4.4850 H   0  0  0  0  0  0
   20.7258   44.4477   -6.1867 H   0  0  0  0  0  0
   24.4985   44.0734   -5.4405 H   0  0  0  0  0  0
   23.4347   43.6102   -6.7318 H   0  0  0  0  0  0
   22.5454   45.8706   -6.9499 H   0  0  0  0  0  0
   24.2573   45.8096   -7.2397 H   0  0  0  0  0  0
   23.0429   46.7193   -4.5780 H   0  0  0  0  0  0
   24.7290   46.7067   -4.9739 H   0  0  0  0  0  0
   24.3994   48.4148   -6.7258 H   0  0  0  0  0  0
   23.8471   48.9778   -5.1821 H   0  0  0  0  0  0
   22.3072   49.6486   -6.9842 H   0  0  0  0  0  0
   22.0775   48.0048   -7.4760 H   0  0  0  0  0  0
   21.2504   49.1892   -4.7776 H   0  0  0  0  0  0
   21.0120   47.5230   -5.1986 H   0  0  0  0  0  0
   18.9577   48.9725   -5.4487 H   0  0  0  0  0  0
   19.7600   49.8850   -6.6763 H   0  0  0  0  0  0
   19.8651   47.8685   -8.1614 H   0  0  0  0  0  0
   18.2370   48.2967   -7.7332 H   0  0  0  0  0  0
   18.9323   45.1715   -9.9086 H   0  0  0  0  0  0
   20.1429   46.2738   -9.2819 H   0  0  0  0  0  0
   18.4497   46.7690   -9.4691 H   0  0  0  0  0  0
   17.7244   42.3850   -8.4816 H   0  0  0  0  0  0
   18.4637   43.5181   -9.6069 H   0  0  0  0  0  0
   16.9346   43.9111   -8.8327 H   0  0  0  0  0  0
   19.3462   42.4720   -5.7086 H   0  0  0  0  0  0
   20.6725   38.1831  -10.0044 H   0  0  0  0  0  0
   21.4640   39.0346  -12.1875 H   0  0  0  0  0  0
   20.4189   41.0508  -13.2005 H   0  0  0  0  0  0
   17.7639   41.3790   -9.8271 H   0  0  0  0  0  0
  1  2  1  0  0  0
  1 40  1  0  0  0
  1 41  1  0  0  0
  1 42  1  0  0  0
  2 35  1  0  0  0
  2  3  1  0  0  0
  2 28  1  0  0  0
  3  4  1  0  0  0
  3 43  1  0  0  0
  4  5  1  0  0  0
  4 44  1  0  0  0
  4 45  1  0  0  0
  5 36  1  0  0  0
  5  6  1  0  0  0
  5  7  1  0  0  0
  6 46  1  0  0  0
  7 37  1  0  0  0
  7 27  1  0  0  0
  7  8  1  0  0  0
  8  9  1  0  0  0
  8 47  1  0  0  0
  8 48  1  0  0  0
  9 38  1  0  0  0
  9 10  1  0  0  0
  9 11  1  0  0  0
 10 49  1  0  0  0
 10 50  1  0  0  0
 10 51  1  0  0  0
 11 12  1  0  0  0
 11 52  1  0  0  0
 11 53  1  0  0  0
 12 13  1  0  0  0
 12 54  1  0  0  0
 12 55  1  0  0  0
 13 14  1  0  0  0
 13 56  1  0  0  0
 13 57  1  0  0  0
 14 15  1  0  0  0
 14 58  1  0  0  0
 14 59  1  0  0  0
 15 16  1  0  0  0
 15 60  1  0  0  0
 15 61  1  0  0  0
 16 17  1  0  0  0
 16 62  1  0  0  0
 16 63  1  0  0  0
 17 18  1  0  0  0
 17 64  1  0  0  0
 17 65  1  0  0  0
 18 19  1  0  0  0
 18 66  1  0  0  0
 18 67  1  0  0  0
 19 20  2  0  0  0
 19 21  1  0  0  0
 21 22  1  0  0  0
 21 23  1  0  0  0
 22 68  1  0  0  0
 22 69  1  0  0  0
 22 70  1  0  0  0
 23 39  1  0  0  0
 23 24  1  0  0  0
 23 25  1  0  0  0
 24 71  1  0  0  0
 24 72  1  0  0  0
 24 73  1  0  0  0
 25 26  2  0  0  0
 25 27  1  0  0  0
 27 74  1  0  0  0
 28 34  1  0  0  0
 28 29  2  0  0  0
 29 30  1  0  0  0
 29 75  1  0  0  0
 30 31  2  0  0  0
 30 76  1  0  0  0
 31 32  1  0  0  0
 31 77  1  0  0  0
 32 33  1  0  0  0
 32 34  2  0  0  0
 34 78  1  0  0  0
M  END
> <s_m_source_file>
BACE_22.smi

> <i_m_source_file_index>
1

> <i_lp_mmshare_version>
42013

> <i_f3d_flags>
0

> <s_epik_input>
QnJjKFtjSF0xKVtjSF1bY0hdW2NIXWMxW0NASF0oW0NIM10pW05IXVtDSDJdW0NAQEhdKFtPSF0pW0NAQEhdMltDSDJdW0NASF0oW0NIM10pW0NIMl1bQ0gyXVtDSDJdW0NIMl1bQ0gyXVtDSDJdW0NIMl1bQ0gyXUMoPU8pTihbQ0gzXSlbQ0BASF0oW0NIM10pQyg9TylbTkhdMg==

> <s_epik_cmdline>
J2VwaWtfcHl0aG9uJywgJy1waCcsICc3LjAnLCAnLXRuJywgJzgnLCAnLW1hJywgJzIwMCcsICctaW1hZScsICc8aW5maWxlLm1hZT4nLCAnLW9tYWUnLCAnPG91dGZpbGUubWFlPic=

> <r_epik_Ionization_Penalty>
  1.9526

> <r_epik_Ionization_Penalty_Charging>
  0.0000

> <r_epik_Ionization_Penalty_Neutral>
  1.9526

> <r_epik_State_Penalty>
  2.0778

> <r_epik_Charging_Adjusted_Penalty>
2.07781

> <i_epik_Tot_Q>
0

> <i_epik_Tot_abs_Q>
0

> <s_lp_Force_Field>
OPLS_2005

> <r_lp_Energy>
40.6292

> <b_lp_Chiralities_Consistent>
1

> <s_lp_Variant>
BACE_22.smi:1-2

> <chiral flag>
1

> <version>
0

> <s_i_glide_gridfile>
second_dock_grid_2

> <i_i_glide_lignum>
35

> <i_i_glide_rotatable_bonds>
6

> <r_i_docking_score>
-1.92244

> <r_i_glide_ligand_efficiency>
-0.0565424

> <r_i_glide_ligand_efficiency_sa>
-0.183175

> <r_i_glide_ligand_efficiency_ln>
-0.424721

> <r_glide_XP_GScore>
-4.00024

> <r_i_glide_gscore>
-4.00024

> <r_i_glide_evdw>
-35.9916

> <r_i_glide_ecoul>
-8.97439

> <r_i_glide_energy>
-44.966

> <r_i_glide_einternal>
1.99437

> <r_i_glide_emodel>
-65.4785

> <r_glide_XP_HBond>
-0.573066

> <i_i_glide_confnum>
1

> <i_i_glide_posenum>
1

> <r_i_glide_eff_state_penalty>
2.0778

> <i_glide_XP_PoseRank>
1

$$$$
BACE_23.smi:1
                    3D
 Structure written by MMmdl.
 90 92  0  0  1  0            999 V2000
   23.2667   44.6356   -7.7536 C   0  0  0  0  0  0
   22.5770   44.5394   -6.3761 C   0  0  2  0  0  0
   23.5398   44.9654   -5.2396 C   0  0  0  0  0  0
   23.9137   46.4625   -5.2151 C   0  0  0  0  0  0
   22.8171   47.3754   -4.6311 C   0  0  0  0  0  0
   22.9658   48.8645   -4.9973 C   0  0  0  0  0  0
   22.7052   49.2075   -6.4799 C   0  0  0  0  0  0
   21.3178   48.8138   -7.0193 C   0  0  0  0  0  0
   20.1413   49.5412   -6.3349 C   0  0  0  0  0  0
   18.7620   49.1077   -6.8702 C   0  0  0  0  0  0
   18.4339   47.6474   -6.4963 C   0  0  0  0  0  0
   18.4580   47.3565   -5.2983 O   0  0  0  0  0  0
   18.1572   46.7328   -7.4625 N   0  0  0  0  0  0
   18.0605   47.1180   -8.8804 C   0  0  0  0  0  0
   18.0588   45.2910   -7.1213 C   0  0  1  0  0  0
   16.7406   44.6776   -7.6379 C   0  0  0  0  0  0
   19.2736   44.4925   -7.6120 C   0  0  0  0  0  0
   19.8533   44.8036   -8.6521 O   0  0  0  0  0  0
   19.6670   43.4746   -6.8295 N   0  0  0  0  0  0
   20.8607   42.6595   -7.0431 C   0  0  1  0  0  0
   22.0269   43.1103   -6.1205 C   0  0  0  0  0  0
   20.4884   41.1572   -6.9499 C   0  0  2  0  0  0
   20.4600   40.7403   -5.5984 O   0  0  0  0  0  0
   21.4732   40.2402   -7.7140 C   0  0  0  0  0  0
   21.5769   40.5507   -9.1497 N   0  0  0  0  0  0
   20.5513   39.9871  -10.0396 C   0  0  0  0  0  0
   20.6960   38.5397  -10.4316 C   0  0  0  0  0  0
   21.0114   39.6204  -11.4346 C   0  0  0  0  0  0
   19.1845   40.6031   -9.9031 C   0  0  0  0  0  0
   18.1187   39.9057   -9.2966 C   0  0  0  0  0  0
   16.8542   40.5296   -9.1792 C   0  0  0  0  0  0
   16.7334   41.8390   -9.6981 C   0  0  0  0  0  0
   17.8544   42.4505  -10.2901 C   0  0  0  0  0  0
   19.0537   41.8507  -10.4003 N   0  0  0  0  0  0
   15.6474   39.8446   -8.5119 C   0  0  0  0  0  0
   14.4588   39.8106   -9.4949 C   0  0  0  0  0  0
   15.9446   38.3901   -8.0908 C   0  0  0  0  0  0
   15.2448   40.6251   -7.2460 C   0  0  0  0  0  0
   21.7364   45.2307   -6.3661 H   0  0  0  0  0  0
   18.0486   45.1532   -6.0407 H   0  0  0  0  0  0
   21.1769   42.8154   -8.0718 H   0  0  0  0  0  0
   19.4831   41.0068   -7.3297 H   0  0  0  0  0  0
   23.6265   45.6404   -7.9619 H   0  0  0  0  0  0
   22.5891   44.3897   -8.5695 H   0  0  0  0  0  0
   24.1181   43.9591   -7.8155 H   0  0  0  0  0  0
   23.1128   44.7024   -4.2715 H   0  0  0  0  0  0
   24.4547   44.3760   -5.3172 H   0  0  0  0  0  0
   24.2022   46.7899   -6.2106 H   0  0  0  0  0  0
   24.8131   46.5868   -4.6105 H   0  0  0  0  0  0
   21.8249   47.0231   -4.9108 H   0  0  0  0  0  0
   22.8602   47.3019   -3.5454 H   0  0  0  0  0  0
   23.9690   49.1973   -4.7273 H   0  0  0  0  0  0
   22.2915   49.4473   -4.3715 H   0  0  0  0  0  0
   22.8493   50.2772   -6.6260 H   0  0  0  0  0  0
   23.4642   48.7321   -7.0999 H   0  0  0  0  0  0
   21.1973   47.7335   -6.9493 H   0  0  0  0  0  0
   21.2861   49.0352   -8.0868 H   0  0  0  0  0  0
   20.1750   49.3762   -5.2590 H   0  0  0  0  0  0
   20.2536   50.6164   -6.4729 H   0  0  0  0  0  0
   18.7292   49.3149   -7.9375 H   0  0  0  0  0  0
   17.9863   49.7385   -6.4399 H   0  0  0  0  0  0
   17.8351   46.2818   -9.5383 H   0  0  0  0  0  0
   19.0092   47.5240   -9.2328 H   0  0  0  0  0  0
   17.2795   47.8645   -9.0303 H   0  0  0  0  0  0
   16.6464   43.6411   -7.3081 H   0  0  0  0  0  0
   16.6597   44.6722   -8.7238 H   0  0  0  0  0  0
   15.8814   45.2203   -7.2402 H   0  0  0  0  0  0
   19.1035   43.2414   -6.0246 H   0  0  0  0  0  0
   21.6909   43.0413   -5.0844 H   0  0  0  0  0  0
   22.8506   42.4006   -6.2039 H   0  0  0  0  0  0
   19.5977   40.9498   -5.2468 H   0  0  0  0  0  0
   21.1966   39.1939   -7.5786 H   0  0  0  0  0  0
   22.4598   40.3463   -7.2621 H   0  0  0  0  0  0
   22.4915   40.2786   -9.4964 H   0  0  0  0  0  0
   21.5433   37.9847  -10.0365 H   0  0  0  0  0  0
   19.7958   37.9529  -10.6043 H   0  0  0  0  0  0
   20.3097   39.7534  -12.2560 H   0  0  0  0  0  0
   22.0591   39.7595  -11.6907 H   0  0  0  0  0  0
   18.3000   38.9129   -8.9166 H   0  0  0  0  0  0
   15.8007   42.3762   -9.6301 H   0  0  0  0  0  0
   17.7860   43.4538  -10.6837 H   0  0  0  0  0  0
   14.1204   40.8093   -9.7704 H   0  0  0  0  0  0
   13.5996   39.2974   -9.0603 H   0  0  0  0  0  0
   14.7217   39.2876  -10.4143 H   0  0  0  0  0  0
   16.7391   38.3352   -7.3449 H   0  0  0  0  0  0
   16.2301   37.7692   -8.9409 H   0  0  0  0  0  0
   15.0656   37.9275   -7.6402 H   0  0  0  0  0  0
   16.0608   40.6714   -6.5261 H   0  0  0  0  0  0
   14.4087   40.1465   -6.7352 H   0  0  0  0  0  0
   14.9431   41.6489   -7.4652 H   0  0  0  0  0  0
  1  2  1  0  0  0
  1 43  1  0  0  0
  1 44  1  0  0  0
  1 45  1  0  0  0
  2 39  1  0  0  0
  2 21  1  0  0  0
  2  3  1  0  0  0
  3  4  1  0  0  0
  3 46  1  0  0  0
  3 47  1  0  0  0
  4  5  1  0  0  0
  4 48  1  0  0  0
  4 49  1  0  0  0
  5  6  1  0  0  0
  5 50  1  0  0  0
  5 51  1  0  0  0
  6  7  1  0  0  0
  6 52  1  0  0  0
  6 53  1  0  0  0
  7  8  1  0  0  0
  7 54  1  0  0  0
  7 55  1  0  0  0
  8  9  1  0  0  0
  8 56  1  0  0  0
  8 57  1  0  0  0
  9 10  1  0  0  0
  9 58  1  0  0  0
  9 59  1  0  0  0
 10 11  1  0  0  0
 10 60  1  0  0  0
 10 61  1  0  0  0
 11 12  2  0  0  0
 11 13  1  0  0  0
 13 14  1  0  0  0
 13 15  1  0  0  0
 14 62  1  0  0  0
 14 63  1  0  0  0
 14 64  1  0  0  0
 15 40  1  0  0  0
 15 16  1  0  0  0
 15 17  1  0  0  0
 16 65  1  0  0  0
 16 66  1  0  0  0
 16 67  1  0  0  0
 17 18  2  0  0  0
 17 19  1  0  0  0
 19 20  1  0  0  0
 19 68  1  0  0  0
 20 41  1  0  0  0
 20 21  1  0  0  0
 20 22  1  0  0  0
 21 69  1  0  0  0
 21 70  1  0  0  0
 22 42  1  0  0  0
 22 23  1  0  0  0
 22 24  1  0  0  0
 23 71  1  0  0  0
 24 25  1  0  0  0
 24 72  1  0  0  0
 24 73  1  0  0  0
 25 26  1  0  0  0
 25 74  1  0  0  0
 26 28  1  0  0  0
 26 27  1  0  0  0
 26 29  1  0  0  0
 27 28  1  0  0  0
 27 75  1  0  0  0
 27 76  1  0  0  0
 28 77  1  0  0  0
 28 78  1  0  0  0
 29 34  1  0  0  0
 29 30  2  0  0  0
 30 31  1  0  0  0
 30 79  1  0  0  0
 31 32  2  0  0  0
 31 35  1  0  0  0
 32 33  1  0  0  0
 32 80  1  0  0  0
 33 34  2  0  0  0
 33 81  1  0  0  0
 35 36  1  0  0  0
 35 37  1  0  0  0
 35 38  1  0  0  0
 36 82  1  0  0  0
 36 83  1  0  0  0
 36 84  1  0  0  0
 37 85  1  0  0  0
 37 86  1  0  0  0
 37 87  1  0  0  0
 38 88  1  0  0  0
 38 89  1  0  0  0
 38 90  1  0  0  0
M  END
> <s_m_source_file>
BACE_23.smi

> <i_m_source_file_index>
1

> <i_lp_mmshare_version>
42013

> <i_f3d_flags>
0

> <s_epik_input>
W0NIM11bQ0BASF0xW0NIMl1bQ0gyXVtDSDJdW0NIMl1bQ0gyXVtDSDJdW0NIMl1bQ0gyXUMoPU8pTihbQ0gzXSlbQ0BASF0oW0NIM10pQyg9TylbTkhdW0NAQEhdKFtDSDJdMSlbQ0BIXShbT0hdKVtDSDJdW05IXUMyKFtDSDJdW0NIMl0yKWMzW2NIXWMoW2NIXVtjSF1uMylDKFtDSDNdKShbQ0gzXSlbQ0gzXQ==

> <s_epik_cmdline>
J2VwaWtfcHl0aG9uJywgJy1waCcsICc3LjAnLCAnLXRuJywgJzgnLCAnLW1hJywgJzIwMCcsICctaW1hZScsICc8aW5maWxlLm1hZT4nLCAnLW9tYWUnLCAnPG91dGZpbGUubWFlPic=

> <r_epik_Ionization_Penalty>
  0.2016

> <r_epik_Ionization_Penalty_Charging>
  0.0000

> <r_epik_Ionization_Penalty_Neutral>
  0.2016

> <r_epik_State_Penalty>
  0.0816

> <r_epik_Charging_Adjusted_Penalty>
0.0816439

> <i_epik_Tot_Q>
0

> <i_epik_Tot_abs_Q>
0

> <s_lp_Force_Field>
OPLS_2005

> <r_lp_Energy>
51.0036

> <b_lp_Chiralities_Consistent>
1

> <s_lp_Variant>
BACE_23.smi:1-1

> <chiral flag>
1

> <version>
0

> <s_i_glide_gridfile>
second_dock_grid_2

> <i_i_glide_lignum>
36

> <i_i_glide_rotatable_bonds>
7

> <r_i_docking_score>
-3.34202

> <r_i_glide_ligand_efficiency>
-0.0879478

> <r_i_glide_ligand_efficiency_sa>
-0.295678

> <r_i_glide_ligand_efficiency_ln>
-0.720637

> <r_glide_XP_GScore>
-3.42362

> <r_i_glide_gscore>
-3.42362

> <r_i_glide_evdw>
-38.6427

> <r_i_glide_ecoul>
-10.1007

> <r_i_glide_energy>
-48.7433

> <r_i_glide_einternal>
4.9492

> <r_i_glide_emodel>
-65.6824

> <r_glide_XP_HBond>
-1.471

> <i_i_glide_confnum>
1

> <i_i_glide_posenum>
12

> <r_i_glide_eff_state_penalty>
0.0816

> <i_glide_XP_PoseRank>
1

$$$$
