BACE_144.smi:1
                    3D
 Structure written by MMmdl.
 87 91  0  0  1  0            999 V2000
   27.2245   42.3229  -11.5279 C   0  0  0  0  0  0
   27.0052   41.9318  -10.1826 O   0  0  0  0  0  0
   25.9913   40.9474  -10.0502 C   0  0  0  0  0  0
   24.6408   41.5714   -9.7460 C   0  0  0  0  0  0
   24.5253   42.5890   -8.7794 C   0  0  0  0  0  0
   23.2745   43.1730   -8.4955 C   0  0  0  0  0  0
   22.1257   42.7338   -9.1991 C   0  0  0  0  0  0
   22.2299   41.7288  -10.1964 C   0  0  0  0  0  0
   23.4967   41.1525  -10.4535 C   0  0  0  0  0  0
   21.0609   41.2869  -11.0193 C   0  0  0  0  0  0
   21.1804   40.5861  -12.0271 O   0  0  0  0  0  0
   19.8659   41.7382  -10.5534 O   0  0  0  0  0  0
   18.6540   41.5735  -11.2998 C   0  0  1  0  0  0
   17.7833   40.4453  -10.6920 C   0  0  0  0  0  0
   17.9980   40.3433   -9.2537 N   0  0  0  0  0  0
   18.8757   39.2294   -8.8632 C   0  0  0  0  0  0
   19.0617   38.1051   -9.8540 C   0  0  0  0  0  0
   18.2319   37.8869   -8.6114 C   0  0  0  0  0  0
   20.0689   39.6120   -7.9993 C   0  0  0  0  0  0
   19.8909   40.0829   -6.6779 C   0  0  0  0  0  0
   20.9987   40.4359   -5.8720 C   0  0  0  0  0  0
   22.3012   40.3110   -6.4025 C   0  0  0  0  0  0
   22.4909   39.8398   -7.7150 C   0  0  0  0  0  0
   21.3810   39.4916   -8.5075 C   0  0  0  0  0  0
   20.8036   40.9458   -4.4451 C   0  0  0  0  0  0
   21.9347   40.4876   -3.5074 C   0  0  0  0  0  0
   20.6023   42.4709   -4.3983 C   0  0  0  0  0  0
   17.9695   42.9653  -11.3448 C   0  0  1  0  0  0
   17.0619   43.0171  -12.4787 N   0  0  0  0  0  0
   17.2283   43.3940  -10.0494 C   0  0  0  0  0  0
   17.4624   44.8363   -9.6088 C   0  0  0  0  0  0
   17.6681   45.1042   -8.2383 C   0  0  0  0  0  0
   17.9344   46.4113   -7.7865 C   0  0  0  0  0  0
   17.9572   47.4760   -8.7138 C   0  0  0  0  0  0
   17.7202   47.2245  -10.0794 C   0  0  0  0  0  0
   17.4717   45.9115  -10.5266 C   0  0  0  0  0  0
   18.1131   46.6127   -6.4406 O   0  0  0  0  0  0
   19.3765   47.1267   -6.0283 C   0  0  0  0  0  0
   20.3666   45.9801   -5.7377 C   0  0  0  0  0  0
   21.2886   45.6078   -6.9143 C   0  0  0  0  0  0
   22.1242   44.3485   -6.6240 C   0  0  0  0  0  0
   23.2470   44.2016   -7.5410 N   0  0  0  0  0  0
   18.8838   41.3118  -12.3342 H   0  0  0  0  0  0
   18.7573   43.6884  -11.5592 H   0  0  0  0  0  0
   28.0114   43.0763  -11.5645 H   0  0  0  0  0  0
   26.3257   42.7576  -11.9675 H   0  0  0  0  0  0
   27.5419   41.4785  -12.1411 H   0  0  0  0  0  0
   26.2417   40.2594   -9.2409 H   0  0  0  0  0  0
   25.9294   40.3554  -10.9649 H   0  0  0  0  0  0
   25.4034   42.9271   -8.2474 H   0  0  0  0  0  0
   21.1751   43.2040   -8.9962 H   0  0  0  0  0  0
   23.6097   40.3849  -11.2059 H   0  0  0  0  0  0
   18.0527   39.4899  -11.1426 H   0  0  0  0  0  0
   16.7279   40.6160  -10.9045 H   0  0  0  0  0  0
   17.1328   40.3278   -8.7328 H   0  0  0  0  0  0
   18.5356   38.1789  -10.8058 H   0  0  0  0  0  0
   20.0405   37.6275   -9.8977 H   0  0  0  0  0  0
   18.6559   37.2633   -7.8244 H   0  0  0  0  0  0
   17.1510   37.8148   -8.7324 H   0  0  0  0  0  0
   18.8906   40.1708   -6.2798 H   0  0  0  0  0  0
   23.1645   40.5736   -5.8084 H   0  0  0  0  0  0
   23.4898   39.7449   -8.1147 H   0  0  0  0  0  0
   21.5423   39.1304   -9.5129 H   0  0  0  0  0  0
   19.8846   40.5008   -4.0613 H   0  0  0  0  0  0
   22.0242   39.4007   -3.5028 H   0  0  0  0  0  0
   21.7429   40.8010   -2.4807 H   0  0  0  0  0  0
   22.9010   40.8997   -3.7991 H   0  0  0  0  0  0
   19.7579   42.7743   -5.0181 H   0  0  0  0  0  0
   21.4825   43.0112   -4.7477 H   0  0  0  0  0  0
   20.3953   42.8073   -3.3819 H   0  0  0  0  0  0
   16.6930   43.9523  -12.5763 H   0  0  0  0  0  0
   17.5683   42.8152  -13.3289 H   0  0  0  0  0  0
   16.1537   43.2242  -10.1356 H   0  0  0  0  0  0
   17.5524   42.7612   -9.2238 H   0  0  0  0  0  0
   17.6415   44.2992   -7.5180 H   0  0  0  0  0  0
   18.1353   48.4885   -8.3821 H   0  0  0  0  0  0
   17.7281   48.0413  -10.7861 H   0  0  0  0  0  0
   17.2942   45.7429  -11.5781 H   0  0  0  0  0  0
   19.7986   47.8578   -6.7189 H   0  0  0  0  0  0
   19.1924   47.6688   -5.1002 H   0  0  0  0  0  0
   19.8167   45.1044   -5.3901 H   0  0  0  0  0  0
   21.0003   46.2790   -4.9017 H   0  0  0  0  0  0
   21.9519   46.4509   -7.1138 H   0  0  0  0  0  0
   20.7104   45.4523   -7.8244 H   0  0  0  0  0  0
   21.4945   43.4582   -6.6187 H   0  0  0  0  0  0
   22.5496   44.4219   -5.6228 H   0  0  0  0  0  0
   24.1424   44.4628   -7.1536 H   0  0  0  0  0  0
  1  2  1  0  0  0
  1 45  1  0  0  0
  1 46  1  0  0  0
  1 47  1  0  0  0
  2  3  1  0  0  0
  3  4  1  0  0  0
  3 48  1  0  0  0
  3 49  1  0  0  0
  4  9  1  0  0  0
  4  5  2  0  0  0
  5  6  1  0  0  0
  5 50  1  0  0  0
  6 42  1  0  0  0
  6  7  2  0  0  0
  7  8  1  0  0  0
  7 51  1  0  0  0
  8  9  2  0  0  0
  8 10  1  0  0  0
  9 52  1  0  0  0
 10 11  2  0  0  0
 10 12  1  0  0  0
 12 13  1  0  0  0
 13 43  1  0  0  0
 13 14  1  0  0  0
 13 28  1  0  0  0
 14 15  1  0  0  0
 14 53  1  0  0  0
 14 54  1  0  0  0
 15 16  1  0  0  0
 15 55  1  0  0  0
 16 18  1  0  0  0
 16 17  1  0  0  0
 16 19  1  0  0  0
 17 18  1  0  0  0
 17 56  1  0  0  0
 17 57  1  0  0  0
 18 58  1  0  0  0
 18 59  1  0  0  0
 19 24  1  0  0  0
 19 20  2  0  0  0
 20 21  1  0  0  0
 20 60  1  0  0  0
 21 22  2  0  0  0
 21 25  1  0  0  0
 22 23  1  0  0  0
 22 61  1  0  0  0
 23 24  2  0  0  0
 23 62  1  0  0  0
 24 63  1  0  0  0
 25 26  1  0  0  0
 25 27  1  0  0  0
 25 64  1  0  0  0
 26 65  1  0  0  0
 26 66  1  0  0  0
 26 67  1  0  0  0
 27 68  1  0  0  0
 27 69  1  0  0  0
 27 70  1  0  0  0
 28 44  1  0  0  0
 28 29  1  0  0  0
 28 30  1  0  0  0
 29 71  1  0  0  0
 29 72  1  0  0  0
 30 31  1  0  0  0
 30 73  1  0  0  0
 30 74  1  0  0  0
 31 36  1  0  0  0
 31 32  2  0  0  0
 32 33  1  0  0  0
 32 75  1  0  0  0
 33 34  2  0  0  0
 33 37  1  0  0  0
 34 35  1  0  0  0
 34 76  1  0  0  0
 35 36  2  0  0  0
 35 77  1  0  0  0
 36 78  1  0  0  0
 37 38  1  0  0  0
 38 39  1  0  0  0
 38 79  1  0  0  0
 38 80  1  0  0  0
 39 40  1  0  0  0
 39 81  1  0  0  0
 39 82  1  0  0  0
 40 41  1  0  0  0
 40 83  1  0  0  0
 40 84  1  0  0  0
 41 42  1  0  0  0
 41 85  1  0  0  0
 41 86  1  0  0  0
 42 87  1  0  0  0
M  END
> <s_m_source_file>
BACE_144.smi

> <i_m_source_file_index>
1

> <i_lp_mmshare_version>
42013

> <i_f3d_flags>
0

> <s_epik_input>
W2NIXTFbY0hdW2NIXWMoW0NIXShbQ0gzXSlbQ0gzXSlbY0hdYzFDMihbQ0gyXVtDSDJdMilbTkhdW0NIMl1bQ0BIXShPQyg9TyljKFtjSF0zKVtjSF1jKFtjSF1jMzQpW0NIMl1PW0NIM10pW0NAQEhdKFtOSDJdKVtDSDJdYzVbY0hdYyhbY0hdW2NIXVtjSF01KU9bQ0gyXVtDSDJdW0NIMl1bQ0gyXVtOSF00

> <s_epik_cmdline>
J2VwaWtfcHl0aG9uJywgJy1waCcsICc3LjAnLCAnLXRuJywgJzgnLCAnLW1hJywgJzIwMCcsICctaW1hZScsICc8aW5maWxlLm1hZT4nLCAnLW9tYWUnLCAnPG91dGZpbGUubWFlPic=

> <r_lp_tautomer_probability>
1

> <r_epik_Ionization_Penalty>
  2.2590

> <r_epik_Ionization_Penalty_Charging>
  0.0000

> <r_epik_Ionization_Penalty_Neutral>
  2.2590

> <r_epik_State_Penalty>
  2.3476

> <r_epik_Charging_Adjusted_Penalty>
2.34765

> <i_epik_Tot_Q>
0

> <i_epik_Tot_abs_Q>
0

> <s_epik_Chemistry_Notes>
This compound has an ester and may undergo hydrolysis at high or low pH.

> <s_lp_Force_Field>
OPLS_2005

> <r_lp_Energy>
45.8012

> <b_lp_Chiralities_Consistent>
1

> <s_lp_Variant>
BACE_144.smi:1-3

> <chiral flag>
1

> <version>
0

> <s_i_glide_gridfile>
second_dock_grid_2

> <i_i_glide_lignum>
295

> <i_i_glide_rotatable_bonds>
7

> <r_i_docking_score>
-1.04892

> <r_i_glide_ligand_efficiency>
-0.0249744

> <r_i_glide_ligand_efficiency_sa>
-0.0868115

> <r_i_glide_ligand_efficiency_ln>
-0.221401

> <r_glide_XP_GScore>
-3.39652

> <r_i_glide_gscore>
-3.39652

> <r_i_glide_evdw>
-35.8703

> <r_i_glide_ecoul>
-4.63587

> <r_i_glide_energy>
-40.5061

> <r_i_glide_einternal>
9.33384

> <r_i_glide_emodel>
-57.3118

> <r_glide_XP_HBond>
0

> <i_i_glide_confnum>
1

> <i_i_glide_posenum>
3

> <r_i_glide_eff_state_penalty>
2.3476

> <i_glide_XP_PoseRank>
1

$$$$
BACE_145.smi:1
                    3D
 Structure written by MMmdl.
 89 92  0  0  1  0            999 V2000
   30.2577   41.7743  -13.9482 C   0  0  0  0  0  0
   29.3618   41.2281  -12.8305 C   0  0  0  0  0  0
   28.2962   42.2377  -12.3807 C   0  0  0  0  0  0
   27.4171   41.6683  -11.3695 N   0  0  0  0  0  0
   26.1454   42.2008  -11.1030 C   0  0  0  0  0  0
   25.6244   43.3310  -11.7769 C   0  0  0  0  0  0
   24.3364   43.8156  -11.4682 C   0  0  0  0  0  0
   23.7849   45.0240  -12.2027 C   0  0  0  0  0  0
   24.4885   45.2615  -13.4117 O   0  0  0  0  0  0
   24.0863   46.4567  -14.0601 C   0  0  0  0  0  0
   23.5647   43.1757  -10.4761 C   0  0  0  0  0  0
   24.0739   42.0521   -9.7839 C   0  0  0  0  0  0
   25.3607   41.5692  -10.1150 C   0  0  0  0  0  0
   23.2517   41.3451   -8.7404 C   0  0  0  0  0  0
   23.2556   41.7321   -7.5706 O   0  0  0  0  0  0
   22.4944   40.3259   -9.1892 N   0  0  0  0  0  0
   21.1286   39.9982   -8.7635 C   0  0  1  0  0  0
   20.4109   39.2543   -9.9220 C   0  0  0  0  0  0
   18.9473   38.9196   -9.6599 C   0  0  0  0  0  0
   17.9345   39.8589   -9.9543 C   0  0  0  0  0  0
   16.5757   39.5715   -9.7038 C   0  0  0  0  0  0
   16.2374   38.3140   -9.1414 C   0  0  0  0  0  0
   17.2433   37.3760   -8.8387 C   0  0  0  0  0  0
   18.5939   37.6769   -9.0941 C   0  0  0  0  0  0
   15.6625   40.5531  -10.0297 O   0  0  0  0  0  0
   14.2821   40.3031   -9.8025 C   0  0  0  0  0  0
   21.1509   39.1956   -7.4282 C   0  0  2  0  0  0
   19.8428   38.7107   -7.1904 O   0  0  0  0  0  0
   21.6312   39.9788   -6.1839 C   0  0  0  0  0  0
   20.7227   41.0872   -5.8715 N   0  0  0  0  0  0
   21.0823   42.0418   -4.8117 C   0  0  0  0  0  0
   21.9745   41.5473   -3.6984 C   0  0  0  0  0  0
   20.5104   41.8057   -3.4343 C   0  0  0  0  0  0
   21.2550   43.4844   -5.2654 C   0  0  0  0  0  0
   20.1606   44.2111   -5.7867 C   0  0  0  0  0  0
   20.3067   45.5553   -6.1995 C   0  0  0  0  0  0
   21.5702   46.1767   -6.0807 C   0  0  0  0  0  0
   22.6646   45.4648   -5.5551 C   0  0  0  0  0  0
   22.5067   44.1268   -5.1474 C   0  0  0  0  0  0
   19.1070   46.3151   -6.7629 C   0  0  0  0  0  0
   18.6854   47.4844   -5.8553 C   0  0  0  0  0  0
   19.3415   46.7715   -8.2138 C   0  0  0  0  0  0
   20.5790   40.9247   -8.5859 H   0  0  0  0  0  0
   21.7734   38.3106   -7.5589 H   0  0  0  0  0  0
   31.0020   41.0348  -14.2441 H   0  0  0  0  0  0
   30.7900   42.6698  -13.6263 H   0  0  0  0  0  0
   29.6743   42.0298  -14.8333 H   0  0  0  0  0  0
   29.9838   40.9474  -11.9795 H   0  0  0  0  0  0
   28.8783   40.3133  -13.1753 H   0  0  0  0  0  0
   27.7011   42.5494  -13.2400 H   0  0  0  0  0  0
   28.7814   43.1266  -11.9758 H   0  0  0  0  0  0
   27.7388   40.8652  -10.8484 H   0  0  0  0  0  0
   26.1981   43.8390  -12.5378 H   0  0  0  0  0  0
   22.7264   44.8595  -12.4115 H   0  0  0  0  0  0
   23.8458   45.9008  -11.5557 H   0  0  0  0  0  0
   24.6596   46.5835  -14.9784 H   0  0  0  0  0  0
   24.2654   47.3301  -13.4315 H   0  0  0  0  0  0
   23.0293   46.4279  -14.3278 H   0  0  0  0  0  0
   22.5762   43.5532  -10.2562 H   0  0  0  0  0  0
   25.7624   40.7063   -9.6021 H   0  0  0  0  0  0
   22.8990   39.7211   -9.8896 H   0  0  0  0  0  0
   20.4376   39.8662  -10.8249 H   0  0  0  0  0  0
   20.9526   38.3424  -10.1765 H   0  0  0  0  0  0
   18.1974   40.8164  -10.3804 H   0  0  0  0  0  0
   15.2149   38.0412   -8.9286 H   0  0  0  0  0  0
   16.9772   36.4222   -8.4072 H   0  0  0  0  0  0
   19.3558   36.9502   -8.8521 H   0  0  0  0  0  0
   13.7070   41.1752  -10.1135 H   0  0  0  0  0  0
   14.0712   40.1353   -8.7454 H   0  0  0  0  0  0
   13.9246   39.4535  -10.3860 H   0  0  0  0  0  0
   19.4887   39.1598   -6.4381 H   0  0  0  0  0  0
   22.6530   40.3310   -6.3280 H   0  0  0  0  0  0
   21.6479   39.2988   -5.3321 H   0  0  0  0  0  0
   19.7640   40.7703   -5.7679 H   0  0  0  0  0  0
   22.3046   40.5093   -3.7393 H   0  0  0  0  0  0
   22.6947   42.2498   -3.2789 H   0  0  0  0  0  0
   20.2517   42.6808   -2.8382 H   0  0  0  0  0  0
   19.8616   40.9404   -3.2986 H   0  0  0  0  0  0
   19.1980   43.7268   -5.8681 H   0  0  0  0  0  0
   21.7100   47.2027   -6.3880 H   0  0  0  0  0  0
   23.6270   45.9464   -5.4629 H   0  0  0  0  0  0
   23.3544   43.5943   -4.7412 H   0  0  0  0  0  0
   18.2635   45.6239   -6.7887 H   0  0  0  0  0  0
   17.7872   47.9715   -6.2364 H   0  0  0  0  0  0
   19.4624   48.2455   -5.7805 H   0  0  0  0  0  0
   18.4619   47.1367   -4.8461 H   0  0  0  0  0  0
   18.4509   47.2502   -8.6224 H   0  0  0  0  0  0
   19.5781   45.9240   -8.8582 H   0  0  0  0  0  0
   20.1607   47.4868   -8.2909 H   0  0  0  0  0  0
  1  2  1  0  0  0
  1 45  1  0  0  0
  1 46  1  0  0  0
  1 47  1  0  0  0
  2  3  1  0  0  0
  2 48  1  0  0  0
  2 49  1  0  0  0
  3  4  1  0  0  0
  3 50  1  0  0  0
  3 51  1  0  0  0
  4  5  1  0  0  0
  4 52  1  0  0  0
  5 13  1  0  0  0
  5  6  2  0  0  0
  6  7  1  0  0  0
  6 53  1  0  0  0
  7  8  1  0  0  0
  7 11  2  0  0  0
  8  9  1  0  0  0
  8 54  1  0  0  0
  8 55  1  0  0  0
  9 10  1  0  0  0
 10 56  1  0  0  0
 10 57  1  0  0  0
 10 58  1  0  0  0
 11 12  1  0  0  0
 11 59  1  0  0  0
 12 13  2  0  0  0
 12 14  1  0  0  0
 13 60  1  0  0  0
 14 15  2  0  0  0
 14 16  1  0  0  0
 16 17  1  0  0  0
 16 61  1  0  0  0
 17 43  1  0  0  0
 17 18  1  0  0  0
 17 27  1  0  0  0
 18 19  1  0  0  0
 18 62  1  0  0  0
 18 63  1  0  0  0
 19 24  1  0  0  0
 19 20  2  0  0  0
 20 21  1  0  0  0
 20 64  1  0  0  0
 21 22  2  0  0  0
 21 25  1  0  0  0
 22 23  1  0  0  0
 22 65  1  0  0  0
 23 24  2  0  0  0
 23 66  1  0  0  0
 24 67  1  0  0  0
 25 26  1  0  0  0
 26 68  1  0  0  0
 26 69  1  0  0  0
 26 70  1  0  0  0
 27 44  1  0  0  0
 27 28  1  0  0  0
 27 29  1  0  0  0
 28 71  1  0  0  0
 29 30  1  0  0  0
 29 72  1  0  0  0
 29 73  1  0  0  0
 30 31  1  0  0  0
 30 74  1  0  0  0
 31 33  1  0  0  0
 31 32  1  0  0  0
 31 34  1  0  0  0
 32 33  1  0  0  0
 32 75  1  0  0  0
 32 76  1  0  0  0
 33 77  1  0  0  0
 33 78  1  0  0  0
 34 39  1  0  0  0
 34 35  2  0  0  0
 35 36  1  0  0  0
 35 79  1  0  0  0
 36 37  2  0  0  0
 36 40  1  0  0  0
 37 38  1  0  0  0
 37 80  1  0  0  0
 38 39  2  0  0  0
 38 81  1  0  0  0
 39 82  1  0  0  0
 40 41  1  0  0  0
 40 42  1  0  0  0
 40 83  1  0  0  0
 41 84  1  0  0  0
 41 85  1  0  0  0
 41 86  1  0  0  0
 42 87  1  0  0  0
 42 88  1  0  0  0
 42 89  1  0  0  0
M  END
> <s_m_source_file>
BACE_145.smi

> <i_m_source_file_index>
1

> <i_lp_mmshare_version>
42013

> <i_f3d_flags>
0

> <s_epik_input>
W0NIM11bQ0gyXVtDSDJdW05IXWMxW2NIXWMoW0NIMl1PW0NIM10pW2NIXWMoW2NIXTEpQyg9TylbTkhdW0NAQEhdKFtDSDJdYzJbY0hdYyhPW0NIM10pW2NIXVtjSF1bY0hdMilbQ0BIXShbT0hdKVtDSDJdW05IXUMzKFtDSDJdW0NIMl0zKWM0W2NIXWMoW0NIXShbQ0gzXSlbQ0gzXSlbY0hdW2NIXVtjSF00

> <s_epik_cmdline>
J2VwaWtfcHl0aG9uJywgJy1waCcsICc3LjAnLCAnLXRuJywgJzgnLCAnLW1hJywgJzIwMCcsICctaW1hZScsICc8aW5maWxlLm1hZT4nLCAnLW9tYWUnLCAnPG91dGZpbGUubWFlPic=

> <r_lp_tautomer_probability>
1

> <r_epik_Ionization_Penalty>
  0.3235

> <r_epik_Ionization_Penalty_Charging>
  0.0000

> <r_epik_Ionization_Penalty_Neutral>
  0.3235

> <r_epik_State_Penalty>
  0.3176

> <r_epik_Charging_Adjusted_Penalty>
0.317604

> <i_epik_Tot_Q>
0

> <i_epik_Tot_abs_Q>
0

> <s_lp_Force_Field>
OPLS_2005

> <r_lp_Energy>
51.3819

> <b_lp_Chiralities_Consistent>
1

> <s_lp_Variant>
BACE_145.smi:1-1

> <chiral flag>
1

> <version>
0

> <s_i_glide_gridfile>
second_dock_grid_2

> <i_i_glide_lignum>
296

> <i_i_glide_rotatable_bonds>
18

> <r_i_docking_score>
-4.56818

> <r_i_glide_ligand_efficiency>
-0.108766

> <r_i_glide_ligand_efficiency_sa>
-0.378074

> <r_i_glide_ligand_efficiency_ln>
-0.964225

> <r_glide_XP_GScore>
-4.88578

> <r_i_glide_gscore>
-4.88578

> <r_i_glide_evdw>
-52.7213

> <r_i_glide_ecoul>
-5.70924

> <r_i_glide_energy>
-58.4305

> <r_i_glide_einternal>
13.3895

> <r_i_glide_emodel>
-83.5007

> <r_glide_XP_HBond>
-0.45565

> <i_i_glide_confnum>
1

> <i_i_glide_posenum>
28

> <r_i_glide_eff_state_penalty>
0.3176

> <i_glide_XP_PoseRank>
1

$$$$
BACE_145.smi:1
                    3D
 Structure written by MMmdl.
 90 93  0  0  1  0            999 V2000
   20.9723   43.7371    0.0966 C   0  0  0  0  0  0
   21.3783   43.0256   -1.1973 C   0  0  0  0  0  0
   20.3361   42.0103   -1.6876 C   0  0  0  0  0  0
   20.8457   41.2043   -2.7904 N   0  0  0  0  0  0
   20.7830   41.6552   -4.1155 C   0  0  0  0  0  0
   20.4730   42.9927   -4.4546 C   0  0  0  0  0  0
   20.4199   43.3878   -5.8025 C   0  0  0  0  0  0
   20.2036   44.8489   -6.1551 C   0  0  0  0  0  0
   18.8536   45.2729   -6.0436 O   0  0  0  0  0  0
   18.0002   44.6502   -6.9973 C   0  0  0  0  0  0
   20.5972   42.4314   -6.8202 C   0  0  0  0  0  0
   20.9175   41.0919   -6.5047 C   0  0  0  0  0  0
   21.0248   40.7204   -5.1457 C   0  0  0  0  0  0
   21.2280   40.0901   -7.5825 C   0  0  0  0  0  0
   22.0049   39.1580   -7.3716 O   0  0  0  0  0  0
   20.6009   40.2687   -8.7587 N   0  0  0  0  0  0
   20.7255   39.3906   -9.9306 C   0  0  1  0  0  0
   19.6017   38.3200   -9.9497 C   0  0  0  0  0  0
   18.2497   38.7958   -9.4317 C   0  0  0  0  0  0
   17.3729   39.5113  -10.2726 C   0  0  0  0  0  0
   16.1166   39.9551   -9.8090 C   0  0  0  0  0  0
   15.7423   39.6683   -8.4712 C   0  0  0  0  0  0
   16.6122   38.9500   -7.6304 C   0  0  0  0  0  0
   17.8619   38.5135   -8.1054 C   0  0  0  0  0  0
   15.3269   40.6498  -10.7019 O   0  0  0  0  0  0
   14.0641   41.1067  -10.2406 C   0  0  0  0  0  0
   20.8118   40.2022  -11.2571 C   0  0  2  0  0  0
   21.2599   39.3558  -12.2976 O   0  0  0  0  0  0
   21.7314   41.4467  -11.2275 C   0  0  0  0  0  0
   23.1196   41.1033  -10.8400 N   0  3  0  0  0  0
   23.9572   42.1818  -10.2559 C   0  0  0  0  0  0
   23.3547   43.0124   -9.1404 C   0  0  0  0  0  0
   24.2909   41.8819   -8.8115 C   0  0  0  0  0  0
   25.0121   42.7282  -11.1631 C   0  0  0  0  0  0
   26.3279   42.2224  -11.1056 C   0  0  0  0  0  0
   27.3539   42.7878  -11.8904 C   0  0  0  0  0  0
   27.0427   43.8476  -12.7712 C   0  0  0  0  0  0
   25.7304   44.3518  -12.8402 C   0  0  0  0  0  0
   24.7174   43.7931  -12.0391 C   0  0  0  0  0  0
   28.7734   42.2445  -11.7786 C   0  0  0  0  0  0
   29.0767   41.2741  -12.9214 C   0  0  0  0  0  0
   29.8339   43.3536  -11.6763 C   0  0  0  0  0  0
   21.6717   38.8475   -9.8572 H   0  0  0  0  0  0
   19.8099   40.5402  -11.5241 H   0  0  0  0  0  0
   21.7512   44.4277    0.4191 H   0  0  0  0  0  0
   20.8025   43.0241    0.9033 H   0  0  0  0  0  0
   20.0596   44.3119   -0.0400 H   0  0  0  0  0  0
   22.3352   42.5502   -1.0519 H   0  0  0  0  0  0
   21.5840   43.7500   -1.9747 H   0  0  0  0  0  0
   19.4106   42.5103   -1.9779 H   0  0  0  0  0  0
   20.0595   41.3331   -0.8776 H   0  0  0  0  0  0
   20.9381   40.2105   -2.6373 H   0  0  0  0  0  0
   20.2924   43.7434   -3.7021 H   0  0  0  0  0  0
   20.8018   45.4559   -5.4753 H   0  0  0  0  0  0
   20.5826   45.0558   -7.1576 H   0  0  0  0  0  0
   16.9884   45.0457   -6.9200 H   0  0  0  0  0  0
   17.9293   43.5707   -6.8397 H   0  0  0  0  0  0
   18.3468   44.8301   -8.0178 H   0  0  0  0  0  0
   20.4942   42.7494   -7.8452 H   0  0  0  0  0  0
   21.2760   39.7005   -4.8913 H   0  0  0  0  0  0
   19.8973   40.9911   -8.7968 H   0  0  0  0  0  0
   19.4783   37.8972  -10.9483 H   0  0  0  0  0  0
   19.9146   37.4835   -9.3232 H   0  0  0  0  0  0
   17.6529   39.7127  -11.2951 H   0  0  0  0  0  0
   14.7931   39.9788   -8.0609 H   0  0  0  0  0  0
   16.3147   38.7245   -6.6133 H   0  0  0  0  0  0
   18.5145   37.9586   -7.4440 H   0  0  0  0  0  0
   13.5436   41.6168  -11.0516 H   0  0  0  0  0  0
   14.1760   41.8166   -9.4200 H   0  0  0  0  0  0
   13.4380   40.2762   -9.9123 H   0  0  0  0  0  0
   21.0621   39.7495  -13.1347 H   0  0  0  0  0  0
   21.2876   42.1783  -10.5576 H   0  0  0  0  0  0
   21.7607   41.9289  -12.2057 H   0  0  0  0  0  0
   23.5849   40.7822  -11.6928 H   0  0  0  0  0  0
   23.7361   44.0223   -9.0000 H   0  0  0  0  0  0
   22.3302   42.8683   -8.8375 H   0  0  0  0  0  0
   23.8666   40.9977   -8.3410 H   0  0  0  0  0  0
   25.2600   42.1841   -8.4395 H   0  0  0  0  0  0
   26.5605   41.4057  -10.4368 H   0  0  0  0  0  0
   27.8069   44.2842  -13.3969 H   0  0  0  0  0  0
   25.5026   45.1707  -13.5063 H   0  0  0  0  0  0
   23.7157   44.1939  -12.0899 H   0  0  0  0  0  0
   28.8314   41.6749  -10.8487 H   0  0  0  0  0  0
   30.1184   40.9566  -12.9019 H   0  0  0  0  0  0
   28.8943   41.7252  -13.8957 H   0  0  0  0  0  0
   28.4604   40.3799  -12.8405 H   0  0  0  0  0  0
   30.8209   42.9275  -11.4991 H   0  0  0  0  0  0
   29.6169   44.0271  -10.8476 H   0  0  0  0  0  0
   29.8972   43.9482  -12.5862 H   0  0  0  0  0  0
   23.0981   40.3353  -10.1844 H   0  0  0  0  0  0
  1  2  1  0  0  0
  1 45  1  0  0  0
  1 46  1  0  0  0
  1 47  1  0  0  0
  2  3  1  0  0  0
  2 48  1  0  0  0
  2 49  1  0  0  0
  3  4  1  0  0  0
  3 50  1  0  0  0
  3 51  1  0  0  0
  4  5  1  0  0  0
  4 52  1  0  0  0
  5 13  1  0  0  0
  5  6  2  0  0  0
  6  7  1  0  0  0
  6 53  1  0  0  0
  7  8  1  0  0  0
  7 11  2  0  0  0
  8  9  1  0  0  0
  8 54  1  0  0  0
  8 55  1  0  0  0
  9 10  1  0  0  0
 10 56  1  0  0  0
 10 57  1  0  0  0
 10 58  1  0  0  0
 11 12  1  0  0  0
 11 59  1  0  0  0
 12 13  2  0  0  0
 12 14  1  0  0  0
 13 60  1  0  0  0
 14 15  2  0  0  0
 14 16  1  0  0  0
 16 17  1  0  0  0
 16 61  1  0  0  0
 17 43  1  0  0  0
 17 18  1  0  0  0
 17 27  1  0  0  0
 18 19  1  0  0  0
 18 62  1  0  0  0
 18 63  1  0  0  0
 19 24  1  0  0  0
 19 20  2  0  0  0
 20 21  1  0  0  0
 20 64  1  0  0  0
 21 22  2  0  0  0
 21 25  1  0  0  0
 22 23  1  0  0  0
 22 65  1  0  0  0
 23 24  2  0  0  0
 23 66  1  0  0  0
 24 67  1  0  0  0
 25 26  1  0  0  0
 26 68  1  0  0  0
 26 69  1  0  0  0
 26 70  1  0  0  0
 27 44  1  0  0  0
 27 28  1  0  0  0
 27 29  1  0  0  0
 28 71  1  0  0  0
 29 30  1  0  0  0
 29 72  1  0  0  0
 29 73  1  0  0  0
 30 31  1  0  0  0
 30 74  1  0  0  0
 30 90  1  0  0  0
 31 33  1  0  0  0
 31 32  1  0  0  0
 31 34  1  0  0  0
 32 33  1  0  0  0
 32 75  1  0  0  0
 32 76  1  0  0  0
 33 77  1  0  0  0
 33 78  1  0  0  0
 34 39  1  0  0  0
 34 35  2  0  0  0
 35 36  1  0  0  0
 35 79  1  0  0  0
 36 37  2  0  0  0
 36 40  1  0  0  0
 37 38  1  0  0  0
 37 80  1  0  0  0
 38 39  2  0  0  0
 38 81  1  0  0  0
 39 82  1  0  0  0
 40 41  1  0  0  0
 40 42  1  0  0  0
 40 83  1  0  0  0
 41 84  1  0  0  0
 41 85  1  0  0  0
 41 86  1  0  0  0
 42 87  1  0  0  0
 42 88  1  0  0  0
 42 89  1  0  0  0
M  CHG  1  30   1
M  END
> <s_m_source_file>
BACE_145.smi

> <i_m_source_file_index>
1

> <i_lp_mmshare_version>
42013

> <i_f3d_flags>
0

> <s_epik_input>
W0NIM11bQ0gyXVtDSDJdW05IXWMxW2NIXWMoW0NIMl1PW0NIM10pW2NIXWMoW2NIXTEpQyg9TylbTkhdW0NAQEhdKFtDSDJdYzJbY0hdYyhPW0NIM10pW2NIXVtjSF1bY0hdMilbQ0BIXShbT0hdKVtDSDJdW05IXUMzKFtDSDJdW0NIMl0zKWM0W2NIXWMoW0NIXShbQ0gzXSlbQ0gzXSlbY0hdW2NIXVtjSF00

> <s_epik_cmdline>
J2VwaWtfcHl0aG9uJywgJy1waCcsICc3LjAnLCAnLXRuJywgJzgnLCAnLW1hJywgJzIwMCcsICctaW1hZScsICc8aW5maWxlLm1hZT4nLCAnLW9tYWUnLCAnPG91dGZpbGUubWFlPic=

> <r_lp_tautomer_probability>
1

> <r_epik_Ionization_Penalty>
  0.5142

> <r_epik_Ionization_Penalty_Charging>
  0.5137

> <r_epik_Ionization_Penalty_Neutral>
  0.0005

> <r_epik_State_Penalty>
  0.5212

> <r_epik_Charging_Adjusted_Penalty>
1.03485

> <i_epik_Tot_Q>
1

> <i_epik_Tot_abs_Q>
1

> <s_lp_Force_Field>
OPLS_2005

> <r_lp_Energy>
38.1654

> <b_lp_Chiralities_Consistent>
1

> <s_lp_Variant>
BACE_145.smi:1-2

> <chiral flag>
1

> <version>
0

> <s_i_glide_gridfile>
second_dock_grid_2

> <i_i_glide_lignum>
297

> <i_i_glide_rotatable_bonds>
18

> <r_i_docking_score>
-5.31235

> <r_i_glide_ligand_efficiency>
-0.126484

> <r_i_glide_ligand_efficiency_sa>
-0.439663

> <r_i_glide_ligand_efficiency_ln>
-1.1213

> <r_glide_XP_GScore>
-5.83355

> <r_i_glide_gscore>
-5.83355

> <r_i_glide_evdw>
-52.0574

> <r_i_glide_ecoul>
-10.609

> <r_i_glide_energy>
-62.6664

> <r_i_glide_einternal>
12.6101

> <r_i_glide_emodel>
-92.7679

> <r_glide_XP_HBond>
-0.7

> <i_i_glide_confnum>
1

> <i_i_glide_posenum>
14

> <r_i_glide_eff_state_penalty>
0.5212

> <i_glide_XP_PoseRank>
1

$$$$
BACE_146.smi:1
                    3D
 Structure written by MMmdl.
 86 88  0  0  1  0            999 V2000
   22.3835   43.5610   -4.1872 C   0  0  0  0  0  0
   20.9549   43.4877   -4.7431 C   0  0  0  0  0  0
   20.9349   43.1754   -6.2446 C   0  0  0  0  0  0
   19.5830   42.9835   -6.7490 N   0  0  0  0  0  0
   18.7744   44.0420   -7.1856 C   0  0  0  0  0  0
   19.1804   45.3925   -7.1584 C   0  0  0  0  0  0
   18.2929   46.4121   -7.5615 C   0  0  0  0  0  0
   18.7483   47.8519   -7.4680 C   0  0  0  0  0  0
   19.2866   48.1278   -6.1838 O   0  0  0  0  0  0
   19.9931   49.3525   -6.1386 C   0  0  0  0  0  0
   17.0050   46.0855   -8.0404 C   0  0  0  0  0  0
   16.5933   44.7362   -8.0790 C   0  0  0  0  0  0
   17.4795   43.7310   -7.6395 C   0  0  0  0  0  0
   15.2013   44.3596   -8.4881 C   0  0  0  0  0  0
   14.2161   44.9496   -8.0423 O   0  0  0  0  0  0
   15.1367   43.3192   -9.3336 N   0  0  0  0  0  0
   14.0150   42.3888   -9.4809 C   0  0  1  0  0  0
   12.7301   42.9701  -10.1271 C   0  0  0  0  0  0
   12.8549   43.6638  -11.4778 C   0  0  0  0  0  0
   12.2311   43.0962  -12.6067 C   0  0  0  0  0  0
   12.2550   43.7503  -13.8524 C   0  0  0  0  0  0
   12.8597   45.0317  -13.9369 C   0  0  0  0  0  0
   13.4970   45.6015  -12.8261 C   0  0  0  0  0  0
   13.5081   44.9084  -11.6041 C   0  0  0  0  0  0
   11.6342   43.1196  -14.9055 O   0  0  0  0  0  0
   11.9716   43.5372  -16.2223 C   0  0  0  0  0  0
   14.5521   41.0232  -10.0248 C   0  0  2  0  0  0
   14.0600   40.7187  -11.3221 O   0  0  0  0  0  0
   14.3196   39.8152   -9.0754 C   0  0  0  0  0  0
   14.8851   40.0571   -7.7178 N   0  3  0  0  0  0
   15.8412   39.0515   -7.2008 C   0  0  0  0  0  0
   16.9788   38.7440   -8.1719 C   0  0  0  0  0  0
   17.7349   39.7779   -8.7696 C   0  0  0  0  0  0
   18.7171   39.4774   -9.7441 C   0  0  0  0  0  0
   18.9825   38.1310  -10.0588 C   0  0  0  0  0  0
   18.2585   37.0960   -9.4402 C   0  0  0  0  0  0
   17.2574   37.4028   -8.5049 C   0  0  0  0  0  0
   19.4942   40.5676  -10.4748 C   0  0  0  0  0  0
   18.6236   41.7742  -10.8692 C   0  0  0  0  0  0
   20.7401   40.9891   -9.6868 C   0  0  0  0  0  0
   13.6854   42.2096   -8.4607 H   0  0  0  0  0  0
   15.6304   41.0997  -10.1622 H   0  0  0  0  0  0
   22.3780   43.7507   -3.1131 H   0  0  0  0  0  0
   22.9543   44.3602   -4.6655 H   0  0  0  0  0  0
   22.9175   42.6239   -4.3541 H   0  0  0  0  0  0
   20.4014   42.7178   -4.2033 H   0  0  0  0  0  0
   20.4373   44.4283   -4.5528 H   0  0  0  0  0  0
   21.4632   43.9405   -6.8132 H   0  0  0  0  0  0
   21.4832   42.2478   -6.4219 H   0  0  0  0  0  0
   19.1153   42.1292   -6.4637 H   0  0  0  0  0  0
   20.1583   45.6717   -6.7963 H   0  0  0  0  0  0
   19.5013   48.0077   -8.2416 H   0  0  0  0  0  0
   17.9219   48.5335   -7.6743 H   0  0  0  0  0  0
   20.3435   49.5386   -5.1235 H   0  0  0  0  0  0
   19.3536   50.1798   -6.4404 H   0  0  0  0  0  0
   20.8672   49.3261   -6.7914 H   0  0  0  0  0  0
   16.3245   46.8639   -8.3509 H   0  0  0  0  0  0
   17.1472   42.7062   -7.6070 H   0  0  0  0  0  0
   16.0198   43.0075   -9.7119 H   0  0  0  0  0  0
   11.9819   42.1773  -10.1921 H   0  0  0  0  0  0
   12.2955   43.6993   -9.4419 H   0  0  0  0  0  0
   11.7194   42.1508  -12.5306 H   0  0  0  0  0  0
   12.8594   45.5785  -14.8667 H   0  0  0  0  0  0
   13.9756   46.5654  -12.9097 H   0  0  0  0  0  0
   14.0040   45.3517  -10.7571 H   0  0  0  0  0  0
   11.5014   42.8649  -16.9404 H   0  0  0  0  0  0
   13.0497   43.4922  -16.3921 H   0  0  0  0  0  0
   11.6101   44.5446  -16.4310 H   0  0  0  0  0  0
   13.1660   40.3790  -11.2392 H   0  0  0  0  0  0
   13.2600   39.5878   -8.9844 H   0  0  0  0  0  0
   14.7501   38.9174   -9.5189 H   0  0  0  0  0  0
   15.3573   40.9471   -7.7167 H   0  0  0  0  0  0
   16.2522   39.3959   -6.2508 H   0  0  0  0  0  0
   15.2682   38.1517   -6.9863 H   0  0  0  0  0  0
   17.5349   40.8022   -8.5062 H   0  0  0  0  0  0
   19.7347   37.8843  -10.7921 H   0  0  0  0  0  0
   18.4585   36.0665   -9.6974 H   0  0  0  0  0  0
   16.6992   36.6028   -8.0413 H   0  0  0  0  0  0
   19.8480   40.1305  -11.4093 H   0  0  0  0  0  0
   19.1971   42.4784  -11.4717 H   0  0  0  0  0  0
   18.2624   42.3196   -9.9981 H   0  0  0  0  0  0
   17.7615   41.4612  -11.4625 H   0  0  0  0  0  0
   21.3078   41.7520  -10.2204 H   0  0  0  0  0  0
   21.4048   40.1408   -9.5247 H   0  0  0  0  0  0
   20.4766   41.3949   -8.7130 H   0  0  0  0  0  0
   14.1217   40.1211   -7.0551 H   0  0  0  0  0  0
  1  2  1  0  0  0
  1 43  1  0  0  0
  1 44  1  0  0  0
  1 45  1  0  0  0
  2  3  1  0  0  0
  2 46  1  0  0  0
  2 47  1  0  0  0
  3  4  1  0  0  0
  3 48  1  0  0  0
  3 49  1  0  0  0
  4  5  1  0  0  0
  4 50  1  0  0  0
  5 13  1  0  0  0
  5  6  2  0  0  0
  6  7  1  0  0  0
  6 51  1  0  0  0
  7  8  1  0  0  0
  7 11  2  0  0  0
  8  9  1  0  0  0
  8 52  1  0  0  0
  8 53  1  0  0  0
  9 10  1  0  0  0
 10 54  1  0  0  0
 10 55  1  0  0  0
 10 56  1  0  0  0
 11 12  1  0  0  0
 11 57  1  0  0  0
 12 13  2  0  0  0
 12 14  1  0  0  0
 13 58  1  0  0  0
 14 15  2  0  0  0
 14 16  1  0  0  0
 16 17  1  0  0  0
 16 59  1  0  0  0
 17 41  1  0  0  0
 17 18  1  0  0  0
 17 27  1  0  0  0
 18 19  1  0  0  0
 18 60  1  0  0  0
 18 61  1  0  0  0
 19 24  1  0  0  0
 19 20  2  0  0  0
 20 21  1  0  0  0
 20 62  1  0  0  0
 21 22  2  0  0  0
 21 25  1  0  0  0
 22 23  1  0  0  0
 22 63  1  0  0  0
 23 24  2  0  0  0
 23 64  1  0  0  0
 24 65  1  0  0  0
 25 26  1  0  0  0
 26 66  1  0  0  0
 26 67  1  0  0  0
 26 68  1  0  0  0
 27 42  1  0  0  0
 27 28  1  0  0  0
 27 29  1  0  0  0
 28 69  1  0  0  0
 29 30  1  0  0  0
 29 70  1  0  0  0
 29 71  1  0  0  0
 30 31  1  0  0  0
 30 72  1  0  0  0
 30 86  1  0  0  0
 31 32  1  0  0  0
 31 73  1  0  0  0
 31 74  1  0  0  0
 32 37  1  0  0  0
 32 33  2  0  0  0
 33 34  1  0  0  0
 33 75  1  0  0  0
 34 35  2  0  0  0
 34 38  1  0  0  0
 35 36  1  0  0  0
 35 76  1  0  0  0
 36 37  2  0  0  0
 36 77  1  0  0  0
 37 78  1  0  0  0
 38 39  1  0  0  0
 38 40  1  0  0  0
 38 79  1  0  0  0
 39 80  1  0  0  0
 39 81  1  0  0  0
 39 82  1  0  0  0
 40 83  1  0  0  0
 40 84  1  0  0  0
 40 85  1  0  0  0
M  CHG  1  30   1
M  END
> <s_m_source_file>
BACE_146.smi

> <i_m_source_file_index>
1

> <i_lp_mmshare_version>
42013

> <i_f3d_flags>
0

> <s_epik_input>
W0NIM11bQ0gyXVtDSDJdW05IXWMxW2NIXWMoW0NIMl1PW0NIM10pW2NIXWMoW2NIXTEpQyg9TylbTkhdW0NAQEhdKFtDSDJdYzJbY0hdYyhPW0NIM10pW2NIXVtjSF1bY0hdMilbQ0BIXShbT0hdKVtDSDJdW05IXVtDSDJdYzNbY0hdYyhbQ0hdKFtDSDNdKVtDSDNdKVtjSF1bY0hdW2NIXTM=

> <s_epik_cmdline>
J2VwaWtfcHl0aG9uJywgJy1waCcsICc3LjAnLCAnLXRuJywgJzgnLCAnLW1hJywgJzIwMCcsICctaW1hZScsICc8aW5maWxlLm1hZT4nLCAnLW9tYWUnLCAnPG91dGZpbGUubWFlPic=

> <r_lp_tautomer_probability>
1

> <r_epik_Ionization_Penalty>
  0.0196

> <r_epik_Ionization_Penalty_Charging>
  0.0191

> <r_epik_Ionization_Penalty_Neutral>
  0.0005

> <r_epik_State_Penalty>
  0.0153

> <r_epik_Charging_Adjusted_Penalty>
0.0343718

> <i_epik_Tot_Q>
1

> <i_epik_Tot_abs_Q>
1

> <s_lp_Force_Field>
OPLS_2005

> <r_lp_Energy>
31.4376

> <b_lp_Chiralities_Consistent>
1

> <s_lp_Variant>
BACE_146.smi:1-1

> <chiral flag>
1

> <version>
0

> <s_i_glide_gridfile>
second_dock_grid_2

> <i_i_glide_lignum>
298

> <i_i_glide_rotatable_bonds>
18

> <r_i_docking_score>
-5.25337

> <r_i_glide_ligand_efficiency>
-0.131334

> <r_i_glide_ligand_efficiency_sa>
-0.449157

> <r_i_glide_ligand_efficiency_ln>
-1.12039

> <r_glide_XP_GScore>
-5.26867

> <r_i_glide_gscore>
-5.26867

> <r_i_glide_evdw>
-32.6993

> <r_i_glide_ecoul>
-25.0007

> <r_i_glide_energy>
-57.7

> <r_i_glide_einternal>
14.3648

> <r_i_glide_emodel>
-73.6304

> <r_glide_XP_HBond>
-1.25264

> <i_i_glide_confnum>
1

> <i_i_glide_posenum>
14

> <r_i_glide_eff_state_penalty>
0.0153

> <i_glide_XP_PoseRank>
1

$$$$
BACE_146.smi:1
                    3D
 Structure written by MMmdl.
 85 87  0  0  1  0            999 V2000
   20.0869   41.1585   -2.0714 C   0  0  0  0  0  0
   21.1818   41.0299   -3.1401 C   0  0  0  0  0  0
   21.9349   42.3501   -3.3809 C   0  0  0  0  0  0
   21.1068   43.3500   -4.0402 N   0  0  0  0  0  0
   20.7525   43.2418   -5.3957 C   0  0  0  0  0  0
   21.3804   42.3272   -6.2678 C   0  0  0  0  0  0
   21.0007   42.2481   -7.6208 C   0  0  0  0  0  0
   21.6911   41.2707   -8.5483 C   0  0  0  0  0  0
   22.9673   40.8596   -8.0784 O   0  0  0  0  0  0
   23.1043   39.4493   -8.0359 C   0  0  0  0  0  0
   19.9430   43.0472   -8.1006 C   0  0  0  0  0  0
   19.2892   43.9584   -7.2395 C   0  0  0  0  0  0
   19.7312   44.0716   -5.9024 C   0  0  0  0  0  0
   18.1798   44.8372   -7.7429 C   0  0  0  0  0  0
   18.0428   45.9792   -7.3045 O   0  0  0  0  0  0
   17.3578   44.2874   -8.6561 N   0  0  0  0  0  0
   16.2915   44.9849   -9.3834 C   0  0  1  0  0  0
   16.5036   44.7654  -10.8973 C   0  0  0  0  0  0
   15.5788   45.5910  -11.7806 C   0  0  0  0  0  0
   16.0041   46.8460  -12.2678 C   0  0  0  0  0  0
   15.1550   47.6286  -13.0910 C   0  0  0  0  0  0
   13.8688   47.1435  -13.3978 C   0  0  0  0  0  0
   13.4397   45.8949  -12.9145 C   0  0  0  0  0  0
   14.2983   45.1121  -12.1226 C   0  0  0  0  0  0
   15.4971   48.8587  -13.6072 O   0  0  0  0  0  0
   16.8179   49.3307  -13.3861 C   0  0  0  0  0  0
   14.8748   44.5888   -8.8682 C   0  0  2  0  0  0
   14.6573   45.3488   -7.6925 O   0  0  0  0  0  0
   14.5991   43.0852   -8.5904 C   0  0  0  0  0  0
   13.7613   42.4466   -9.6280 N   0  0  0  0  0  0
   14.4369   41.5324  -10.5560 C   0  0  0  0  0  0
   15.1549   40.3822   -9.8741 C   0  0  0  0  0  0
   16.5335   40.1852  -10.0940 C   0  0  0  0  0  0
   17.2391   39.1717   -9.4009 C   0  0  0  0  0  0
   16.5364   38.3797   -8.4640 C   0  0  0  0  0  0
   15.1561   38.5500   -8.2695 C   0  0  0  0  0  0
   14.4606   39.5308   -8.9932 C   0  0  0  0  0  0
   18.7452   38.9646   -9.5838 C   0  0  0  0  0  0
   19.1331   37.4877   -9.7616 C   0  0  0  0  0  0
   19.3664   39.7897  -10.7296 C   0  0  0  0  0  0
   16.4105   46.0614   -9.2397 H   0  0  0  0  0  0
   14.1074   44.9502   -9.5442 H   0  0  0  0  0  0
   19.6843   40.1840   -1.8002 H   0  0  0  0  0  0
   19.2624   41.7761   -2.4274 H   0  0  0  0  0  0
   20.4600   41.6214   -1.1611 H   0  0  0  0  0  0
   21.9030   40.2717   -2.8399 H   0  0  0  0  0  0
   20.7433   40.6571   -4.0662 H   0  0  0  0  0  0
   22.2729   42.7579   -2.4282 H   0  0  0  0  0  0
   22.8417   42.1765   -3.9577 H   0  0  0  0  0  0
   20.8436   44.1766   -3.5057 H   0  0  0  0  0  0
   22.1688   41.6803   -5.9160 H   0  0  0  0  0  0
   21.0261   40.4230   -8.6614 H   0  0  0  0  0  0
   21.8102   41.7157   -9.5366 H   0  0  0  0  0  0
   24.1307   39.1896   -7.7770 H   0  0  0  0  0  0
   22.8609   39.0000   -9.0010 H   0  0  0  0  0  0
   22.4448   39.0163   -7.2806 H   0  0  0  0  0  0
   19.6471   42.9615   -9.1358 H   0  0  0  0  0  0
   19.2599   44.7811   -5.2417 H   0  0  0  0  0  0
   17.5165   43.3182   -8.8872 H   0  0  0  0  0  0
   17.5317   45.0241  -11.1567 H   0  0  0  0  0  0
   16.4071   43.7139  -11.1505 H   0  0  0  0  0  0
   16.9907   47.1887  -11.9958 H   0  0  0  0  0  0
   13.2113   47.7289  -14.0249 H   0  0  0  0  0  0
   12.4613   45.5233  -13.1747 H   0  0  0  0  0  0
   13.9623   44.1475  -11.7729 H   0  0  0  0  0  0
   16.9524   50.2818  -13.9029 H   0  0  0  0  0  0
   17.5620   48.6358  -13.7772 H   0  0  0  0  0  0
   17.0054   49.5026  -12.3262 H   0  0  0  0  0  0
   15.2600   45.0213   -7.0342 H   0  0  0  0  0  0
   15.5164   42.5269   -8.4104 H   0  0  0  0  0  0
   14.0580   43.0073   -7.6449 H   0  0  0  0  0  0
   13.0387   41.9010   -9.1483 H   0  0  0  0  0  0
   13.6990   41.1006  -11.2309 H   0  0  0  0  0  0
   15.1363   42.0719  -11.1871 H   0  0  0  0  0  0
   17.0406   40.8407  -10.7839 H   0  0  0  0  0  0
   17.0449   37.6358   -7.8672 H   0  0  0  0  0  0
   14.6392   37.9370   -7.5448 H   0  0  0  0  0  0
   13.3987   39.6494   -8.8398 H   0  0  0  0  0  0
   19.1825   39.2925   -8.6429 H   0  0  0  0  0  0
   20.2165   37.3712   -9.7745 H   0  0  0  0  0  0
   18.7512   37.0960  -10.7024 H   0  0  0  0  0  0
   18.7633   36.8586   -8.9552 H   0  0  0  0  0  0
   20.4310   39.5811  -10.8307 H   0  0  0  0  0  0
   19.2669   40.8604  -10.5542 H   0  0  0  0  0  0
   18.8998   39.5527  -11.6868 H   0  0  0  0  0  0
  1  2  1  0  0  0
  1 43  1  0  0  0
  1 44  1  0  0  0
  1 45  1  0  0  0
  2  3  1  0  0  0
  2 46  1  0  0  0
  2 47  1  0  0  0
  3  4  1  0  0  0
  3 48  1  0  0  0
  3 49  1  0  0  0
  4  5  1  0  0  0
  4 50  1  0  0  0
  5 13  1  0  0  0
  5  6  2  0  0  0
  6  7  1  0  0  0
  6 51  1  0  0  0
  7  8  1  0  0  0
  7 11  2  0  0  0
  8  9  1  0  0  0
  8 52  1  0  0  0
  8 53  1  0  0  0
  9 10  1  0  0  0
 10 54  1  0  0  0
 10 55  1  0  0  0
 10 56  1  0  0  0
 11 12  1  0  0  0
 11 57  1  0  0  0
 12 13  2  0  0  0
 12 14  1  0  0  0
 13 58  1  0  0  0
 14 15  2  0  0  0
 14 16  1  0  0  0
 16 17  1  0  0  0
 16 59  1  0  0  0
 17 41  1  0  0  0
 17 18  1  0  0  0
 17 27  1  0  0  0
 18 19  1  0  0  0
 18 60  1  0  0  0
 18 61  1  0  0  0
 19 24  1  0  0  0
 19 20  2  0  0  0
 20 21  1  0  0  0
 20 62  1  0  0  0
 21 22  2  0  0  0
 21 25  1  0  0  0
 22 23  1  0  0  0
 22 63  1  0  0  0
 23 24  2  0  0  0
 23 64  1  0  0  0
 24 65  1  0  0  0
 25 26  1  0  0  0
 26 66  1  0  0  0
 26 67  1  0  0  0
 26 68  1  0  0  0
 27 42  1  0  0  0
 27 28  1  0  0  0
 27 29  1  0  0  0
 28 69  1  0  0  0
 29 30  1  0  0  0
 29 70  1  0  0  0
 29 71  1  0  0  0
 30 31  1  0  0  0
 30 72  1  0  0  0
 31 32  1  0  0  0
 31 73  1  0  0  0
 31 74  1  0  0  0
 32 37  1  0  0  0
 32 33  2  0  0  0
 33 34  1  0  0  0
 33 75  1  0  0  0
 34 35  2  0  0  0
 34 38  1  0  0  0
 35 36  1  0  0  0
 35 76  1  0  0  0
 36 37  2  0  0  0
 36 77  1  0  0  0
 37 78  1  0  0  0
 38 39  1  0  0  0
 38 40  1  0  0  0
 38 79  1  0  0  0
 39 80  1  0  0  0
 39 81  1  0  0  0
 39 82  1  0  0  0
 40 83  1  0  0  0
 40 84  1  0  0  0
 40 85  1  0  0  0
M  END
> <s_m_source_file>
BACE_146.smi

> <i_m_source_file_index>
1

> <i_lp_mmshare_version>
42013

> <i_f3d_flags>
0

> <s_epik_input>
W0NIM11bQ0gyXVtDSDJdW05IXWMxW2NIXWMoW0NIMl1PW0NIM10pW2NIXWMoW2NIXTEpQyg9TylbTkhdW0NAQEhdKFtDSDJdYzJbY0hdYyhPW0NIM10pW2NIXVtjSF1bY0hdMilbQ0BIXShbT0hdKVtDSDJdW05IXVtDSDJdYzNbY0hdYyhbQ0hdKFtDSDNdKVtDSDNdKVtjSF1bY0hdW2NIXTM=

> <s_epik_cmdline>
J2VwaWtfcHl0aG9uJywgJy1waCcsICc3LjAnLCAnLXRuJywgJzgnLCAnLW1hJywgJzIwMCcsICctaW1hZScsICc8aW5maWxlLm1hZT4nLCAnLW9tYWUnLCAnPG91dGZpbGUubWFlPic=

> <r_lp_tautomer_probability>
1

> <r_epik_Ionization_Penalty>
  2.0445

> <r_epik_Ionization_Penalty_Charging>
  0.0000

> <r_epik_Ionization_Penalty_Neutral>
  2.0445

> <r_epik_State_Penalty>
  2.1759

> <r_epik_Charging_Adjusted_Penalty>
2.17586

> <i_epik_Tot_Q>
0

> <i_epik_Tot_abs_Q>
0

> <s_lp_Force_Field>
OPLS_2005

> <r_lp_Energy>
33.2537

> <b_lp_Chiralities_Consistent>
1

> <s_lp_Variant>
BACE_146.smi:1-2

> <chiral flag>
1

> <version>
0

> <s_i_glide_gridfile>
second_dock_grid_2

> <i_i_glide_lignum>
299

> <i_i_glide_rotatable_bonds>
18

> <r_i_docking_score>
1.24346

> <r_i_glide_ligand_efficiency>
0.0310865

> <r_i_glide_ligand_efficiency_sa>
0.106314

> <r_i_glide_ligand_efficiency_ln>
0.265193

> <r_glide_XP_GScore>
-0.932441

> <r_i_glide_gscore>
-0.932441

> <r_i_glide_evdw>
-42.6208

> <r_i_glide_ecoul>
-11.2862

> <r_i_glide_energy>
-53.907

> <r_i_glide_einternal>
0

> <r_i_glide_emodel>
-81.3844

> <r_glide_XP_HBond>
-1.95415

> <i_i_glide_confnum>
1

> <i_i_glide_posenum>
2

> <r_i_glide_eff_state_penalty>
2.1759

> <i_glide_XP_PoseRank>
1

$$$$
BACE_147.smi:1
                    3D
 Structure written by MMmdl.
 79 79  0  0  1  0            999 V2000
   20.9748   42.3124   -5.0254 C   0  0  0  0  0  0
   20.6813   43.8024   -5.2344 C   0  0  0  0  0  0
   20.0240   44.0866   -6.5916 C   0  0  0  0  0  0
   19.7821   45.5831   -6.8365 C   0  0  0  0  0  0
   19.1733   45.7751   -8.1451 N   0  0  0  0  0  0
   18.2985   46.7393   -8.4642 C   0  0  0  0  0  0
   18.0138   47.6733   -7.7126 O   0  0  0  0  0  0
   17.6089   46.6003   -9.8323 C   0  0  2  0  0  0
   17.7889   47.8929  -10.6459 C   0  0  0  0  0  0
   16.1071   46.2363   -9.7131 C   0  0  0  0  0  0
   15.6622   44.9300   -8.9877 C   0  0  2  0  0  0
   16.0747   44.9498   -7.6400 O   0  0  0  0  0  0
   15.9627   43.5596   -9.6570 C   0  0  2  0  0  0
   15.3551   42.3785   -8.8523 C   0  0  0  0  0  0
   15.5158   40.9643   -9.4612 C   0  0  2  0  0  0
   14.7264   40.8061  -10.7711 C   0  0  0  0  0  0
   15.1154   39.8936   -8.4148 C   0  0  0  0  0  0
   15.3635   38.4216   -8.8053 C   0  0  0  0  0  0
   16.7839   38.0970   -9.3011 C   0  0  0  0  0  0
   17.8914   38.4474   -8.2893 C   0  0  0  0  0  0
   19.3108   38.0285   -8.7318 C   0  0  2  0  0  0
   20.3440   38.3467   -7.6387 C   0  0  0  0  0  0
   19.7479   38.5643  -10.1124 C   0  0  0  0  0  0
   19.8129   40.0968  -10.2086 C   0  0  0  0  0  0
   20.1110   40.5999  -11.6256 C   0  0  0  0  0  0
   20.4858   39.8262  -12.5007 O   0  0  0  0  0  0
   19.9630   41.9034  -11.8940 N   0  0  0  0  0  0
   19.5400   42.9564  -10.9748 C   0  0  1  0  0  0
   20.1964   44.2639  -11.4499 C   0  0  0  0  0  0
   18.0098   43.1256  -11.0344 C   0  0  0  0  0  0
   17.4115   43.0632  -12.1121 O   0  0  0  0  0  0
   17.3958   43.3609   -9.8620 N   0  0  0  0  0  0
   18.1029   45.8214  -10.4012 H   0  0  0  0  0  0
   14.5750   44.9889   -8.9332 H   0  0  0  0  0  0
   15.4638   43.5873  -10.6259 H   0  0  0  0  0  0
   16.5699   40.8207   -9.6887 H   0  0  0  0  0  0
   19.2879   36.9494   -8.8399 H   0  0  0  0  0  0
   19.8712   42.7425   -9.9571 H   0  0  0  0  0  0
   21.4213   42.1364   -4.0463 H   0  0  0  0  0  0
   21.6665   41.9385   -5.7819 H   0  0  0  0  0  0
   20.0621   41.7183   -5.0862 H   0  0  0  0  0  0
   21.6114   44.3659   -5.1466 H   0  0  0  0  0  0
   20.0335   44.1539   -4.4310 H   0  0  0  0  0  0
   19.0756   43.5489   -6.6482 H   0  0  0  0  0  0
   20.6545   43.6852   -7.3867 H   0  0  0  0  0  0
   20.7209   46.1366   -6.8007 H   0  0  0  0  0  0
   19.1384   45.9844   -6.0520 H   0  0  0  0  0  0
   19.3658   45.0719   -8.8406 H   0  0  0  0  0  0
   17.4022   47.7732  -11.6581 H   0  0  0  0  0  0
   18.8420   48.1628  -10.7316 H   0  0  0  0  0  0
   17.2653   48.7338  -10.1890 H   0  0  0  0  0  0
   15.6690   46.2287  -10.7123 H   0  0  0  0  0  0
   15.6485   47.0776   -9.1974 H   0  0  0  0  0  0
   15.6603   44.2473   -7.1465 H   0  0  0  0  0  0
   15.8139   42.3681   -7.8620 H   0  0  0  0  0  0
   14.2947   42.5617   -8.6772 H   0  0  0  0  0  0
   14.8639   39.8151  -11.2014 H   0  0  0  0  0  0
   15.0544   41.5227  -11.5214 H   0  0  0  0  0  0
   13.6596   40.9486  -10.6063 H   0  0  0  0  0  0
   15.6495   40.0850   -7.4831 H   0  0  0  0  0  0
   14.0595   40.0050   -8.1663 H   0  0  0  0  0  0
   14.6416   38.1238   -9.5654 H   0  0  0  0  0  0
   15.1472   37.7971   -7.9353 H   0  0  0  0  0  0
   16.9560   38.6101  -10.2465 H   0  0  0  0  0  0
   16.8356   37.0315   -9.5275 H   0  0  0  0  0  0
   17.8773   39.5148   -8.0701 H   0  0  0  0  0  0
   17.6604   37.9556   -7.3423 H   0  0  0  0  0  0
   21.3587   38.1228   -7.9690 H   0  0  0  0  0  0
   20.1546   37.7509   -6.7436 H   0  0  0  0  0  0
   20.3138   39.3977   -7.3513 H   0  0  0  0  0  0
   19.0775   38.1733  -10.8780 H   0  0  0  0  0  0
   20.7267   38.1509  -10.3637 H   0  0  0  0  0  0
   18.8639   40.5175   -9.8867 H   0  0  0  0  0  0
   20.5786   40.4807   -9.5353 H   0  0  0  0  0  0
   20.1645   42.1864  -12.8397 H   0  0  0  0  0  0
   20.1288   45.0435  -10.6929 H   0  0  0  0  0  0
   19.7404   44.6444  -12.3650 H   0  0  0  0  0  0
   21.2606   44.1174  -11.6417 H   0  0  0  0  0  0
   17.9579   43.3764   -9.0239 H   0  0  0  0  0  0
  1  2  1  0  0  0
  1 39  1  0  0  0
  1 40  1  0  0  0
  1 41  1  0  0  0
  2  3  1  0  0  0
  2 42  1  0  0  0
  2 43  1  0  0  0
  3  4  1  0  0  0
  3 44  1  0  0  0
  3 45  1  0  0  0
  4  5  1  0  0  0
  4 46  1  0  0  0
  4 47  1  0  0  0
  5  6  1  0  0  0
  5 48  1  0  0  0
  6  7  2  0  0  0
  6  8  1  0  0  0
  8 33  1  0  0  0
  8  9  1  0  0  0
  8 10  1  0  0  0
  9 49  1  0  0  0
  9 50  1  0  0  0
  9 51  1  0  0  0
 10 11  1  0  0  0
 10 52  1  0  0  0
 10 53  1  0  0  0
 11 34  1  0  0  0
 11 12  1  0  0  0
 11 13  1  0  0  0
 12 54  1  0  0  0
 13 35  1  0  0  0
 13 32  1  0  0  0
 13 14  1  0  0  0
 14 15  1  0  0  0
 14 55  1  0  0  0
 14 56  1  0  0  0
 15 36  1  0  0  0
 15 16  1  0  0  0
 15 17  1  0  0  0
 16 57  1  0  0  0
 16 58  1  0  0  0
 16 59  1  0  0  0
 17 18  1  0  0  0
 17 60  1  0  0  0
 17 61  1  0  0  0
 18 19  1  0  0  0
 18 62  1  0  0  0
 18 63  1  0  0  0
 19 20  1  0  0  0
 19 64  1  0  0  0
 19 65  1  0  0  0
 20 21  1  0  0  0
 20 66  1  0  0  0
 20 67  1  0  0  0
 21 37  1  0  0  0
 21 22  1  0  0  0
 21 23  1  0  0  0
 22 68  1  0  0  0
 22 69  1  0  0  0
 22 70  1  0  0  0
 23 24  1  0  0  0
 23 71  1  0  0  0
 23 72  1  0  0  0
 24 25  1  0  0  0
 24 73  1  0  0  0
 24 74  1  0  0  0
 25 26  2  0  0  0
 25 27  1  0  0  0
 27 28  1  0  0  0
 27 75  1  0  0  0
 28 38  1  0  0  0
 28 29  1  0  0  0
 28 30  1  0  0  0
 29 76  1  0  0  0
 29 77  1  0  0  0
 29 78  1  0  0  0
 30 31  2  0  0  0
 30 32  1  0  0  0
 32 79  1  0  0  0
M  END
> <s_m_source_file>
BACE_147.smi

> <i_m_source_file_index>
1

> <i_lp_mmshare_version>
42013

> <i_f3d_flags>
0

> <s_epik_input>
W0NIM11bQ0gyXVtDSDJdW0NIMl1bTkhdQyg9TylbQ0BIXShbQ0gzXSlbQ0gyXVtDQEhdKFtPSF0pW0NAQEhdMVtDSDJdW0NASF0oW0NIM10pW0NIMl1bQ0gyXVtDSDJdW0NIMl1bQ0BIXShbQ0gzXSlbQ0gyXVtDSDJdQyg9TylbTkhdW0NAQEhdKFtDSDNdKUMoPU8pW05IXTE=

> <s_epik_cmdline>
J2VwaWtfcHl0aG9uJywgJy1waCcsICc3LjAnLCAnLXRuJywgJzgnLCAnLW1hJywgJzIwMCcsICctaW1hZScsICc8aW5maWxlLm1hZT4nLCAnLW9tYWUnLCAnPG91dGZpbGUubWFlPic=

> <r_lp_tautomer_probability>
1

> <r_epik_Ionization_Penalty>
  0.0000

> <r_epik_Ionization_Penalty_Charging>
  0.0000

> <r_epik_Ionization_Penalty_Neutral>
  0.0000

> <r_epik_State_Penalty>
 -0.0000

> <r_epik_Charging_Adjusted_Penalty>
0

> <i_epik_Tot_Q>
0

> <i_epik_Tot_abs_Q>
0

> <s_lp_Force_Field>
OPLS_2005

> <r_lp_Energy>
16.1888

> <b_lp_Chiralities_Consistent>
1

> <s_lp_Variant>
BACE_147.smi:1-1

> <chiral flag>
1

> <version>
0

> <s_i_glide_gridfile>
second_dock_grid_2

> <i_i_glide_lignum>
300

> <i_i_glide_rotatable_bonds>
9

> <r_i_docking_score>
-3.59612

> <r_i_glide_ligand_efficiency>
-0.112379

> <r_i_glide_ligand_efficiency_sa>
-0.35678

> <r_i_glide_ligand_efficiency_ln>
-0.805268

> <r_glide_XP_GScore>
-3.59612

> <r_i_glide_gscore>
-3.59612

> <r_i_glide_evdw>
-33.1574

> <r_i_glide_ecoul>
-7.57142

> <r_i_glide_energy>
-40.7288

> <r_i_glide_einternal>
6.11193

> <r_i_glide_emodel>
-55.3715

> <r_glide_XP_HBond>
-1.00437

> <i_i_glide_confnum>
1

> <i_i_glide_posenum>
2

> <r_i_glide_eff_state_penalty>
-0

> <i_glide_XP_PoseRank>
1

$$$$
BACE_148.smi:1
                    3D
 Structure written by MMmdl.
 85 85  0  0  1  0            999 V2000
   21.5702   42.5446   -2.6538 C   0  0  0  0  0  0
   20.6025   41.5507   -3.3077 C   0  0  0  0  0  0
   21.1559   40.9117   -4.5928 C   0  0  0  0  0  0
   21.1354   41.8545   -5.8075 C   0  0  0  0  0  0
   21.8929   41.2752   -6.9091 N   0  0  0  0  0  0
   22.2705   41.9505   -8.0043 C   0  0  0  0  0  0
   21.9039   43.0992   -8.2505 O   0  0  0  0  0  0
   23.2448   41.2320   -8.9465 C   0  0  2  0  0  0
   24.6132   41.9229   -8.8398 C   0  0  0  0  0  0
   22.7981   41.2020  -10.4266 C   0  0  0  0  0  0
   21.6309   40.2539  -10.7983 C   0  0  2  0  0  0
   21.6597   40.1074  -12.2087 O   0  0  0  0  0  0
   20.2197   40.7616  -10.4114 C   0  0  2  0  0  0
   19.0846   39.7378  -10.6640 C   0  0  0  0  0  0
   18.5294   39.1067   -9.3638 C   0  0  2  0  0  0
   19.5592   38.1825   -8.6919 C   0  0  0  0  0  0
   17.2002   38.3458   -9.5735 C   0  0  0  0  0  0
   16.0398   39.1558  -10.1890 C   0  0  0  0  0  0
   15.7077   40.4661   -9.4552 C   0  0  0  0  0  0
   14.4562   41.1463  -10.0325 C   0  0  0  0  0  0
   14.0603   42.4457   -9.3046 C   0  0  0  0  0  0
   14.8834   43.6997   -9.6702 C   0  0  2  0  0  0
   14.7012   44.7607   -8.5717 C   0  0  0  0  0  0
   14.4951   44.2582  -11.0631 C   0  0  0  0  0  0
   15.4871   45.2789  -11.6606 C   0  0  0  0  0  0
   16.8522   44.6458  -11.9912 C   0  0  0  0  0  0
   16.8600   43.7501  -12.8398 O   0  0  0  0  0  0
   17.9854   45.0546  -11.3575 N   0  0  0  0  0  0
   17.9572   46.1061  -10.3268 C   0  0  0  0  0  0
   19.2387   44.2900  -11.5863 C   0  0  1  0  0  0
   20.5232   45.1205  -11.3586 C   0  0  0  0  0  0
   19.2928   43.0647  -10.6561 C   0  0  0  0  0  0
   18.7507   43.0807   -9.5508 O   0  0  0  0  0  0
   19.9664   42.0073  -11.1267 N   0  0  0  0  0  0
   23.3663   40.2035   -8.6030 H   0  0  0  0  0  0
   21.8168   39.2753  -10.3567 H   0  0  0  0  0  0
   20.2156   40.9857   -9.3469 H   0  0  0  0  0  0
   18.3215   39.9132   -8.6589 H   0  0  0  0  0  0
   15.9353   43.4141   -9.6758 H   0  0  0  0  0  0
   19.2602   43.9470  -12.6215 H   0  0  0  0  0  0
   21.1622   42.9244   -1.7164 H   0  0  0  0  0  0
   21.7601   43.4005   -3.3008 H   0  0  0  0  0  0
   22.5287   42.0727   -2.4403 H   0  0  0  0  0  0
   19.6600   42.0530   -3.5189 H   0  0  0  0  0  0
   20.3749   40.7615   -2.5893 H   0  0  0  0  0  0
   20.5624   40.0278   -4.8313 H   0  0  0  0  0  0
   22.1693   40.5530   -4.4034 H   0  0  0  0  0  0
   21.5723   42.8189   -5.5457 H   0  0  0  0  0  0
   20.1084   42.0402   -6.1242 H   0  0  0  0  0  0
   22.2355   40.3344   -6.7872 H   0  0  0  0  0  0
   25.4022   41.2882   -9.2458 H   0  0  0  0  0  0
   24.8598   42.1501   -7.8029 H   0  0  0  0  0  0
   24.6294   42.8653   -9.3885 H   0  0  0  0  0  0
   23.6737   40.8705  -10.9807 H   0  0  0  0  0  0
   22.6018   42.2144  -10.7827 H   0  0  0  0  0  0
   22.5669   40.1501  -12.5017 H   0  0  0  0  0  0
   18.2762   40.2498  -11.1836 H   0  0  0  0  0  0
   19.4085   38.9538  -11.3492 H   0  0  0  0  0  0
   19.1543   37.7513   -7.7758 H   0  0  0  0  0  0
   20.4657   38.7196   -8.4148 H   0  0  0  0  0  0
   19.8433   37.3591   -9.3472 H   0  0  0  0  0  0
   17.3815   37.4670  -10.1927 H   0  0  0  0  0  0
   16.8650   37.9596   -8.6082 H   0  0  0  0  0  0
   15.1543   38.5191  -10.1930 H   0  0  0  0  0  0
   16.2462   39.3718  -11.2365 H   0  0  0  0  0  0
   15.5517   40.2579   -8.3952 H   0  0  0  0  0  0
   16.5531   41.1528   -9.5169 H   0  0  0  0  0  0
   13.6256   40.4436   -9.9402 H   0  0  0  0  0  0
   14.5801   41.3174  -11.1023 H   0  0  0  0  0  0
   13.0061   42.6485   -9.4951 H   0  0  0  0  0  0
   14.1314   42.2607   -8.2311 H   0  0  0  0  0  0
   15.1802   45.7067   -8.8184 H   0  0  0  0  0  0
   15.1473   44.4196   -7.6401 H   0  0  0  0  0  0
   13.6461   44.9501   -8.3810 H   0  0  0  0  0  0
   14.3857   43.4382  -11.7731 H   0  0  0  0  0  0
   13.5055   44.7112  -11.0049 H   0  0  0  0  0  0
   15.5493   46.1577  -11.0261 H   0  0  0  0  0  0
   15.0787   45.6470  -12.6010 H   0  0  0  0  0  0
   18.9203   46.3469   -9.8850 H   0  0  0  0  0  0
   17.3286   45.7933   -9.4925 H   0  0  0  0  0  0
   17.5646   47.0400  -10.7346 H   0  0  0  0  0  0
   21.3907   44.6004  -11.7657 H   0  0  0  0  0  0
   20.7413   45.2858  -10.3017 H   0  0  0  0  0  0
   20.4669   46.0888  -11.8580 H   0  0  0  0  0  0
   20.3917   42.0658  -12.0393 H   0  0  0  0  0  0
  1  2  1  0  0  0
  1 41  1  0  0  0
  1 42  1  0  0  0
  1 43  1  0  0  0
  2  3  1  0  0  0
  2 44  1  0  0  0
  2 45  1  0  0  0
  3  4  1  0  0  0
  3 46  1  0  0  0
  3 47  1  0  0  0
  4  5  1  0  0  0
  4 48  1  0  0  0
  4 49  1  0  0  0
  5  6  1  0  0  0
  5 50  1  0  0  0
  6  7  2  0  0  0
  6  8  1  0  0  0
  8 35  1  0  0  0
  8  9  1  0  0  0
  8 10  1  0  0  0
  9 51  1  0  0  0
  9 52  1  0  0  0
  9 53  1  0  0  0
 10 11  1  0  0  0
 10 54  1  0  0  0
 10 55  1  0  0  0
 11 36  1  0  0  0
 11 12  1  0  0  0
 11 13  1  0  0  0
 12 56  1  0  0  0
 13 37  1  0  0  0
 13 34  1  0  0  0
 13 14  1  0  0  0
 14 15  1  0  0  0
 14 57  1  0  0  0
 14 58  1  0  0  0
 15 38  1  0  0  0
 15 16  1  0  0  0
 15 17  1  0  0  0
 16 59  1  0  0  0
 16 60  1  0  0  0
 16 61  1  0  0  0
 17 18  1  0  0  0
 17 62  1  0  0  0
 17 63  1  0  0  0
 18 19  1  0  0  0
 18 64  1  0  0  0
 18 65  1  0  0  0
 19 20  1  0  0  0
 19 66  1  0  0  0
 19 67  1  0  0  0
 20 21  1  0  0  0
 20 68  1  0  0  0
 20 69  1  0  0  0
 21 22  1  0  0  0
 21 70  1  0  0  0
 21 71  1  0  0  0
 22 39  1  0  0  0
 22 23  1  0  0  0
 22 24  1  0  0  0
 23 72  1  0  0  0
 23 73  1  0  0  0
 23 74  1  0  0  0
 24 25  1  0  0  0
 24 75  1  0  0  0
 24 76  1  0  0  0
 25 26  1  0  0  0
 25 77  1  0  0  0
 25 78  1  0  0  0
 26 27  2  0  0  0
 26 28  1  0  0  0
 28 29  1  0  0  0
 28 30  1  0  0  0
 29 79  1  0  0  0
 29 80  1  0  0  0
 29 81  1  0  0  0
 30 40  1  0  0  0
 30 31  1  0  0  0
 30 32  1  0  0  0
 31 82  1  0  0  0
 31 83  1  0  0  0
 31 84  1  0  0  0
 32 33  2  0  0  0
 32 34  1  0  0  0
 34 85  1  0  0  0
M  END
> <s_m_source_file>
BACE_148.smi

> <i_m_source_file_index>
1

> <i_lp_mmshare_version>
42013

> <i_f3d_flags>
0

> <s_epik_input>
W0NIM11bQ0gyXVtDSDJdW0NIMl1bTkhdQyg9TylbQ0BIXShbQ0gzXSlbQ0gyXVtDQEhdKFtPSF0pW0NAQEhdMVtDSDJdW0NASF0oW0NIM10pW0NIMl1bQ0gyXVtDSDJdW0NIMl1bQ0gyXVtDQEhdKFtDSDNdKVtDSDJdW0NIMl1DKD1PKU4oW0NIM10pW0NAQEhdKFtDSDNdKUMoPU8pW05IXTE=

> <s_epik_cmdline>
J2VwaWtfcHl0aG9uJywgJy1waCcsICc3LjAnLCAnLXRuJywgJzgnLCAnLW1hJywgJzIwMCcsICctaW1hZScsICc8aW5maWxlLm1hZT4nLCAnLW9tYWUnLCAnPG91dGZpbGUubWFlPic=

> <r_lp_tautomer_probability>
1

> <r_epik_Ionization_Penalty>
  0.0000

> <r_epik_Ionization_Penalty_Charging>
  0.0000

> <r_epik_Ionization_Penalty_Neutral>
  0.0000

> <r_epik_State_Penalty>
 -0.0000

> <r_epik_Charging_Adjusted_Penalty>
0

> <i_epik_Tot_Q>
0

> <i_epik_Tot_abs_Q>
0

> <s_lp_Force_Field>
OPLS_2005

> <r_lp_Energy>
35.6686

> <b_lp_Chiralities_Consistent>
1

> <s_lp_Variant>
BACE_148.smi:1-1

> <chiral flag>
1

> <version>
0

> <s_i_glide_gridfile>
second_dock_grid_2

> <i_i_glide_lignum>
301

> <i_i_glide_rotatable_bonds>
9

> <r_i_docking_score>
-4.06281

> <r_i_glide_ligand_efficiency>
-0.119494

> <r_i_glide_ligand_efficiency_sa>
-0.387116

> <r_i_glide_ligand_efficiency_ln>
-0.897589

> <r_glide_XP_GScore>
-4.06281

> <r_i_glide_gscore>
-4.06281

> <r_i_glide_evdw>
-33.9618

> <r_i_glide_ecoul>
-9.73944

> <r_i_glide_energy>
-43.7012

> <r_i_glide_einternal>
1.5618

> <r_i_glide_emodel>
-56.0097

> <r_glide_XP_HBond>
-1.82121

> <i_i_glide_confnum>
1

> <i_i_glide_posenum>
43

> <r_i_glide_eff_state_penalty>
-0

> <i_glide_XP_PoseRank>
1

$$$$
BACE_149.smi:1
                    3D
 Structure written by MMmdl.
 96 96  0  0  1  0            999 V2000
   12.5794   44.4746  -11.6288 C   0  0  0  0  0  0
   14.0640   44.1364  -11.4489 C   0  0  0  0  0  0
   14.3303   43.0839  -10.3607 C   0  0  0  0  0  0
   13.7548   41.6940  -10.6799 C   0  0  0  0  0  0
   14.0989   40.7360   -9.6399 N   0  0  0  0  0  0
   15.2596   40.0657   -9.5511 C   0  0  0  0  0  0
   16.0894   40.0668  -10.4627 O   0  0  0  0  0  0
   15.5778   39.3260   -8.2332 C   0  0  2  0  0  0
   14.5142   39.5285   -7.1417 C   0  0  0  0  0  0
   16.9616   39.7571   -7.6953 C   0  0  0  0  0  0
   18.0942   38.7547   -7.9863 C   0  0  2  0  0  0
   18.0601   37.7501   -6.9940 O   0  0  0  0  0  0
   19.5178   39.3717   -7.9935 C   0  0  2  0  0  0
   19.7757   40.2770   -6.7631 C   0  0  0  0  0  0
   21.1991   40.8429   -6.5661 C   0  0  2  0  0  0
   22.2461   39.7307   -6.3631 C   0  0  0  0  0  0
   21.1923   41.8301   -5.3704 C   0  0  0  0  0  0
   22.4258   42.7454   -5.2764 C   0  0  0  0  0  0
   22.3981   43.9136   -6.2769 C   0  0  0  0  0  0
   23.7639   44.5988   -6.4732 C   0  0  0  0  0  0
   24.8263   43.7569   -7.2175 C   0  0  0  0  0  0
   24.3840   43.1609   -8.5700 C   0  0  0  0  0  0
   24.0157   44.2391   -9.6033 C   0  0  0  0  0  0
   23.4496   43.7214  -10.9432 C   0  0  2  0  0  0
   23.2499   44.8838  -11.7986 N   0  0  0  0  0  0
   24.0600   45.2862  -12.8401 C   0  0  0  0  0  0
   25.0351   44.6811  -13.2823 O   0  0  0  0  0  0
   23.5763   46.4662  -13.2977 O   0  0  0  0  0  0
   24.0558   47.1465  -14.4645 C   0  0  0  0  0  0
   23.3072   48.4901  -14.4516 C   0  0  0  0  0  0
   25.5736   47.4340  -14.4136 C   0  0  0  0  0  0
   23.6590   46.3640  -15.7317 C   0  0  0  0  0  0
   22.1033   42.9947  -10.8125 C   0  0  0  0  0  0
   21.1639   43.5528  -10.2444 O   0  0  0  0  0  0
   22.0030   41.7657  -11.3457 N   0  0  0  0  0  0
   20.7949   40.9420  -11.2802 C   0  0  1  0  0  0
   20.7784   39.9960  -12.4898 C   0  0  0  0  0  0
   20.8166   40.0714  -10.0147 C   0  0  0  0  0  0
   21.7976   39.3713   -9.7639 O   0  0  0  0  0  0
   19.7205   40.1130   -9.2394 N   0  0  0  0  0  0
   15.5933   38.2590   -8.4626 H   0  0  0  0  0  0
   17.9235   38.2705   -8.9495 H   0  0  0  0  0  0
   20.2144   38.5322   -7.9705 H   0  0  0  0  0  0
   21.4632   41.3931   -7.4673 H   0  0  0  0  0  0
   24.1745   43.0448  -11.4006 H   0  0  0  0  0  0
   19.8976   41.5646  -11.3006 H   0  0  0  0  0  0
   12.4610   45.3373  -12.2855 H   0  0  0  0  0  0
   12.1033   44.6967  -10.6731 H   0  0  0  0  0  0
   12.0406   43.6432  -12.0845 H   0  0  0  0  0  0
   14.6039   45.0470  -11.1898 H   0  0  0  0  0  0
   14.4766   43.8007  -12.3996 H   0  0  0  0  0  0
   13.9222   43.4329   -9.4133 H   0  0  0  0  0  0
   15.4061   43.0018  -10.2098 H   0  0  0  0  0  0
   14.1083   41.3313  -11.6432 H   0  0  0  0  0  0
   12.6688   41.7502  -10.7336 H   0  0  0  0  0  0
   13.4330   40.6477   -8.8728 H   0  0  0  0  0  0
   14.7491   38.9506   -6.2487 H   0  0  0  0  0  0
   13.5320   39.2071   -7.4753 H   0  0  0  0  0  0
   14.4587   40.5730   -6.8375 H   0  0  0  0  0  0
   16.9085   39.9234   -6.6178 H   0  0  0  0  0  0
   17.2214   40.7334   -8.1068 H   0  0  0  0  0  0
   17.1700   37.4279   -6.8504 H   0  0  0  0  0  0
   19.0999   41.1273   -6.8399 H   0  0  0  0  0  0
   19.4879   39.7425   -5.8571 H   0  0  0  0  0  0
   23.2534   40.1404   -6.3071 H   0  0  0  0  0  0
   22.2536   39.0176   -7.1850 H   0  0  0  0  0  0
   22.0585   39.1698   -5.4476 H   0  0  0  0  0  0
   20.3021   42.4603   -5.4057 H   0  0  0  0  0  0
   21.1029   41.2577   -4.4465 H   0  0  0  0  0  0
   23.3266   42.1521   -5.3951 H   0  0  0  0  0  0
   22.4877   43.1592   -4.2692 H   0  0  0  0  0  0
   22.0067   43.5937   -7.2410 H   0  0  0  0  0  0
   21.6806   44.6527   -5.9171 H   0  0  0  0  0  0
   24.1608   44.8915   -5.4994 H   0  0  0  0  0  0
   23.6108   45.5348   -7.0110 H   0  0  0  0  0  0
   25.7115   44.3738   -7.3738 H   0  0  0  0  0  0
   25.1560   42.9505   -6.5683 H   0  0  0  0  0  0
   23.5555   42.4699   -8.4179 H   0  0  0  0  0  0
   25.1958   42.5523   -8.9714 H   0  0  0  0  0  0
   23.2849   44.9229   -9.1712 H   0  0  0  0  0  0
   24.9032   44.8422   -9.7982 H   0  0  0  0  0  0
   22.4698   45.4887  -11.5894 H   0  0  0  0  0  0
   23.5596   49.0949  -15.3235 H   0  0  0  0  0  0
   23.5542   49.0724  -13.5630 H   0  0  0  0  0  0
   22.2265   48.3441  -14.4562 H   0  0  0  0  0  0
   25.8694   48.1072  -15.2185 H   0  0  0  0  0  0
   26.1727   46.5301  -14.5232 H   0  0  0  0  0  0
   25.8535   47.9071  -13.4715 H   0  0  0  0  0  0
   24.0172   46.8630  -16.6319 H   0  0  0  0  0  0
   22.5748   46.2799  -15.8182 H   0  0  0  0  0  0
   24.0600   45.3522  -15.7313 H   0  0  0  0  0  0
   22.8144   41.3601  -11.7984 H   0  0  0  0  0  0
   19.9034   39.3488  -12.4410 H   0  0  0  0  0  0
   21.6603   39.3566  -12.5299 H   0  0  0  0  0  0
   20.7266   40.5510  -13.4254 H   0  0  0  0  0  0
   18.9611   40.7096   -9.5313 H   0  0  0  0  0  0
  1  2  1  0  0  0
  1 47  1  0  0  0
  1 48  1  0  0  0
  1 49  1  0  0  0
  2  3  1  0  0  0
  2 50  1  0  0  0
  2 51  1  0  0  0
  3  4  1  0  0  0
  3 52  1  0  0  0
  3 53  1  0  0  0
  4  5  1  0  0  0
  4 54  1  0  0  0
  4 55  1  0  0  0
  5  6  1  0  0  0
  5 56  1  0  0  0
  6  7  2  0  0  0
  6  8  1  0  0  0
  8 41  1  0  0  0
  8  9  1  0  0  0
  8 10  1  0  0  0
  9 57  1  0  0  0
  9 58  1  0  0  0
  9 59  1  0  0  0
 10 11  1  0  0  0
 10 60  1  0  0  0
 10 61  1  0  0  0
 11 42  1  0  0  0
 11 12  1  0  0  0
 11 13  1  0  0  0
 12 62  1  0  0  0
 13 43  1  0  0  0
 13 40  1  0  0  0
 13 14  1  0  0  0
 14 15  1  0  0  0
 14 63  1  0  0  0
 14 64  1  0  0  0
 15 44  1  0  0  0
 15 16  1  0  0  0
 15 17  1  0  0  0
 16 65  1  0  0  0
 16 66  1  0  0  0
 16 67  1  0  0  0
 17 18  1  0  0  0
 17 68  1  0  0  0
 17 69  1  0  0  0
 18 19  1  0  0  0
 18 70  1  0  0  0
 18 71  1  0  0  0
 19 20  1  0  0  0
 19 72  1  0  0  0
 19 73  1  0  0  0
 20 21  1  0  0  0
 20 74  1  0  0  0
 20 75  1  0  0  0
 21 22  1  0  0  0
 21 76  1  0  0  0
 21 77  1  0  0  0
 22 23  1  0  0  0
 22 78  1  0  0  0
 22 79  1  0  0  0
 23 24  1  0  0  0
 23 80  1  0  0  0
 23 81  1  0  0  0
 24 45  1  0  0  0
 24 25  1  0  0  0
 24 33  1  0  0  0
 25 26  1  0  0  0
 25 82  1  0  0  0
 26 27  2  0  0  0
 26 28  1  0  0  0
 28 29  1  0  0  0
 29 30  1  0  0  0
 29 31  1  0  0  0
 29 32  1  0  0  0
 30 83  1  0  0  0
 30 84  1  0  0  0
 30 85  1  0  0  0
 31 86  1  0  0  0
 31 87  1  0  0  0
 31 88  1  0  0  0
 32 89  1  0  0  0
 32 90  1  0  0  0
 32 91  1  0  0  0
 33 34  2  0  0  0
 33 35  1  0  0  0
 35 36  1  0  0  0
 35 92  1  0  0  0
 36 46  1  0  0  0
 36 37  1  0  0  0
 36 38  1  0  0  0
 37 93  1  0  0  0
 37 94  1  0  0  0
 37 95  1  0  0  0
 38 39  2  0  0  0
 38 40  1  0  0  0
 40 96  1  0  0  0
M  END
> <s_m_source_file>
BACE_149.smi

> <i_m_source_file_index>
1

> <i_lp_mmshare_version>
42013

> <i_f3d_flags>
0

> <s_epik_input>
W0NIM11bQ0gyXVtDSDJdW0NIMl1bTkhdQyg9TylbQ0BIXShbQ0gzXSlbQ0gyXVtDQEhdKFtPSF0pW0NAQEhdMVtDSDJdW0NASF0oW0NIM10pW0NIMl1bQ0gyXVtDSDJdW0NIMl1bQ0gyXVtDSDJdW0NIMl1bQ0BIXShbTkhdQyg9TylPQyhbQ0gzXSkoW0NIM10pW0NIM10pQyg9TylbTkhdW0NAQEhdKFtDSDNdKUMoPU8pW05IXTE=

> <s_epik_cmdline>
J2VwaWtfcHl0aG9uJywgJy1waCcsICc3LjAnLCAnLXRuJywgJzgnLCAnLW1hJywgJzIwMCcsICctaW1hZScsICc8aW5maWxlLm1hZT4nLCAnLW9tYWUnLCAnPG91dGZpbGUubWFlPic=

> <r_lp_tautomer_probability>
1

> <r_epik_Ionization_Penalty>
  0.0000

> <r_epik_Ionization_Penalty_Charging>
  0.0000

> <r_epik_Ionization_Penalty_Neutral>
  0.0000

> <r_epik_State_Penalty>
 -0.0000

> <r_epik_Charging_Adjusted_Penalty>
0

> <i_epik_Tot_Q>
0

> <i_epik_Tot_abs_Q>
0

> <s_epik_Chemistry_Notes>
This compound has an ester and may undergo hydrolysis at high or low pH.

> <s_lp_Force_Field>
OPLS_2005

> <r_lp_Energy>
23.1074

> <b_lp_Chiralities_Consistent>
1

> <s_lp_Variant>
BACE_149.smi:1-1

> <chiral flag>
1

> <version>
0

> <s_i_glide_gridfile>
second_dock_grid_2

> <i_i_glide_lignum>
302

> <i_i_glide_rotatable_bonds>
13

> <r_i_docking_score>
-4.18948

> <r_i_glide_ligand_efficiency>
-0.104737

> <r_i_glide_ligand_efficiency_sa>
-0.358195

> <r_i_glide_ligand_efficiency_ln>
-0.893493

> <r_glide_XP_GScore>
-4.18948

> <r_i_glide_gscore>
-4.18948

> <r_i_glide_evdw>
-38.49

> <r_i_glide_ecoul>
-9.03465

> <r_i_glide_energy>
-47.5247

> <r_i_glide_einternal>
12.1916

> <r_i_glide_emodel>
-60.4866

> <r_glide_XP_HBond>
-1.05201

> <i_i_glide_confnum>
1

> <i_i_glide_posenum>
37

> <r_i_glide_eff_state_penalty>
-0

> <i_glide_XP_PoseRank>
1

$$$$
BACE_150.smi:1
                    3D
 Structure written by MMmdl.
 92 93  0  0  1  0            999 V2000
   12.5651   44.1263   -8.2209 C   0  0  0  0  0  0
   12.9632   43.3333   -9.4718 C   0  0  0  0  0  0
   14.3719   42.7259   -9.3713 C   0  0  0  0  0  0
   14.7603   41.9135  -10.6197 C   0  0  0  0  0  0
   16.1899   41.6154  -10.6471 N   0  0  0  0  0  0
   17.1113   42.2281  -11.4125 C   0  0  0  0  0  0
   16.8369   43.1259  -12.2101 O   0  0  0  0  0  0
   18.5723   41.7587  -11.2704 C   0  0  2  0  0  0
   19.3941   42.1536  -12.5129 C   0  0  0  0  0  0
   18.7200   40.2478  -10.9316 C   0  0  0  0  0  0
   20.1686   39.6812  -10.8985 C   0  0  2  0  0  0
   20.0521   38.2696  -10.8345 O   0  0  0  0  0  0
   21.0174   40.1295   -9.7121 C   0  0  2  0  0  0
   20.2572   39.8122   -8.4055 C   0  0  0  0  0  0
   20.9984   40.2253   -7.1164 C   0  0  2  0  0  0
   22.4169   39.6632   -7.1437 C   0  0  0  0  0  0
   20.2965   39.7659   -5.8236 C   0  0  0  0  0  0
   21.0038   40.2661   -4.5477 C   0  0  0  0  0  0
   20.7336   41.7542   -4.2375 C   0  0  0  0  0  0
   21.6356   42.3518   -3.1365 C   0  0  0  0  0  0
   23.1436   42.4329   -3.4777 C   0  0  0  0  0  0
   23.4941   43.1129   -4.8197 C   0  0  0  0  0  0
   23.0593   44.5920   -4.9171 C   0  0  0  0  0  0
   23.3403   45.2415   -6.2962 C   0  0  2  0  0  0
   23.0820   46.6654   -6.2227 N   0  0  0  0  0  0
   22.8861   47.3909   -5.1052 C   0  0  0  0  0  0
   23.2571   47.0375   -3.9847 O   0  0  0  0  0  0
   22.2231   48.7259   -5.3071 C   0  0  0  0  0  0
   22.3135   49.7292   -4.3148 C   0  0  0  0  0  0
   21.6594   50.9595   -4.5312 C   0  0  0  0  0  0
   20.9382   51.2332   -5.6393 N   0  0  0  0  0  0
   20.8430   50.2701   -6.5807 C   0  0  0  0  0  0
   21.4580   49.0065   -6.4646 C   0  0  0  0  0  0
   22.4783   44.6984   -7.4438 C   0  0  0  0  0  0
   21.2717   44.5921   -7.2977 O   0  0  0  0  0  0
   23.1214   44.3719   -8.5753 N   0  0  0  0  0  0
   22.4348   43.7255   -9.7157 C   0  0  1  0  0  0
   23.1854   44.0666  -10.9998 C   0  0  0  0  0  0
   22.4383   42.1869   -9.5724 C   0  0  0  0  0  0
   23.4490   41.5842   -9.2502 O   0  0  0  0  0  0
   21.2834   41.5650   -9.8489 N   0  0  0  0  0  0
   18.9980   42.3313  -10.4454 H   0  0  0  0  0  0
   20.6896   39.9394  -11.8210 H   0  0  0  0  0  0
   21.9306   39.5367   -9.7640 H   0  0  0  0  0  0
   21.1087   41.3097   -7.1055 H   0  0  0  0  0  0
   24.4000   45.1486   -6.5342 H   0  0  0  0  0  0
   21.4227   44.1062   -9.8528 H   0  0  0  0  0  0
   11.5626   44.5411   -8.3288 H   0  0  0  0  0  0
   13.2491   44.9568   -8.0438 H   0  0  0  0  0  0
   12.5672   43.4934   -7.3330 H   0  0  0  0  0  0
   12.9075   43.9897  -10.3410 H   0  0  0  0  0  0
   12.2327   42.5405   -9.6372 H   0  0  0  0  0  0
   14.4256   42.0889   -8.4874 H   0  0  0  0  0  0
   15.0997   43.5244   -9.2200 H   0  0  0  0  0  0
   14.5271   42.4858  -11.5182 H   0  0  0  0  0  0
   14.1728   40.9960  -10.6823 H   0  0  0  0  0  0
   16.5070   40.8811  -10.0303 H   0  0  0  0  0  0
   20.4596   42.0003  -12.3388 H   0  0  0  0  0  0
   19.2604   43.2065  -12.7658 H   0  0  0  0  0  0
   19.1188   41.5635  -13.3879 H   0  0  0  0  0  0
   18.1430   39.6710  -11.6564 H   0  0  0  0  0  0
   18.2276   40.0788   -9.9757 H   0  0  0  0  0  0
   19.7134   38.0349   -9.9841 H   0  0  0  0  0  0
   19.2758   40.2857   -8.4322 H   0  0  0  0  0  0
   20.0629   38.7400   -8.3782 H   0  0  0  0  0  0
   22.9870   39.9525   -6.2617 H   0  0  0  0  0  0
   22.9799   40.0241   -8.0034 H   0  0  0  0  0  0
   22.4150   38.5735   -7.1874 H   0  0  0  0  0  0
   19.2553   40.0884   -5.8201 H   0  0  0  0  0  0
   20.2701   38.6763   -5.8096 H   0  0  0  0  0  0
   22.0736   40.0796   -4.6425 H   0  0  0  0  0  0
   20.6777   39.6692   -3.6960 H   0  0  0  0  0  0
   20.8259   42.3601   -5.1389 H   0  0  0  0  0  0
   19.6915   41.8615   -3.9363 H   0  0  0  0  0  0
   21.5085   41.7803   -2.2171 H   0  0  0  0  0  0
   21.2743   43.3523   -2.8991 H   0  0  0  0  0  0
   23.6600   42.9503   -2.6691 H   0  0  0  0  0  0
   23.5621   41.4264   -3.4802 H   0  0  0  0  0  0
   23.0613   42.5367   -5.6375 H   0  0  0  0  0  0
   24.5720   43.0529   -4.9704 H   0  0  0  0  0  0
   22.0004   44.6941   -4.6796 H   0  0  0  0  0  0
   23.5818   45.1598   -4.1472 H   0  0  0  0  0  0
   23.0530   47.1571   -7.1045 H   0  0  0  0  0  0
   22.8747   49.5734   -3.4046 H   0  0  0  0  0  0
   21.7164   51.7448   -3.7919 H   0  0  0  0  0  0
   20.2544   50.5117   -7.4535 H   0  0  0  0  0  0
   21.3306   48.2782   -7.2524 H   0  0  0  0  0  0
   24.1239   44.4925   -8.5977 H   0  0  0  0  0  0
   22.7154   43.6022  -11.8677 H   0  0  0  0  0  0
   24.2212   43.7265  -10.9625 H   0  0  0  0  0  0
   23.1987   45.1423  -11.1783 H   0  0  0  0  0  0
   20.5068   42.1471  -10.1284 H   0  0  0  0  0  0
  1  2  1  0  0  0
  1 48  1  0  0  0
  1 49  1  0  0  0
  1 50  1  0  0  0
  2  3  1  0  0  0
  2 51  1  0  0  0
  2 52  1  0  0  0
  3  4  1  0  0  0
  3 53  1  0  0  0
  3 54  1  0  0  0
  4  5  1  0  0  0
  4 55  1  0  0  0
  4 56  1  0  0  0
  5  6  1  0  0  0
  5 57  1  0  0  0
  6  7  2  0  0  0
  6  8  1  0  0  0
  8 42  1  0  0  0
  8  9  1  0  0  0
  8 10  1  0  0  0
  9 58  1  0  0  0
  9 59  1  0  0  0
  9 60  1  0  0  0
 10 11  1  0  0  0
 10 61  1  0  0  0
 10 62  1  0  0  0
 11 43  1  0  0  0
 11 12  1  0  0  0
 11 13  1  0  0  0
 12 63  1  0  0  0
 13 44  1  0  0  0
 13 41  1  0  0  0
 13 14  1  0  0  0
 14 15  1  0  0  0
 14 64  1  0  0  0
 14 65  1  0  0  0
 15 45  1  0  0  0
 15 16  1  0  0  0
 15 17  1  0  0  0
 16 66  1  0  0  0
 16 67  1  0  0  0
 16 68  1  0  0  0
 17 18  1  0  0  0
 17 69  1  0  0  0
 17 70  1  0  0  0
 18 19  1  0  0  0
 18 71  1  0  0  0
 18 72  1  0  0  0
 19 20  1  0  0  0
 19 73  1  0  0  0
 19 74  1  0  0  0
 20 21  1  0  0  0
 20 75  1  0  0  0
 20 76  1  0  0  0
 21 22  1  0  0  0
 21 77  1  0  0  0
 21 78  1  0  0  0
 22 23  1  0  0  0
 22 79  1  0  0  0
 22 80  1  0  0  0
 23 24  1  0  0  0
 23 81  1  0  0  0
 23 82  1  0  0  0
 24 46  1  0  0  0
 24 25  1  0  0  0
 24 34  1  0  0  0
 25 26  1  0  0  0
 25 83  1  0  0  0
 26 27  2  0  0  0
 26 28  1  0  0  0
 28 33  1  0  0  0
 28 29  2  0  0  0
 29 30  1  0  0  0
 29 84  1  0  0  0
 30 31  2  0  0  0
 30 85  1  0  0  0
 31 32  1  0  0  0
 32 33  2  0  0  0
 32 86  1  0  0  0
 33 87  1  0  0  0
 34 35  2  0  0  0
 34 36  1  0  0  0
 36 37  1  0  0  0
 36 88  1  0  0  0
 37 47  1  0  0  0
 37 38  1  0  0  0
 37 39  1  0  0  0
 38 89  1  0  0  0
 38 90  1  0  0  0
 38 91  1  0  0  0
 39 40  2  0  0  0
 39 41  1  0  0  0
 41 92  1  0  0  0
M  END
> <s_m_source_file>
BACE_150.smi

> <i_m_source_file_index>
1

> <i_lp_mmshare_version>
42013

> <i_f3d_flags>
0

> <s_epik_input>
W0NIM11bQ0gyXVtDSDJdW0NIMl1bTkhdQyg9TylbQ0BIXShbQ0gzXSlbQ0gyXVtDQEhdKFtPSF0pW0NAQEhdMVtDSDJdW0NASF0oW0NIM10pW0NIMl1bQ0gyXVtDSDJdW0NIMl1bQ0gyXVtDSDJdW0NIMl1bQ0BASF0oQyg9TylbTkhdW0NAQEhdKFtDSDNdKUMoPU8pW05IXTEpW05IXUMoPU8pYzJbY0hdW2NIXW5bY0hdW2NIXTI=

> <s_epik_cmdline>
J2VwaWtfcHl0aG9uJywgJy1waCcsICc3LjAnLCAnLXRuJywgJzgnLCAnLW1hJywgJzIwMCcsICctaW1hZScsICc8aW5maWxlLm1hZT4nLCAnLW9tYWUnLCAnPG91dGZpbGUubWFlPic=

> <r_lp_tautomer_probability>
1

> <r_epik_Ionization_Penalty>
  0.0001

> <r_epik_Ionization_Penalty_Charging>
  0.0000

> <r_epik_Ionization_Penalty_Neutral>
  0.0001

> <r_epik_State_Penalty>
 -0.0000

> <r_epik_Charging_Adjusted_Penalty>
0

> <i_epik_Tot_Q>
0

> <i_epik_Tot_abs_Q>
0

> <s_lp_Force_Field>
OPLS_2005

> <r_lp_Energy>
23.1488

> <b_lp_Chiralities_Consistent>
1

> <s_lp_Variant>
BACE_150.smi:1-1

> <chiral flag>
1

> <version>
0

> <s_i_glide_gridfile>
second_dock_grid_2

> <i_i_glide_lignum>
303

> <i_i_glide_rotatable_bonds>
12

> <r_i_docking_score>
-4.10049

> <r_i_glide_ligand_efficiency>
-0.100012

> <r_i_glide_ligand_efficiency_sa>
-0.344863

> <r_i_glide_ligand_efficiency_ln>
-0.869933

> <r_glide_XP_GScore>
-4.10049

> <r_i_glide_gscore>
-4.10049

> <r_i_glide_evdw>
-32.3385

> <r_i_glide_ecoul>
-11.2954

> <r_i_glide_energy>
-43.6338

> <r_i_glide_einternal>
5.18643

> <r_i_glide_emodel>
-66.2316

> <r_glide_XP_HBond>
-0.9975

> <i_i_glide_confnum>
1

> <i_i_glide_posenum>
6

> <r_i_glide_eff_state_penalty>
-0

> <i_glide_XP_PoseRank>
1

$$$$
BACE_151.smi:1
                    3D
 Structure written by MMmdl.
 81 81  0  0  1  0            999 V2000
   24.4579   50.3223   -0.4418 C   0  0  0  0  0  0
   23.9591   51.0045   -1.7256 C   0  0  0  0  0  0
   22.8995   50.1847   -2.4790 C   0  0  0  0  0  0
   22.5589   50.7717   -3.8547 C   0  0  0  0  0  0
   21.6602   49.9111   -4.6189 N   0  0  0  0  0  0
   21.9884   49.2281   -5.7309 C   0  0  0  0  0  0
   23.1277   49.2435   -6.2030 O   0  0  0  0  0  0
   20.8866   48.4080   -6.4306 C   0  0  2  0  0  0
   19.4986   49.0614   -6.2591 C   0  0  0  0  0  0
   20.9883   46.9125   -6.0158 C   0  0  0  0  0  0
   19.8388   45.9814   -6.4841 C   0  0  2  0  0  0
   18.7213   46.2162   -5.6491 O   0  0  0  0  0  0
   20.1102   44.4404   -6.4347 C   0  0  2  0  0  0
   21.2649   43.9814   -5.5113 C   0  0  0  0  0  0
   21.0483   42.5772   -4.8960 C   0  0  2  0  0  0
   20.5616   42.6787   -3.4399 C   0  0  0  0  0  0
   22.3009   41.6805   -5.0218 C   0  0  0  0  0  0
   22.2381   40.7813   -6.2705 C   0  0  0  0  0  0
   21.3236   39.5652   -6.0428 C   0  0  0  0  0  0
   21.0522   38.7242   -7.2984 C   0  0  0  0  0  0
   20.0396   39.3918   -8.2422 C   0  0  0  0  0  0
   19.7359   38.5688   -9.5026 C   0  0  0  0  0  0
   18.7688   39.2733  -10.4739 C   0  0  0  0  0  0
   19.3704   40.5175  -11.1581 C   0  0  0  0  0  0
   18.5866   42.0903  -10.5775 S   0  0  0  0  0  0
   17.4434   42.3770  -11.4594 O   0  0  0  0  0  0
   18.3898   42.0151   -9.1214 O   0  0  0  0  0  0
   19.8943   43.3484  -10.9132 C   0  0  0  0  0  0
   21.1065   43.2012   -9.9612 C   0  0  1  0  0  0
   22.4356   43.3260  -10.7266 C   0  0  0  0  0  0
   21.0356   44.1746   -8.7692 C   0  0  0  0  0  0
   21.7148   45.2019   -8.7586 O   0  0  0  0  0  0
   20.2282   43.8161   -7.7561 N   0  0  0  0  0  0
   21.1131   48.4506   -7.4952 H   0  0  0  0  0  0
   19.5366   46.2677   -7.4950 H   0  0  0  0  0  0
   19.2034   43.9737   -6.0465 H   0  0  0  0  0  0
   20.2383   42.0879   -5.4393 H   0  0  0  0  0  0
   21.1090   42.2009   -9.5351 H   0  0  0  0  0  0
   25.2108   50.9378    0.0512 H   0  0  0  0  0  0
   24.9238   49.3605   -0.6697 H   0  0  0  0  0  0
   23.6601   50.1492    0.2792 H   0  0  0  0  0  0
   23.5542   51.9860   -1.4764 H   0  0  0  0  0  0
   24.8155   51.1839   -2.3790 H   0  0  0  0  0  0
   23.2601   49.1617   -2.6051 H   0  0  0  0  0  0
   21.9920   50.1504   -1.8731 H   0  0  0  0  0  0
   22.0582   51.7313   -3.7230 H   0  0  0  0  0  0
   23.4804   50.9516   -4.4064 H   0  0  0  0  0  0
   20.7018   49.8553   -4.2913 H   0  0  0  0  0  0
   19.5314   50.1289   -6.4925 H   0  0  0  0  0  0
   19.1174   48.9426   -5.2461 H   0  0  0  0  0  0
   18.7728   48.6245   -6.9440 H   0  0  0  0  0  0
   21.9252   46.5338   -6.4313 H   0  0  0  0  0  0
   21.1123   46.8437   -4.9363 H   0  0  0  0  0  0
   17.9786   45.7792   -6.0410 H   0  0  0  0  0  0
   22.2047   44.0320   -6.0629 H   0  0  0  0  0  0
   21.3985   44.6755   -4.6873 H   0  0  0  0  0  0
   21.3259   43.1110   -2.7932 H   0  0  0  0  0  0
   20.3002   41.6964   -3.0459 H   0  0  0  0  0  0
   19.6714   43.3098   -3.3724 H   0  0  0  0  0  0
   23.2035   42.2931   -5.0414 H   0  0  0  0  0  0
   22.4108   41.0461   -4.1407 H   0  0  0  0  0  0
   21.9129   41.3717   -7.1251 H   0  0  0  0  0  0
   23.2363   40.4172   -6.5192 H   0  0  0  0  0  0
   21.8049   38.9500   -5.2856 H   0  0  0  0  0  0
   20.3701   39.8668   -5.6088 H   0  0  0  0  0  0
   21.9891   38.5220   -7.8210 H   0  0  0  0  0  0
   20.6566   37.7535   -6.9877 H   0  0  0  0  0  0
   19.1087   39.5785   -7.7030 H   0  0  0  0  0  0
   20.4204   40.3666   -8.5323 H   0  0  0  0  0  0
   20.6627   38.3291  -10.0236 H   0  0  0  0  0  0
   19.3012   37.6148   -9.2057 H   0  0  0  0  0  0
   18.4849   38.5554  -11.2418 H   0  0  0  0  0  0
   17.8394   39.5281   -9.9622 H   0  0  0  0  0  0
   20.4460   40.5716  -11.0004 H   0  0  0  0  0  0
   19.2168   40.4654  -12.2348 H   0  0  0  0  0  0
   20.1849   43.2362  -11.9564 H   0  0  0  0  0  0
   19.4341   44.3331  -10.8214 H   0  0  0  0  0  0
   23.2898   43.2659  -10.0501 H   0  0  0  0  0  0
   22.4999   44.2728  -11.2650 H   0  0  0  0  0  0
   22.5460   42.5212  -11.4558 H   0  0  0  0  0  0
   19.6626   42.9853   -7.9015 H   0  0  0  0  0  0
  1  2  1  0  0  0
  1 39  1  0  0  0
  1 40  1  0  0  0
  1 41  1  0  0  0
  2  3  1  0  0  0
  2 42  1  0  0  0
  2 43  1  0  0  0
  3  4  1  0  0  0
  3 44  1  0  0  0
  3 45  1  0  0  0
  4  5  1  0  0  0
  4 46  1  0  0  0
  4 47  1  0  0  0
  5  6  1  0  0  0
  5 48  1  0  0  0
  6  7  2  0  0  0
  6  8  1  0  0  0
  8 34  1  0  0  0
  8  9  1  0  0  0
  8 10  1  0  0  0
  9 49  1  0  0  0
  9 50  1  0  0  0
  9 51  1  0  0  0
 10 11  1  0  0  0
 10 52  1  0  0  0
 10 53  1  0  0  0
 11 35  1  0  0  0
 11 12  1  0  0  0
 11 13  1  0  0  0
 12 54  1  0  0  0
 13 36  1  0  0  0
 13 33  1  0  0  0
 13 14  1  0  0  0
 14 15  1  0  0  0
 14 55  1  0  0  0
 14 56  1  0  0  0
 15 37  1  0  0  0
 15 16  1  0  0  0
 15 17  1  0  0  0
 16 57  1  0  0  0
 16 58  1  0  0  0
 16 59  1  0  0  0
 17 18  1  0  0  0
 17 60  1  0  0  0
 17 61  1  0  0  0
 18 19  1  0  0  0
 18 62  1  0  0  0
 18 63  1  0  0  0
 19 20  1  0  0  0
 19 64  1  0  0  0
 19 65  1  0  0  0
 20 21  1  0  0  0
 20 66  1  0  0  0
 20 67  1  0  0  0
 21 22  1  0  0  0
 21 68  1  0  0  0
 21 69  1  0  0  0
 22 23  1  0  0  0
 22 70  1  0  0  0
 22 71  1  0  0  0
 23 24  1  0  0  0
 23 72  1  0  0  0
 23 73  1  0  0  0
 24 25  1  0  0  0
 24 74  1  0  0  0
 24 75  1  0  0  0
 25 26  2  0  0  0
 25 27  2  0  0  0
 25 28  1  0  0  0
 28 29  1  0  0  0
 28 76  1  0  0  0
 28 77  1  0  0  0
 29 38  1  0  0  0
 29 30  1  0  0  0
 29 31  1  0  0  0
 30 78  1  0  0  0
 30 79  1  0  0  0
 30 80  1  0  0  0
 31 32  2  0  0  0
 31 33  1  0  0  0
 33 81  1  0  0  0
M  END
> <s_m_source_file>
BACE_151.smi

> <i_m_source_file_index>
1

> <i_lp_mmshare_version>
42013

> <i_f3d_flags>
0

> <s_epik_input>
W0NIM11bQ0gyXVtDSDJdW0NIMl1bTkhdQyg9TylbQ0BIXShbQ0gzXSlbQ0gyXVtDQEhdKFtPSF0pW0NAQEhdKFtOSF1DKD1PKVtDQEBIXShbQ0gyXTEpW0NIM10pW0NIMl1bQ0BIXShbQ0gzXSlbQ0gyXVtDSDJdW0NIMl1bQ0gyXVtDSDJdW0NIMl1bQ0gyXVtDSDJdUzEoPU8pPU8=

> <s_epik_cmdline>
J2VwaWtfcHl0aG9uJywgJy1waCcsICc3LjAnLCAnLXRuJywgJzgnLCAnLW1hJywgJzIwMCcsICctaW1hZScsICc8aW5maWxlLm1hZT4nLCAnLW9tYWUnLCAnPG91dGZpbGUubWFlPic=

> <r_lp_tautomer_probability>
1

> <r_epik_Ionization_Penalty>
  0.0000

> <r_epik_Ionization_Penalty_Charging>
  0.0000

> <r_epik_Ionization_Penalty_Neutral>
  0.0000

> <r_epik_State_Penalty>
 -0.0000

> <r_epik_Charging_Adjusted_Penalty>
0

> <i_epik_Tot_Q>
0

> <i_epik_Tot_abs_Q>
0

> <s_lp_Force_Field>
OPLS_2005

> <r_lp_Energy>
18.351

> <b_lp_Chiralities_Consistent>
1

> <s_lp_Variant>
BACE_151.smi:1-1

> <chiral flag>
1

> <version>
0

> <s_i_glide_gridfile>
second_dock_grid_2

> <i_i_glide_lignum>
304

> <i_i_glide_rotatable_bonds>
9

> <r_i_docking_score>
-4.51848

> <r_i_glide_ligand_efficiency>
-0.136924

> <r_i_glide_ligand_efficiency_sa>
-0.439187

> <r_i_glide_ligand_efficiency_ln>
-1.00489

> <r_glide_XP_GScore>
-4.51848

> <r_i_glide_gscore>
-4.51848

> <r_i_glide_evdw>
-33.2832

> <r_i_glide_ecoul>
-6.14294

> <r_i_glide_energy>
-39.4262

> <r_i_glide_einternal>
12.5407

> <r_i_glide_emodel>
-47.1643

> <r_glide_XP_HBond>
-0.48

> <i_i_glide_confnum>
1

> <i_i_glide_posenum>
2

> <r_i_glide_eff_state_penalty>
-0

> <i_glide_XP_PoseRank>
1

$$$$
BACE_152.smi:1
                    3D
 Structure written by MMmdl.
 78 79  0  0  1  0            999 V2000
   24.5099   50.3169   -1.6505 C   0  0  0  0  0  0
   23.6109   50.0114   -2.8532 C   0  0  0  0  0  0
   23.8144   48.5869   -3.3932 C   0  0  0  0  0  0
   25.2073   48.3364   -3.9978 C   0  0  0  0  0  0
   25.3790   46.9658   -4.4711 N   0  0  0  0  0  0
   25.2500   46.5551   -5.7423 C   0  0  0  0  0  0
   24.9069   47.2994   -6.6614 O   0  0  0  0  0  0
   25.5665   45.0774   -6.0217 C   0  0  2  0  0  0
   26.5508   44.9711   -7.1993 C   0  0  0  0  0  0
   24.2864   44.2572   -6.3011 C   0  0  0  0  0  0
   22.9892   44.8567   -5.7078 C   0  0  2  0  0  0
   23.2599   45.4213   -4.4402 O   0  0  0  0  0  0
   21.8160   43.8457   -5.5870 C   0  0  2  0  0  0
   22.1448   42.6359   -4.6699 C   0  0  0  0  0  0
   20.9611   41.7027   -4.2939 C   0  0  2  0  0  0
   21.2021   41.0286   -2.9317 C   0  0  0  0  0  0
   20.5787   40.6555   -5.3710 C   0  0  0  0  0  0
   21.6451   39.5745   -5.6703 C   0  0  0  0  0  0
   21.3042   38.6541   -6.8601 C   0  0  0  0  0  0
   21.2639   39.4195   -8.1895 C   0  0  0  0  0  0
   21.2009   38.5602   -9.4600 C   0  0  0  0  0  0
   20.6408   39.3163  -10.6845 C   0  0  0  0  0  0
   21.4244   40.4806  -11.1019 N   0  0  0  0  0  0
   20.8060   41.6853  -10.7424 C   0  0  0  0  0  0
   21.1728   42.3466   -9.5540 C   0  0  0  0  0  0
   20.4159   43.4564   -9.1214 C   0  0  0  0  0  0
   19.3823   43.9189   -9.9647 C   0  0  0  0  0  0
   19.1382   43.2424  -11.1868 C   0  0  0  0  0  0
   19.8294   42.1413  -11.5556 N   0  0  0  0  0  0
   18.1791   43.6127  -12.1038 O   0  0  0  0  0  0
   17.4177   44.7799  -11.8319 C   0  0  0  0  0  0
   20.6981   44.1305   -7.8061 C   0  0  0  0  0  0
   20.2584   45.2546   -7.5627 O   0  0  0  0  0  0
   21.4073   43.4079   -6.9200 N   0  0  0  0  0  0
   26.0631   44.6560   -5.1461 H   0  0  0  0  0  0
   22.6616   45.6879   -6.3320 H   0  0  0  0  0  0
   20.9669   44.3701   -5.1441 H   0  0  0  0  0  0
   20.0875   42.3413   -4.1567 H   0  0  0  0  0  0
   24.3520   51.3353   -1.2966 H   0  0  0  0  0  0
   25.5642   50.2166   -1.9096 H   0  0  0  0  0  0
   24.3002   49.6406   -0.8212 H   0  0  0  0  0  0
   22.5703   50.1514   -2.5648 H   0  0  0  0  0  0
   23.8111   50.7362   -3.6432 H   0  0  0  0  0  0
   23.6636   47.8804   -2.5759 H   0  0  0  0  0  0
   23.0464   48.3594   -4.1337 H   0  0  0  0  0  0
   25.4156   49.0561   -4.7913 H   0  0  0  0  0  0
   25.9632   48.5080   -3.2314 H   0  0  0  0  0  0
   25.6597   46.2816   -3.7837 H   0  0  0  0  0  0
   27.4450   45.5716   -7.0269 H   0  0  0  0  0  0
   26.0981   45.3070   -8.1330 H   0  0  0  0  0  0
   26.8758   43.9403   -7.3430 H   0  0  0  0  0  0
   24.1741   44.1394   -7.3799 H   0  0  0  0  0  0
   24.4197   43.2462   -5.9143 H   0  0  0  0  0  0
   23.8794   44.8662   -3.9914 H   0  0  0  0  0  0
   22.9649   42.0551   -5.0878 H   0  0  0  0  0  0
   22.5433   43.0455   -3.7414 H   0  0  0  0  0  0
   22.1092   40.4239   -2.9375 H   0  0  0  0  0  0
   20.3687   40.3806   -2.6586 H   0  0  0  0  0  0
   21.3087   41.7704   -2.1395 H   0  0  0  0  0  0
   19.6632   40.1518   -5.0585 H   0  0  0  0  0  0
   20.3060   41.1801   -6.2820 H   0  0  0  0  0  0
   22.6117   40.0365   -5.8651 H   0  0  0  0  0  0
   21.7846   38.9544   -4.7848 H   0  0  0  0  0  0
   22.0604   37.8707   -6.9224 H   0  0  0  0  0  0
   20.3522   38.1507   -6.6881 H   0  0  0  0  0  0
   20.4034   40.0871   -8.1805 H   0  0  0  0  0  0
   22.1604   40.0329   -8.2475 H   0  0  0  0  0  0
   22.1883   38.1541   -9.6818 H   0  0  0  0  0  0
   20.5549   37.7015   -9.2748 H   0  0  0  0  0  0
   20.6024   38.6324  -11.5324 H   0  0  0  0  0  0
   19.6048   39.5996  -10.4897 H   0  0  0  0  0  0
   21.5700   40.4327  -12.1000 H   0  0  0  0  0  0
   22.0021   41.9858   -8.9690 H   0  0  0  0  0  0
   18.7972   44.7765   -9.6683 H   0  0  0  0  0  0
   16.7357   44.9661  -12.6614 H   0  0  0  0  0  0
   18.0575   45.6574  -11.7273 H   0  0  0  0  0  0
   16.8158   44.6617  -10.9302 H   0  0  0  0  0  0
   21.7036   42.4848   -7.2025 H   0  0  0  0  0  0
  1  2  1  0  0  0
  1 39  1  0  0  0
  1 40  1  0  0  0
  1 41  1  0  0  0
  2  3  1  0  0  0
  2 42  1  0  0  0
  2 43  1  0  0  0
  3  4  1  0  0  0
  3 44  1  0  0  0
  3 45  1  0  0  0
  4  5  1  0  0  0
  4 46  1  0  0  0
  4 47  1  0  0  0
  5  6  1  0  0  0
  5 48  1  0  0  0
  6  7  2  0  0  0
  6  8  1  0  0  0
  8 35  1  0  0  0
  8  9  1  0  0  0
  8 10  1  0  0  0
  9 49  1  0  0  0
  9 50  1  0  0  0
  9 51  1  0  0  0
 10 11  1  0  0  0
 10 52  1  0  0  0
 10 53  1  0  0  0
 11 36  1  0  0  0
 11 12  1  0  0  0
 11 13  1  0  0  0
 12 54  1  0  0  0
 13 37  1  0  0  0
 13 34  1  0  0  0
 13 14  1  0  0  0
 14 15  1  0  0  0
 14 55  1  0  0  0
 14 56  1  0  0  0
 15 38  1  0  0  0
 15 16  1  0  0  0
 15 17  1  0  0  0
 16 57  1  0  0  0
 16 58  1  0  0  0
 16 59  1  0  0  0
 17 18  1  0  0  0
 17 60  1  0  0  0
 17 61  1  0  0  0
 18 19  1  0  0  0
 18 62  1  0  0  0
 18 63  1  0  0  0
 19 20  1  0  0  0
 19 64  1  0  0  0
 19 65  1  0  0  0
 20 21  1  0  0  0
 20 66  1  0  0  0
 20 67  1  0  0  0
 21 22  1  0  0  0
 21 68  1  0  0  0
 21 69  1  0  0  0
 22 23  1  0  0  0
 22 70  1  0  0  0
 22 71  1  0  0  0
 23 24  1  0  0  0
 23 72  1  0  0  0
 24 29  1  0  0  0
 24 25  2  0  0  0
 25 26  1  0  0  0
 25 73  1  0  0  0
 26 27  2  0  0  0
 26 32  1  0  0  0
 27 28  1  0  0  0
 27 74  1  0  0  0
 28 29  2  0  0  0
 28 30  1  0  0  0
 30 31  1  0  0  0
 31 75  1  0  0  0
 31 76  1  0  0  0
 31 77  1  0  0  0
 32 33  2  0  0  0
 32 34  1  0  0  0
 34 78  1  0  0  0
M  END
> <s_m_source_file>
BACE_152.smi

> <i_m_source_file_index>
1

> <i_lp_mmshare_version>
42013

> <i_f3d_flags>
0

> <s_epik_input>
W0NIM11bQ0gyXVtDSDJdW0NIMl1bTkhdQyg9TylbQ0BIXShbQ0gzXSlbQ0gyXVtDQEhdKFtPSF0pW0NAQEhdKFtOSF1DKD1PKWMoW2NIXWMxMilbY0hdYyhuMilPW0NIM10pW0NIMl1bQ0BIXShbQ0gzXSlbQ0gyXVtDSDJdW0NIMl1bQ0gyXVtDSDJdW0NIMl1bTkhdMQ==

> <s_epik_cmdline>
J2VwaWtfcHl0aG9uJywgJy1waCcsICc3LjAnLCAnLXRuJywgJzgnLCAnLW1hJywgJzIwMCcsICctaW1hZScsICc8aW5maWxlLm1hZT4nLCAnLW9tYWUnLCAnPG91dGZpbGUubWFlPic=

> <r_lp_tautomer_probability>
1

> <r_epik_Ionization_Penalty>
  0.0000

> <r_epik_Ionization_Penalty_Charging>
  0.0000

> <r_epik_Ionization_Penalty_Neutral>
  0.0000

> <r_epik_State_Penalty>
 -0.0000

> <r_epik_Charging_Adjusted_Penalty>
0

> <i_epik_Tot_Q>
0

> <i_epik_Tot_abs_Q>
0

> <s_lp_Force_Field>
OPLS_2005

> <r_lp_Energy>
26.1602

> <b_lp_Chiralities_Consistent>
1

> <s_lp_Variant>
BACE_152.smi:1-1

> <chiral flag>
1

> <version>
0

> <s_i_glide_gridfile>
second_dock_grid_2

> <i_i_glide_lignum>
305

> <i_i_glide_rotatable_bonds>
10

> <r_i_docking_score>
-5.2102

> <r_i_glide_ligand_efficiency>
-0.153241

> <r_i_glide_ligand_efficiency_sa>
-0.496442

> <r_i_glide_ligand_efficiency_ln>
-1.15108

> <r_glide_XP_GScore>
-5.2102

> <r_i_glide_gscore>
-5.2102

> <r_i_glide_evdw>
-32.1793

> <r_i_glide_ecoul>
-8.97077

> <r_i_glide_energy>
-41.15

> <r_i_glide_einternal>
6.95043

> <r_i_glide_emodel>
-54.5093

> <r_glide_XP_HBond>
-0.96

> <i_i_glide_confnum>
1

> <i_i_glide_posenum>
20

> <r_i_glide_eff_state_penalty>
-0

> <i_glide_XP_PoseRank>
1

$$$$
BACE_153.smi:1
                    3D
 Structure written by MMmdl.
 75 76  0  0  1  0            999 V2000
   21.0463   44.1395    0.7198 C   0  0  0  0  0  0
   20.3333   43.0172   -0.0421 C   0  0  0  0  0  0
   20.8293   42.8816   -1.4839 C   0  0  0  0  0  0
   20.3379   41.6040   -2.1752 C   0  0  0  0  0  0
   20.5902   41.6370   -3.6096 N   0  0  0  0  0  0
   21.7797   41.5276   -4.2232 C   0  0  0  0  0  0
   22.8449   41.3785   -3.6306 O   0  0  0  0  0  0
   21.7830   41.5508   -5.7539 C   0  0  2  0  0  0
   20.6826   42.4890   -6.3011 C   0  0  0  0  0  0
   21.8115   40.0800   -6.2605 C   0  0  0  0  0  0
   21.6034   39.8160   -7.7675 C   0  0  2  0  0  0
   22.4254   40.7093   -8.4925 O   0  0  0  0  0  0
   20.1154   39.8491   -8.2146 C   0  0  2  0  0  0
   19.2877   38.6851   -7.6194 C   0  0  0  0  0  0
   17.8784   38.5881   -8.1797 C   0  0  0  0  0  0
   17.0121   39.6929   -8.0608 C   0  0  0  0  0  0
   15.7195   39.6600   -8.6340 C   0  0  0  0  0  0
   15.2746   38.4709   -9.2403 C   0  0  0  0  0  0
   16.1245   37.3525   -9.3358 C   0  0  0  0  0  0
   17.4336   37.4155   -8.8242 C   0  0  0  0  0  0
   14.8621   40.7324   -8.6549 O   0  0  0  0  0  0
   15.3670   42.0181   -8.3215 C   0  0  0  0  0  0
   14.4967   43.0643   -9.0237 C   0  0  0  0  0  0
   14.4856   42.9494  -10.5624 C   0  0  0  0  0  0
   15.7734   43.4102  -11.2769 C   0  0  0  0  0  0
   16.8176   42.2985  -11.5535 C   0  0  0  0  0  0
   17.9830   42.7798  -12.4401 C   0  0  0  0  0  0
   17.8518   43.7830  -13.1350 O   0  0  0  0  0  0
   19.1281   42.0808  -12.4935 N   0  0  0  0  0  0
   19.4615   40.7977  -11.8782 C   0  0  1  0  0  0
   20.6733   40.2309  -12.6415 C   0  0  0  0  0  0
   19.8701   40.9817  -10.4099 C   0  0  0  0  0  0
   20.0738   42.1066   -9.9525 O   0  0  0  0  0  0
   19.9698   39.8658   -9.6711 N   0  0  0  0  0  0
   22.7308   42.0050   -6.0470 H   0  0  0  0  0  0
   21.9859   38.8180   -7.9874 H   0  0  0  0  0  0
   19.6460   40.7584   -7.8553 H   0  0  0  0  0  0
   18.6135   40.1136  -11.9508 H   0  0  0  0  0  0
   20.7079   44.1851    1.7546 H   0  0  0  0  0  0
   20.8597   45.1088    0.2585 H   0  0  0  0  0  0
   22.1241   43.9789    0.7349 H   0  0  0  0  0  0
   20.4548   42.0852    0.5026 H   0  0  0  0  0  0
   19.2598   43.1990   -0.0677 H   0  0  0  0  0  0
   20.4697   43.7395   -2.0470 H   0  0  0  0  0  0
   21.9179   42.9223   -1.5155 H   0  0  0  0  0  0
   20.8008   40.7204   -1.7355 H   0  0  0  0  0  0
   19.2617   41.4943   -2.0344 H   0  0  0  0  0  0
   19.7752   41.7358   -4.2033 H   0  0  0  0  0  0
   20.7390   43.4703   -5.8283 H   0  0  0  0  0  0
   19.6775   42.1045   -6.1266 H   0  0  0  0  0  0
   20.8063   42.6590   -7.3701 H   0  0  0  0  0  0
   22.7957   39.6848   -6.0047 H   0  0  0  0  0  0
   21.1195   39.4678   -5.6834 H   0  0  0  0  0  0
   22.1963   40.6480   -9.4080 H   0  0  0  0  0  0
   19.8110   37.7485   -7.8035 H   0  0  0  0  0  0
   19.2002   38.7830   -6.5374 H   0  0  0  0  0  0
   17.3636   40.5676   -7.5359 H   0  0  0  0  0  0
   14.2723   38.4270   -9.6406 H   0  0  0  0  0  0
   15.7743   36.4505   -9.8141 H   0  0  0  0  0  0
   18.0815   36.5561   -8.9095 H   0  0  0  0  0  0
   15.3254   42.1467   -7.2404 H   0  0  0  0  0  0
   16.4015   42.1695   -8.6224 H   0  0  0  0  0  0
   13.4750   42.9558   -8.6588 H   0  0  0  0  0  0
   14.8178   44.0629   -8.7272 H   0  0  0  0  0  0
   14.2138   41.9394  -10.8716 H   0  0  0  0  0  0
   13.6721   43.5827  -10.9167 H   0  0  0  0  0  0
   15.4691   43.8525  -12.2259 H   0  0  0  0  0  0
   16.2370   44.2240  -10.7177 H   0  0  0  0  0  0
   17.2188   41.9300  -10.6138 H   0  0  0  0  0  0
   16.3448   41.4451  -12.0392 H   0  0  0  0  0  0
   19.8722   42.5066  -13.0224 H   0  0  0  0  0  0
   20.9450   39.2376  -12.2825 H   0  0  0  0  0  0
   21.5537   40.8693  -12.5447 H   0  0  0  0  0  0
   20.4567   40.1398  -13.7049 H   0  0  0  0  0  0
   19.7838   38.9810  -10.1204 H   0  0  0  0  0  0
  1  2  1  0  0  0
  1 39  1  0  0  0
  1 40  1  0  0  0
  1 41  1  0  0  0
  2  3  1  0  0  0
  2 42  1  0  0  0
  2 43  1  0  0  0
  3  4  1  0  0  0
  3 44  1  0  0  0
  3 45  1  0  0  0
  4  5  1  0  0  0
  4 46  1  0  0  0
  4 47  1  0  0  0
  5  6  1  0  0  0
  5 48  1  0  0  0
  6  7  2  0  0  0
  6  8  1  0  0  0
  8 35  1  0  0  0
  8  9  1  0  0  0
  8 10  1  0  0  0
  9 49  1  0  0  0
  9 50  1  0  0  0
  9 51  1  0  0  0
 10 11  1  0  0  0
 10 52  1  0  0  0
 10 53  1  0  0  0
 11 36  1  0  0  0
 11 12  1  0  0  0
 11 13  1  0  0  0
 12 54  1  0  0  0
 13 37  1  0  0  0
 13 34  1  0  0  0
 13 14  1  0  0  0
 14 15  1  0  0  0
 14 55  1  0  0  0
 14 56  1  0  0  0
 15 20  1  0  0  0
 15 16  2  0  0  0
 16 17  1  0  0  0
 16 57  1  0  0  0
 17 18  2  0  0  0
 17 21  1  0  0  0
 18 19  1  0  0  0
 18 58  1  0  0  0
 19 20  2  0  0  0
 19 59  1  0  0  0
 20 60  1  0  0  0
 21 22  1  0  0  0
 22 23  1  0  0  0
 22 61  1  0  0  0
 22 62  1  0  0  0
 23 24  1  0  0  0
 23 63  1  0  0  0
 23 64  1  0  0  0
 24 25  1  0  0  0
 24 65  1  0  0  0
 24 66  1  0  0  0
 25 26  1  0  0  0
 25 67  1  0  0  0
 25 68  1  0  0  0
 26 27  1  0  0  0
 26 69  1  0  0  0
 26 70  1  0  0  0
 27 28  2  0  0  0
 27 29  1  0  0  0
 29 30  1  0  0  0
 29 71  1  0  0  0
 30 38  1  0  0  0
 30 31  1  0  0  0
 30 32  1  0  0  0
 31 72  1  0  0  0
 31 73  1  0  0  0
 31 74  1  0  0  0
 32 33  2  0  0  0
 32 34  1  0  0  0
 34 75  1  0  0  0
M  END
> <s_m_source_file>
BACE_153.smi

> <i_m_source_file_index>
1

> <i_lp_mmshare_version>
42013

> <i_f3d_flags>
0

> <s_epik_input>
W0NIM11bQ0gyXVtDSDJdW0NIMl1bTkhdQyg9TylbQ0BIXShbQ0gzXSlbQ0gyXVtDQEhdKFtPSF0pW0NASF0oW0NIMl0xKVtOSF1DKD1PKVtDQEhdKFtDSDNdKVtOSF1DKD1PKVtDSDJdW0NIMl1bQ0gyXVtDSDJdW0NIMl1PYyhbY0hdYzEyKVtjSF1bY0hdW2NIXTI=

> <s_epik_cmdline>
J2VwaWtfcHl0aG9uJywgJy1waCcsICc3LjAnLCAnLXRuJywgJzgnLCAnLW1hJywgJzIwMCcsICctaW1hZScsICc8aW5maWxlLm1hZT4nLCAnLW9tYWUnLCAnPG91dGZpbGUubWFlPic=

> <r_lp_tautomer_probability>
1

> <r_epik_Ionization_Penalty>
  0.0000

> <r_epik_Ionization_Penalty_Charging>
  0.0000

> <r_epik_Ionization_Penalty_Neutral>
  0.0000

> <r_epik_State_Penalty>
 -0.0000

> <r_epik_Charging_Adjusted_Penalty>
0

> <i_epik_Tot_Q>
0

> <i_epik_Tot_abs_Q>
0

> <s_lp_Force_Field>
OPLS_2005

> <r_lp_Energy>
22.772

> <b_lp_Chiralities_Consistent>
1

> <s_lp_Variant>
BACE_153.smi:1-1

> <chiral flag>
1

> <version>
0

> <s_i_glide_gridfile>
second_dock_grid_2

> <i_i_glide_lignum>
306

> <i_i_glide_rotatable_bonds>
9

> <r_i_docking_score>
-5.79241

> <r_i_glide_ligand_efficiency>
-0.170365

> <r_i_glide_ligand_efficiency_sa>
-0.551917

> <r_i_glide_ligand_efficiency_ln>
-1.27971

> <r_glide_XP_GScore>
-5.79241

> <r_i_glide_gscore>
-5.79241

> <r_i_glide_evdw>
-48.923

> <r_i_glide_ecoul>
-3.62427

> <r_i_glide_energy>
-52.5472

> <r_i_glide_einternal>
10.8531

> <r_i_glide_emodel>
-68.7562

> <r_glide_XP_HBond>
-1.73639

> <i_i_glide_confnum>
1

> <i_i_glide_posenum>
52

> <r_i_glide_eff_state_penalty>
-0

> <i_glide_XP_PoseRank>
1

$$$$
BACE_154.smi:1
                    3D
 Structure written by MMmdl.
 79 81  0  0  1  0            999 V2000
   17.0425   36.5151   -9.0852 C   0  0  0  0  0  0
   16.5246   37.9222   -9.4006 C   0  0  0  0  0  0
   15.0139   38.0606   -9.1478 C   0  0  0  0  0  0
   14.4464   39.4388   -9.5321 C   0  0  0  0  0  0
   15.1685   40.5315   -8.8908 N   0  0  0  0  0  0
   15.7218   41.5727   -9.5310 C   0  0  0  0  0  0
   15.5816   41.7775  -10.7372 O   0  0  0  0  0  0
   16.5805   42.5190   -8.6801 C   0  0  2  0  0  0
   16.0419   43.9567   -8.7767 C   0  0  0  0  0  0
   18.0747   42.4618   -9.0789 C   0  0  0  0  0  0
   18.4253   43.0960  -10.4472 C   0  0  2  0  0  0
   17.8267   42.3217  -11.4706 O   0  0  0  0  0  0
   19.9554   43.2324  -10.6649 C   0  0  2  0  0  0
   20.6655   41.9771  -11.2392 C   0  0  0  0  0  0
   20.4947   40.6938  -10.4383 C   0  0  0  0  0  0
   21.0620   40.5726   -9.1540 C   0  0  0  0  0  0
   20.8382   39.4188   -8.3774 C   0  0  0  0  0  0
   21.3548   39.3710   -6.9535 C   0  0  0  0  0  0
   20.3304   39.9810   -5.9811 C   0  0  0  0  0  0
   20.8828   40.3379   -4.5885 C   0  0  0  0  0  0
   21.3670   41.7951   -4.4531 C   0  0  0  0  0  0
   22.8032   42.0392   -4.9416 C   0  0  0  0  0  0
   23.1777   43.4426   -4.8377 N   0  0  0  0  0  0
   22.8844   44.3789   -5.8406 C   0  0  0  0  0  0
   22.2814   44.0337   -7.0745 C   0  0  0  0  0  0
   22.0702   45.0441   -8.0413 C   0  0  0  0  0  0
   22.4605   46.3620   -7.7225 C   0  0  0  0  0  0
   23.0351   46.6199   -6.4636 C   0  0  0  0  0  0
   23.2439   45.6456   -5.5449 N   0  0  0  0  0  0
   23.4071   47.9136   -6.1603 O   0  0  0  0  0  0
   24.0156   48.1631   -4.8979 C   0  0  0  0  0  0
   21.5118   44.7318   -9.4014 C   0  0  0  0  0  0
   21.8421   45.4010  -10.3806 O   0  0  0  0  0  0
   20.6201   43.7276   -9.4548 N   0  0  0  0  0  0
   20.0869   38.3515   -8.9105 C   0  0  0  0  0  0
   19.5502   38.4504  -10.2090 C   0  0  0  0  0  0
   19.7470   39.6209  -10.9675 C   0  0  0  0  0  0
   16.4922   42.2139   -7.6361 H   0  0  0  0  0  0
   17.9958   44.0967  -10.5024 H   0  0  0  0  0  0
   20.0684   43.9916  -11.4407 H   0  0  0  0  0  0
   18.1147   36.4456   -9.2692 H   0  0  0  0  0  0
   16.5472   35.7662   -9.7036 H   0  0  0  0  0  0
   16.8680   36.2565   -8.0406 H   0  0  0  0  0  0
   17.0650   38.6455   -8.7893 H   0  0  0  0  0  0
   16.7539   38.1625  -10.4396 H   0  0  0  0  0  0
   14.4798   37.2780   -9.6883 H   0  0  0  0  0  0
   14.8119   37.8869   -8.0903 H   0  0  0  0  0  0
   14.4653   39.5633  -10.6160 H   0  0  0  0  0  0
   13.3991   39.5026   -9.2362 H   0  0  0  0  0  0
   15.2792   40.4784   -7.8884 H   0  0  0  0  0  0
   14.9859   44.0048   -8.5077 H   0  0  0  0  0  0
   16.1482   44.3595   -9.7848 H   0  0  0  0  0  0
   16.5804   44.6197   -8.0990 H   0  0  0  0  0  0
   18.6672   42.9470   -8.3018 H   0  0  0  0  0  0
   18.3927   41.4184   -9.0762 H   0  0  0  0  0  0
   18.1272   41.4299  -11.3882 H   0  0  0  0  0  0
   20.3019   41.8035  -12.2528 H   0  0  0  0  0  0
   21.7332   42.1745  -11.3435 H   0  0  0  0  0  0
   21.6433   41.3828   -8.7441 H   0  0  0  0  0  0
   21.5763   38.3410   -6.6711 H   0  0  0  0  0  0
   22.3023   39.9040   -6.9157 H   0  0  0  0  0  0
   19.8860   40.8745   -6.4223 H   0  0  0  0  0  0
   19.5067   39.2744   -5.8715 H   0  0  0  0  0  0
   20.0677   40.2057   -3.8760 H   0  0  0  0  0  0
   21.6565   39.6341   -4.2792 H   0  0  0  0  0  0
   20.6730   42.4645   -4.9630 H   0  0  0  0  0  0
   21.3203   42.0747   -3.3999 H   0  0  0  0  0  0
   23.4951   41.4626   -4.3275 H   0  0  0  0  0  0
   22.9521   41.6912   -5.9600 H   0  0  0  0  0  0
   23.6096   43.7617   -3.9825 H   0  0  0  0  0  0
   22.0027   43.0156   -7.2923 H   0  0  0  0  0  0
   22.3282   47.1680   -8.4300 H   0  0  0  0  0  0
   24.2457   49.2250   -4.8123 H   0  0  0  0  0  0
   24.9512   47.6124   -4.7905 H   0  0  0  0  0  0
   23.3498   47.9018   -4.0741 H   0  0  0  0  0  0
   20.4020   43.2501   -8.5924 H   0  0  0  0  0  0
   19.9082   37.4638   -8.3214 H   0  0  0  0  0  0
   18.9707   37.6355  -10.6174 H   0  0  0  0  0  0
   19.3129   39.6963  -11.9530 H   0  0  0  0  0  0
  1  2  1  0  0  0
  1 41  1  0  0  0
  1 42  1  0  0  0
  1 43  1  0  0  0
  2  3  1  0  0  0
  2 44  1  0  0  0
  2 45  1  0  0  0
  3  4  1  0  0  0
  3 46  1  0  0  0
  3 47  1  0  0  0
  4  5  1  0  0  0
  4 48  1  0  0  0
  4 49  1  0  0  0
  5  6  1  0  0  0
  5 50  1  0  0  0
  6  7  2  0  0  0
  6  8  1  0  0  0
  8 38  1  0  0  0
  8  9  1  0  0  0
  8 10  1  0  0  0
  9 51  1  0  0  0
  9 52  1  0  0  0
  9 53  1  0  0  0
 10 11  1  0  0  0
 10 54  1  0  0  0
 10 55  1  0  0  0
 11 39  1  0  0  0
 11 12  1  0  0  0
 11 13  1  0  0  0
 12 56  1  0  0  0
 13 40  1  0  0  0
 13 34  1  0  0  0
 13 14  1  0  0  0
 14 15  1  0  0  0
 14 57  1  0  0  0
 14 58  1  0  0  0
 15 37  1  0  0  0
 15 16  2  0  0  0
 16 17  1  0  0  0
 16 59  1  0  0  0
 17 18  1  0  0  0
 17 35  2  0  0  0
 18 19  1  0  0  0
 18 60  1  0  0  0
 18 61  1  0  0  0
 19 20  1  0  0  0
 19 62  1  0  0  0
 19 63  1  0  0  0
 20 21  1  0  0  0
 20 64  1  0  0  0
 20 65  1  0  0  0
 21 22  1  0  0  0
 21 66  1  0  0  0
 21 67  1  0  0  0
 22 23  1  0  0  0
 22 68  1  0  0  0
 22 69  1  0  0  0
 23 24  1  0  0  0
 23 70  1  0  0  0
 24 29  1  0  0  0
 24 25  2  0  0  0
 25 26  1  0  0  0
 25 71  1  0  0  0
 26 27  2  0  0  0
 26 32  1  0  0  0
 27 28  1  0  0  0
 27 72  1  0  0  0
 28 29  2  0  0  0
 28 30  1  0  0  0
 30 31  1  0  0  0
 31 73  1  0  0  0
 31 74  1  0  0  0
 31 75  1  0  0  0
 32 33  2  0  0  0
 32 34  1  0  0  0
 34 76  1  0  0  0
 35 36  1  0  0  0
 35 77  1  0  0  0
 36 37  2  0  0  0
 36 78  1  0  0  0
 37 79  1  0  0  0
M  END
> <s_m_source_file>
BACE_154.smi

> <i_m_source_file_index>
1

> <i_lp_mmshare_version>
42013

> <i_f3d_flags>
0

> <s_epik_input>
W0NIM11bQ0gyXVtDSDJdW0NIMl1bTkhdQyg9TylbQ0BIXShbQ0gzXSlbQ0gyXVtDQEhdKFtPSF0pW0NASF0oW0NIMl0xKVtOSF1DKD1PKWMoW2NIXWMobjIpT1tDSDNdKVtjSF1jMltOSF1bQ0gyXVtDSDJdW0NIMl1bQ0gyXVtDSDJdYyhbY0hdYzEzKVtjSF1bY0hdW2NIXTM=

> <s_epik_cmdline>
J2VwaWtfcHl0aG9uJywgJy1waCcsICc3LjAnLCAnLXRuJywgJzgnLCAnLW1hJywgJzIwMCcsICctaW1hZScsICc8aW5maWxlLm1hZT4nLCAnLW9tYWUnLCAnPG91dGZpbGUubWFlPic=

> <r_lp_tautomer_probability>
1

> <r_epik_Ionization_Penalty>
  0.0000

> <r_epik_Ionization_Penalty_Charging>
  0.0000

> <r_epik_Ionization_Penalty_Neutral>
  0.0000

> <r_epik_State_Penalty>
 -0.0000

> <r_epik_Charging_Adjusted_Penalty>
0

> <i_epik_Tot_Q>
0

> <i_epik_Tot_abs_Q>
0

> <s_lp_Force_Field>
OPLS_2005

> <r_lp_Energy>
22.147

> <b_lp_Chiralities_Consistent>
1

> <s_lp_Variant>
BACE_154.smi:1-1

> <chiral flag>
1

> <version>
0

> <s_i_glide_gridfile>
second_dock_grid_2

> <i_i_glide_lignum>
307

> <i_i_glide_rotatable_bonds>
10

> <r_i_docking_score>
-4.45229

> <r_i_glide_ligand_efficiency>
-0.120332

> <r_i_glide_ligand_efficiency_sa>
-0.400973

> <r_i_glide_ligand_efficiency_ln>
-0.965597

> <r_glide_XP_GScore>
-4.45229

> <r_i_glide_gscore>
-4.45229

> <r_i_glide_evdw>
-38.6047

> <r_i_glide_ecoul>
-7.57896

> <r_i_glide_energy>
-46.1837

> <r_i_glide_einternal>
4.41638

> <r_i_glide_emodel>
-62.5257

> <r_glide_XP_HBond>
-1.37787

> <i_i_glide_confnum>
1

> <i_i_glide_posenum>
25

> <r_i_glide_eff_state_penalty>
-0

> <i_glide_XP_PoseRank>
1

$$$$
BACE_155.smi:1
                    3D
 Structure written by MMmdl.
 75 77  0  0  1  0            999 V2000
   30.6510   42.6494  -11.5211 C   0  0  0  0  0  0
   29.4487   42.0279  -10.8033 C   0  0  0  0  0  0
   28.1113   42.4511  -11.4246 C   0  0  0  0  0  0
   26.8951   41.8770  -10.6785 C   0  0  0  0  0  0
   25.6597   42.3012  -11.3157 N   0  0  0  0  0  0
   24.9523   43.3990  -11.0153 C   0  0  0  0  0  0
   25.2584   44.1608  -10.0989 O   0  0  0  0  0  0
   23.7255   43.6884  -11.8972 C   0  0  2  0  0  0
   23.6830   45.1882  -12.2575 C   0  0  0  0  0  0
   22.4237   43.2190  -11.2022 C   0  0  0  0  0  0
   22.1584   41.6939  -11.2993 C   0  0  2  0  0  0
   21.6487   41.3545  -12.5774 O   0  0  0  0  0  0
   21.2077   41.1238  -10.2257 C   0  0  2  0  0  0
   20.9777   39.5960  -10.3684 C   0  0  0  0  0  0
   19.9448   39.0595   -9.3948 C   0  0  0  0  0  0
   20.2641   38.9908   -8.0234 C   0  0  0  0  0  0
   19.3017   38.5503   -7.0989 C   0  0  0  0  0  0
   18.0271   38.1638   -7.5487 C   0  0  0  0  0  0
   17.6917   38.2297   -8.9168 C   0  0  0  0  0  0
   16.2992   37.8230   -9.3814 C   0  0  0  0  0  0
   15.1408   38.4802   -8.6006 C   0  0  0  0  0  0
   15.1370   40.0150   -8.6247 C   0  0  0  0  0  0
   14.8437   40.5881  -10.0230 C   0  0  0  0  0  0
   14.6979   42.0378  -10.0185 N   0  0  0  0  0  0
   15.7994   42.8766   -9.8159 C   0  0  0  0  0  0
   17.1290   42.3971   -9.7932 C   0  0  0  0  0  0
   18.1729   43.2947   -9.4836 C   0  0  0  0  0  0
   17.8487   44.6456   -9.2514 C   0  0  0  0  0  0
   16.4991   45.0353   -9.3417 C   0  0  0  0  0  0
   16.0976   46.4786   -9.1360 C   0  0  0  0  0  0
   15.4939   44.1749   -9.6130 N   0  0  0  0  0  0
   19.5859   42.8127   -9.3427 C   0  0  0  0  0  0
   20.3528   43.3203   -8.5266 O   0  0  0  0  0  0
   19.9341   41.8402  -10.1990 N   0  0  0  0  0  0
   18.6616   38.6754   -9.8426 C   0  0  0  0  0  0
   23.8321   43.1446  -12.8359 H   0  0  0  0  0  0
   23.1022   41.1608  -11.1879 H   0  0  0  0  0  0
   21.6964   41.2724   -9.2583 H   0  0  0  0  0  0
   31.5875   42.3434  -11.0563 H   0  0  0  0  0  0
   30.6047   43.7387  -11.4928 H   0  0  0  0  0  0
   30.6826   42.3423  -12.5662 H   0  0  0  0  0  0
   29.5359   40.9449  -10.8403 H   0  0  0  0  0  0
   29.4667   42.3056   -9.7492 H   0  0  0  0  0  0
   28.0518   43.5405  -11.4253 H   0  0  0  0  0  0
   28.0820   42.1417  -12.4715 H   0  0  0  0  0  0
   26.9074   40.7863  -10.6830 H   0  0  0  0  0  0
   26.9156   42.1839   -9.6385 H   0  0  0  0  0  0
   25.3026   41.7037  -12.0533 H   0  0  0  0  0  0
   24.6023   45.4937  -12.7589 H   0  0  0  0  0  0
   23.5644   45.8182  -11.3741 H   0  0  0  0  0  0
   22.8573   45.4121  -12.9285 H   0  0  0  0  0  0
   22.4787   43.5046  -10.1489 H   0  0  0  0  0  0
   21.5630   43.7606  -11.5975 H   0  0  0  0  0  0
   22.3925   41.0631  -13.0982 H   0  0  0  0  0  0
   20.6503   39.3482  -11.3785 H   0  0  0  0  0  0
   21.9177   39.0617  -10.2190 H   0  0  0  0  0  0
   21.2402   39.2927   -7.6770 H   0  0  0  0  0  0
   19.5389   38.5110   -6.0462 H   0  0  0  0  0  0
   17.2943   37.8218   -6.8321 H   0  0  0  0  0  0
   16.1932   38.0521  -10.4386 H   0  0  0  0  0  0
   16.2204   36.7397   -9.2984 H   0  0  0  0  0  0
   14.1867   38.1236   -8.9880 H   0  0  0  0  0  0
   15.1681   38.1505   -7.5594 H   0  0  0  0  0  0
   14.3793   40.3655   -7.9248 H   0  0  0  0  0  0
   16.0822   40.3912   -8.2321 H   0  0  0  0  0  0
   15.6129   40.2958  -10.7388 H   0  0  0  0  0  0
   13.9125   40.1645  -10.3988 H   0  0  0  0  0  0
   13.8101   42.3909   -9.6900 H   0  0  0  0  0  0
   17.3484   41.3510   -9.9450 H   0  0  0  0  0  0
   18.6210   45.3617   -9.0078 H   0  0  0  0  0  0
   16.9147   47.0570   -8.7038 H   0  0  0  0  0  0
   15.2551   46.5361   -8.4524 H   0  0  0  0  0  0
   15.8075   46.9286  -10.0867 H   0  0  0  0  0  0
   19.2351   41.5304  -10.8549 H   0  0  0  0  0  0
   18.4164   38.7317  -10.8938 H   0  0  0  0  0  0
  1  2  1  0  0  0
  1 39  1  0  0  0
  1 40  1  0  0  0
  1 41  1  0  0  0
  2  3  1  0  0  0
  2 42  1  0  0  0
  2 43  1  0  0  0
  3  4  1  0  0  0
  3 44  1  0  0  0
  3 45  1  0  0  0
  4  5  1  0  0  0
  4 46  1  0  0  0
  4 47  1  0  0  0
  5  6  1  0  0  0
  5 48  1  0  0  0
  6  7  2  0  0  0
  6  8  1  0  0  0
  8 36  1  0  0  0
  8  9  1  0  0  0
  8 10  1  0  0  0
  9 49  1  0  0  0
  9 50  1  0  0  0
  9 51  1  0  0  0
 10 11  1  0  0  0
 10 52  1  0  0  0
 10 53  1  0  0  0
 11 37  1  0  0  0
 11 12  1  0  0  0
 11 13  1  0  0  0
 12 54  1  0  0  0
 13 38  1  0  0  0
 13 34  1  0  0  0
 13 14  1  0  0  0
 14 15  1  0  0  0
 14 55  1  0  0  0
 14 56  1  0  0  0
 15 35  1  0  0  0
 15 16  2  0  0  0
 16 17  1  0  0  0
 16 57  1  0  0  0
 17 18  2  0  0  0
 17 58  1  0  0  0
 18 19  1  0  0  0
 18 59  1  0  0  0
 19 20  1  0  0  0
 19 35  2  0  0  0
 20 21  1  0  0  0
 20 60  1  0  0  0
 20 61  1  0  0  0
 21 22  1  0  0  0
 21 62  1  0  0  0
 21 63  1  0  0  0
 22 23  1  0  0  0
 22 64  1  0  0  0
 22 65  1  0  0  0
 23 24  1  0  0  0
 23 66  1  0  0  0
 23 67  1  0  0  0
 24 25  1  0  0  0
 24 68  1  0  0  0
 25 31  1  0  0  0
 25 26  2  0  0  0
 26 27  1  0  0  0
 26 69  1  0  0  0
 27 28  2  0  0  0
 27 32  1  0  0  0
 28 29  1  0  0  0
 28 70  1  0  0  0
 29 30  1  0  0  0
 29 31  2  0  0  0
 30 71  1  0  0  0
 30 72  1  0  0  0
 30 73  1  0  0  0
 32 33  2  0  0  0
 32 34  1  0  0  0
 34 74  1  0  0  0
 35 75  1  0  0  0
M  END
> <s_m_source_file>
BACE_155.smi

> <i_m_source_file_index>
1

> <i_lp_mmshare_version>
42013

> <i_f3d_flags>
0

> <s_epik_input>
W0NIM11bQ0gyXVtDSDJdW0NIMl1bTkhdQyg9TylbQ0BIXShbQ0gzXSlbQ0gyXVtDQEhdKFtPSF0pW0NASF0oW0NIMl0xKVtOSF1DKD1PKWMoW2NIXWMobjIpW0NIM10pW2NIXWMyW05IXVtDSDJdW0NIMl1bQ0gyXVtDSDJdYyhbY0hdMylbY0hdW2NIXVtjSF1jMTM=

> <s_epik_cmdline>
J2VwaWtfcHl0aG9uJywgJy1waCcsICc3LjAnLCAnLXRuJywgJzgnLCAnLW1hJywgJzIwMCcsICctaW1hZScsICc8aW5maWxlLm1hZT4nLCAnLW9tYWUnLCAnPG91dGZpbGUubWFlPic=

> <r_lp_tautomer_probability>
1

> <r_epik_Ionization_Penalty>
  0.0137

> <r_epik_Ionization_Penalty_Charging>
  0.0000

> <r_epik_Ionization_Penalty_Neutral>
  0.0137

> <r_epik_State_Penalty>
  0.0106

> <r_epik_Charging_Adjusted_Penalty>
0.0106346

> <i_epik_Tot_Q>
0

> <i_epik_Tot_abs_Q>
0

> <s_lp_Force_Field>
OPLS_2005

> <r_lp_Energy>
15.8259

> <b_lp_Chiralities_Consistent>
1

> <s_lp_Variant>
BACE_155.smi:1-1

> <chiral flag>
1

> <version>
0

> <s_i_glide_gridfile>
second_dock_grid_2

> <i_i_glide_lignum>
308

> <i_i_glide_rotatable_bonds>
9

> <r_i_docking_score>
-4.31468

> <r_i_glide_ligand_efficiency>
-0.123277

> <r_i_glide_ligand_efficiency_sa>
-0.403246

> <r_i_glide_ligand_efficiency_ln>
-0.947168

> <r_glide_XP_GScore>
-4.32528

> <r_i_glide_gscore>
-4.32528

> <r_i_glide_evdw>
-37.284

> <r_i_glide_ecoul>
-9.89195

> <r_i_glide_energy>
-47.176

> <r_i_glide_einternal>
6.10271

> <r_i_glide_emodel>
-62.8265

> <r_glide_XP_HBond>
-1.00645

> <i_i_glide_confnum>
1

> <i_i_glide_posenum>
23

> <r_i_glide_eff_state_penalty>
0.0106

> <i_glide_XP_PoseRank>
1

$$$$
BACE_155.smi:1
                    3D
 Structure written by MMmdl.
 76 78  0  0  1  0            999 V2000
   23.0805   44.2374    1.9228 C   0  0  0  0  0  0
   21.7717   43.6523    1.3795 C   0  0  0  0  0  0
   21.6360   43.7488   -0.1409 C   0  0  0  0  0  0
   20.4006   43.0035   -0.6839 C   0  0  0  0  0  0
   20.4799   42.9507   -2.1308 N   0  0  0  0  0  0
   20.8195   41.8998   -2.8785 C   0  0  0  0  0  0
   20.8599   40.7558   -2.4411 O   0  0  0  0  0  0
   21.2337   42.1803   -4.3280 C   0  0  2  0  0  0
   22.7718   42.1590   -4.4374 C   0  0  0  0  0  0
   20.5891   43.4698   -4.9267 C   0  0  0  0  0  0
   20.8149   43.6915   -6.4352 C   0  0  2  0  0  0
   20.3809   44.9869   -6.7894 O   0  0  0  0  0  0
   20.1419   42.6257   -7.3285 C   0  0  2  0  0  0
   20.8298   42.4101   -8.6973 C   0  0  0  0  0  0
   20.2015   41.2755   -9.4928 C   0  0  0  0  0  0
   19.8427   41.4769  -10.8391 C   0  0  0  0  0  0
   19.2212   40.4393  -11.5583 C   0  0  0  0  0  0
   18.9454   39.2108  -10.9276 C   0  0  0  0  0  0
   19.2844   39.0031   -9.5782 C   0  0  0  0  0  0
   18.9905   37.6867   -8.8733 C   0  0  0  0  0  0
   17.5576   37.1261   -9.0151 C   0  0  0  0  0  0
   16.4254   38.0480   -8.5218 C   0  0  0  0  0  0
   15.7355   38.8233   -9.6563 C   0  0  0  0  0  0
   14.7146   39.7448   -9.1678 N   0  0  0  0  0  0
   15.0452   41.1000   -9.0370 C   0  0  0  0  0  0
   16.3363   41.5633   -8.6985 C   0  0  0  0  0  0
   16.5673   42.9497   -8.5482 C   0  0  0  0  0  0
   15.5022   43.8468   -8.7863 C   0  0  0  0  0  0
   14.2301   43.3322   -9.1130 C   0  0  0  0  0  0
   13.0142   44.2093   -9.2958 C   0  0  0  0  0  0
   14.0600   42.0012   -9.2400 N   0  3  0  0  0  0
   17.9403   43.4620   -8.2228 C   0  0  0  0  0  0
   18.3501   44.5177   -8.7071 O   0  0  0  0  0  0
   18.6764   42.6941   -7.4036 N   0  0  0  0  0  0
   19.9451   40.0281   -8.8794 C   0  0  0  0  0  0
   20.8618   41.3069   -4.8592 H   0  0  0  0  0  0
   21.8886   43.6802   -6.6190 H   0  0  0  0  0  0
   20.3057   41.6872   -6.8173 H   0  0  0  0  0  0
   23.1087   44.1639    3.0097 H   0  0  0  0  0  0
   23.1918   45.2854    1.6524 H   0  0  0  0  0  0
   23.9432   43.6915    1.5384 H   0  0  0  0  0  0
   21.7269   42.5993    1.6471 H   0  0  0  0  0  0
   20.9252   44.1499    1.8554 H   0  0  0  0  0  0
   21.5920   44.7971   -0.4388 H   0  0  0  0  0  0
   22.5361   43.3484   -0.6071 H   0  0  0  0  0  0
   20.3104   42.0035   -0.2593 H   0  0  0  0  0  0
   19.4870   43.5333   -0.4150 H   0  0  0  0  0  0
   20.4761   43.8596   -2.5811 H   0  0  0  0  0  0
   23.1977   41.2865   -3.9394 H   0  0  0  0  0  0
   23.2165   43.0480   -3.9874 H   0  0  0  0  0  0
   23.0947   42.1166   -5.4778 H   0  0  0  0  0  0
   19.5195   43.4756   -4.7234 H   0  0  0  0  0  0
   21.0050   44.3390   -4.4217 H   0  0  0  0  0  0
   19.6012   44.8939   -7.3313 H   0  0  0  0  0  0
   20.8028   43.3325   -9.2772 H   0  0  0  0  0  0
   21.8849   42.1746   -8.5493 H   0  0  0  0  0  0
   20.0364   42.4226  -11.3240 H   0  0  0  0  0  0
   18.9504   40.5857  -12.5942 H   0  0  0  0  0  0
   18.4607   38.4313  -11.4919 H   0  0  0  0  0  0
   19.7011   36.9503   -9.2403 H   0  0  0  0  0  0
   19.2062   37.7999   -7.8091 H   0  0  0  0  0  0
   17.3671   36.8181  -10.0402 H   0  0  0  0  0  0
   17.5138   36.2037   -8.4319 H   0  0  0  0  0  0
   15.6662   37.4305   -8.0403 H   0  0  0  0  0  0
   16.7977   38.7117   -7.7417 H   0  0  0  0  0  0
   16.4585   39.3701  -10.2553 H   0  0  0  0  0  0
   15.2574   38.1191  -10.3370 H   0  0  0  0  0  0
   13.7472   39.4961   -9.3295 H   0  0  0  0  0  0
   17.1431   40.8623   -8.5435 H   0  0  0  0  0  0
   15.6579   44.9113   -8.6874 H   0  0  0  0  0  0
   12.9712   44.9501   -8.4982 H   0  0  0  0  0  0
   12.0950   43.6215   -9.2512 H   0  0  0  0  0  0
   13.0558   44.7162  -10.2612 H   0  0  0  0  0  0
   18.1913   41.9447   -6.9212 H   0  0  0  0  0  0
   20.2343   39.8489   -7.8555 H   0  0  0  0  0  0
   13.1121   41.6427   -9.3959 H   0  0  0  0  0  0
  1  2  1  0  0  0
  1 39  1  0  0  0
  1 40  1  0  0  0
  1 41  1  0  0  0
  2  3  1  0  0  0
  2 42  1  0  0  0
  2 43  1  0  0  0
  3  4  1  0  0  0
  3 44  1  0  0  0
  3 45  1  0  0  0
  4  5  1  0  0  0
  4 46  1  0  0  0
  4 47  1  0  0  0
  5  6  1  0  0  0
  5 48  1  0  0  0
  6  7  2  0  0  0
  6  8  1  0  0  0
  8 36  1  0  0  0
  8  9  1  0  0  0
  8 10  1  0  0  0
  9 49  1  0  0  0
  9 50  1  0  0  0
  9 51  1  0  0  0
 10 11  1  0  0  0
 10 52  1  0  0  0
 10 53  1  0  0  0
 11 37  1  0  0  0
 11 12  1  0  0  0
 11 13  1  0  0  0
 12 54  1  0  0  0
 13 38  1  0  0  0
 13 34  1  0  0  0
 13 14  1  0  0  0
 14 15  1  0  0  0
 14 55  1  0  0  0
 14 56  1  0  0  0
 15 35  1  0  0  0
 15 16  2  0  0  0
 16 17  1  0  0  0
 16 57  1  0  0  0
 17 18  2  0  0  0
 17 58  1  0  0  0
 18 19  1  0  0  0
 18 59  1  0  0  0
 19 20  1  0  0  0
 19 35  2  0  0  0
 20 21  1  0  0  0
 20 60  1  0  0  0
 20 61  1  0  0  0
 21 22  1  0  0  0
 21 62  1  0  0  0
 21 63  1  0  0  0
 22 23  1  0  0  0
 22 64  1  0  0  0
 22 65  1  0  0  0
 23 24  1  0  0  0
 23 66  1  0  0  0
 23 67  1  0  0  0
 24 25  1  0  0  0
 24 68  1  0  0  0
 25 31  1  0  0  0
 25 26  2  0  0  0
 26 27  1  0  0  0
 26 69  1  0  0  0
 27 28  2  0  0  0
 27 32  1  0  0  0
 28 29  1  0  0  0
 28 70  1  0  0  0
 29 30  1  0  0  0
 29 31  2  0  0  0
 30 71  1  0  0  0
 30 72  1  0  0  0
 30 73  1  0  0  0
 31 76  1  0  0  0
 32 33  2  0  0  0
 32 34  1  0  0  0
 34 74  1  0  0  0
 35 75  1  0  0  0
M  CHG  1  31   1
M  END
> <s_m_source_file>
BACE_155.smi

> <i_m_source_file_index>
1

> <i_lp_mmshare_version>
42013

> <i_f3d_flags>
0

> <s_epik_input>
W0NIM11bQ0gyXVtDSDJdW0NIMl1bTkhdQyg9TylbQ0BIXShbQ0gzXSlbQ0gyXVtDQEhdKFtPSF0pW0NASF0oW0NIMl0xKVtOSF1DKD1PKWMoW2NIXWMobjIpW0NIM10pW2NIXWMyW05IXVtDSDJdW0NIMl1bQ0gyXVtDSDJdYyhbY0hdMylbY0hdW2NIXVtjSF1jMTM=

> <s_epik_cmdline>
J2VwaWtfcHl0aG9uJywgJy1waCcsICc3LjAnLCAnLXRuJywgJzgnLCAnLW1hJywgJzIwMCcsICctaW1hZScsICc8aW5maWxlLm1hZT4nLCAnLW9tYWUnLCAnPG91dGZpbGUubWFlPic=

> <r_lp_tautomer_probability>
0.999994

> <r_epik_Ionization_Penalty>
  2.2409

> <r_epik_Ionization_Penalty_Charging>
  2.2408

> <r_epik_Ionization_Penalty_Neutral>
  0.0000

> <r_epik_State_Penalty>
  2.3872

> <r_epik_Charging_Adjusted_Penalty>
4.62807

> <i_epik_Tot_Q>
1

> <i_epik_Tot_abs_Q>
1

> <s_lp_Force_Field>
OPLS_2005

> <r_lp_Energy>
23.2635

> <b_lp_Chiralities_Consistent>
1

> <s_lp_Variant>
BACE_155.smi:1-2

> <chiral flag>
1

> <version>
0

> <s_i_glide_gridfile>
second_dock_grid_2

> <i_i_glide_lignum>
309

> <i_i_glide_rotatable_bonds>
9

> <r_i_docking_score>
-3.44975

> <r_i_glide_ligand_efficiency>
-0.0985643

> <r_i_glide_ligand_efficiency_sa>
-0.32241

> <r_i_glide_ligand_efficiency_ln>
-0.757297

> <r_glide_XP_GScore>
-5.83695

> <r_i_glide_gscore>
-5.83695

> <r_i_glide_evdw>
-43.2851

> <r_i_glide_ecoul>
-11.2421

> <r_i_glide_energy>
-54.5272

> <r_i_glide_einternal>
4.00817

> <r_i_glide_emodel>
-73.761

> <r_glide_XP_HBond>
-0.94315

> <i_i_glide_confnum>
1

> <i_i_glide_posenum>
5

> <r_i_glide_eff_state_penalty>
2.3872

> <i_glide_XP_PoseRank>
1

$$$$
BACE_156.smi:1
                    3D
 Structure written by MMmdl.
 74 75  0  0  1  0            999 V2000
   31.2979   42.9921  -11.4444 C   0  0  0  0  0  0
   30.6420   42.2690  -12.6284 C   0  0  0  0  0  0
   29.1603   41.9221  -12.3982 C   0  0  0  0  0  0
   28.2357   43.1509  -12.5038 C   0  0  0  0  0  0
   26.8494   42.8498  -12.1547 N   0  0  0  0  0  0
   26.3883   42.7773  -10.8963 C   0  0  0  0  0  0
   27.1295   42.8459   -9.9159 O   0  0  0  0  0  0
   24.8660   42.6619  -10.6986 C   0  0  2  0  0  0
   24.4014   43.8846   -9.8777 C   0  0  0  0  0  0
   24.5289   41.2772  -10.0742 C   0  0  0  0  0  0
   23.0452   40.8143   -9.9587 C   0  0  2  0  0  0
   22.4599   40.8269  -11.2400 O   0  0  0  0  0  0
   22.1731   41.5923   -8.9303 C   0  0  2  0  0  0
   22.7882   41.4795   -7.5083 C   0  0  0  0  0  0
   21.9478   41.9851   -6.3395 C   0  0  0  0  0  0
   21.9741   41.2856   -5.1139 C   0  0  0  0  0  0
   21.2555   41.7693   -4.0057 C   0  0  0  0  0  0
   20.4979   42.9492   -4.1194 C   0  0  0  0  0  0
   20.4450   43.6574   -5.3374 C   0  0  0  0  0  0
   21.1913   43.1737   -6.4417 C   0  0  0  0  0  0
   19.6600   44.7925   -5.3685 O   0  0  0  0  0  0
   19.2514   45.3204   -6.6274 C   0  0  0  0  0  0
   18.2086   44.4213   -7.3239 C   0  0  0  0  0  0
   17.9035   44.8914   -8.7522 C   0  0  0  0  0  0
   16.9518   43.9598   -9.5235 C   0  0  0  0  0  0
   17.3044   43.9325  -11.3394 S   0  0  0  0  0  0
   16.0293   43.7166  -12.0393 O   0  0  0  0  0  0
   18.0980   45.1210  -11.6829 O   0  0  0  0  0  0
   18.3124   42.3922  -11.6285 C   0  0  0  0  0  0
   19.7132   42.2449  -10.9518 C   0  0  1  0  0  0
   20.5923   43.5106  -11.0188 C   0  0  0  0  0  0
   19.6771   41.4998   -9.5841 C   0  0  0  0  0  0
   18.5919   41.1280   -9.1478 O   0  0  0  0  0  0
   20.7785   41.1341   -8.8932 N   0  0  0  0  0  0
   24.3988   42.7214  -11.6831 H   0  0  0  0  0  0
   23.0570   39.7623   -9.6572 H   0  0  0  0  0  0
   22.1534   42.6448   -9.1690 H   0  0  0  0  0  0
   20.1849   41.5209  -11.6115 H   0  0  0  0  0  0
   32.3601   43.1517  -11.6306 H   0  0  0  0  0  0
   31.2081   42.4089  -10.5281 H   0  0  0  0  0  0
   30.8457   43.9663  -11.2663 H   0  0  0  0  0  0
   30.7493   42.8647  -13.5366 H   0  0  0  0  0  0
   31.1952   41.3504  -12.8126 H   0  0  0  0  0  0
   28.8586   41.1817  -13.1407 H   0  0  0  0  0  0
   29.0475   41.4356  -11.4271 H   0  0  0  0  0  0
   28.5941   43.9571  -11.8610 H   0  0  0  0  0  0
   28.2579   43.5431  -13.5202 H   0  0  0  0  0  0
   26.1848   42.7728  -12.9108 H   0  0  0  0  0  0
   24.9732   44.7788  -10.1270 H   0  0  0  0  0  0
   24.5198   43.7224   -8.8068 H   0  0  0  0  0  0
   23.3648   44.1412  -10.0783 H   0  0  0  0  0  0
   25.0406   40.5459  -10.6967 H   0  0  0  0  0  0
   25.0153   41.1850   -9.1045 H   0  0  0  0  0  0
   23.1107   40.5514  -11.8835 H   0  0  0  0  0  0
   23.0375   40.4350   -7.3147 H   0  0  0  0  0  0
   23.7300   42.0233   -7.4657 H   0  0  0  0  0  0
   22.5577   40.3829   -5.0126 H   0  0  0  0  0  0
   21.2823   41.2340   -3.0681 H   0  0  0  0  0  0
   19.9425   43.3106   -3.2658 H   0  0  0  0  0  0
   21.1937   43.7020   -7.3807 H   0  0  0  0  0  0
   18.7996   46.2946   -6.4369 H   0  0  0  0  0  0
   20.1096   45.5241   -7.2670 H   0  0  0  0  0  0
   18.5717   43.3948   -7.3616 H   0  0  0  0  0  0
   17.2872   44.3927   -6.7421 H   0  0  0  0  0  0
   17.4937   45.9021   -8.7394 H   0  0  0  0  0  0
   18.8465   44.9722   -9.2830 H   0  0  0  0  0  0
   16.9714   42.9368   -9.1549 H   0  0  0  0  0  0
   15.9259   44.2983   -9.3895 H   0  0  0  0  0  0
   17.6721   41.5403  -11.3953 H   0  0  0  0  0  0
   18.4581   42.3433  -12.7063 H   0  0  0  0  0  0
   21.6230   43.2503  -11.2471 H   0  0  0  0  0  0
   20.5958   44.0781  -10.0918 H   0  0  0  0  0  0
   20.3011   44.1714  -11.8310 H   0  0  0  0  0  0
   20.5655   40.5600   -8.0899 H   0  0  0  0  0  0
  1  2  1  0  0  0
  1 39  1  0  0  0
  1 40  1  0  0  0
  1 41  1  0  0  0
  2  3  1  0  0  0
  2 42  1  0  0  0
  2 43  1  0  0  0
  3  4  1  0  0  0
  3 44  1  0  0  0
  3 45  1  0  0  0
  4  5  1  0  0  0
  4 46  1  0  0  0
  4 47  1  0  0  0
  5  6  1  0  0  0
  5 48  1  0  0  0
  6  7  2  0  0  0
  6  8  1  0  0  0
  8 35  1  0  0  0
  8  9  1  0  0  0
  8 10  1  0  0  0
  9 49  1  0  0  0
  9 50  1  0  0  0
  9 51  1  0  0  0
 10 11  1  0  0  0
 10 52  1  0  0  0
 10 53  1  0  0  0
 11 36  1  0  0  0
 11 12  1  0  0  0
 11 13  1  0  0  0
 12 54  1  0  0  0
 13 37  1  0  0  0
 13 34  1  0  0  0
 13 14  1  0  0  0
 14 15  1  0  0  0
 14 55  1  0  0  0
 14 56  1  0  0  0
 15 20  1  0  0  0
 15 16  2  0  0  0
 16 17  1  0  0  0
 16 57  1  0  0  0
 17 18  2  0  0  0
 17 58  1  0  0  0
 18 19  1  0  0  0
 18 59  1  0  0  0
 19 20  2  0  0  0
 19 21  1  0  0  0
 20 60  1  0  0  0
 21 22  1  0  0  0
 22 23  1  0  0  0
 22 61  1  0  0  0
 22 62  1  0  0  0
 23 24  1  0  0  0
 23 63  1  0  0  0
 23 64  1  0  0  0
 24 25  1  0  0  0
 24 65  1  0  0  0
 24 66  1  0  0  0
 25 26  1  0  0  0
 25 67  1  0  0  0
 25 68  1  0  0  0
 26 27  2  0  0  0
 26 28  2  0  0  0
 26 29  1  0  0  0
 29 30  1  0  0  0
 29 69  1  0  0  0
 29 70  1  0  0  0
 30 38  1  0  0  0
 30 31  1  0  0  0
 30 32  1  0  0  0
 31 71  1  0  0  0
 31 72  1  0  0  0
 31 73  1  0  0  0
 32 33  2  0  0  0
 32 34  1  0  0  0
 34 74  1  0  0  0
M  END
> <s_m_source_file>
BACE_156.smi

> <i_m_source_file_index>
1

> <i_lp_mmshare_version>
42013

> <i_f3d_flags>
0

> <s_epik_input>
W0NIM11bQ0gyXVtDSDJdW0NIMl1bTkhdQyg9TylbQ0BIXShbQ0gzXSlbQ0gyXVtDQEhdKFtPSF0pW0NASF0oW0NIMl0xKVtOSF1DKD1PKVtDQEhdKFtDSDNdKVtDSDJdUyg9TykoPU8pW0NIMl1bQ0gyXVtDSDJdW0NIMl1PYyhbY0hdMilbY0hdW2NIXVtjSF1jMTI=

> <s_epik_cmdline>
J2VwaWtfcHl0aG9uJywgJy1waCcsICc3LjAnLCAnLXRuJywgJzgnLCAnLW1hJywgJzIwMCcsICctaW1hZScsICc8aW5maWxlLm1hZT4nLCAnLW9tYWUnLCAnPG91dGZpbGUubWFlPic=

> <r_lp_tautomer_probability>
1

> <r_epik_Ionization_Penalty>
  0.0000

> <r_epik_Ionization_Penalty_Charging>
  0.0000

> <r_epik_Ionization_Penalty_Neutral>
  0.0000

> <r_epik_State_Penalty>
 -0.0000

> <r_epik_Charging_Adjusted_Penalty>
0

> <i_epik_Tot_Q>
0

> <i_epik_Tot_abs_Q>
0

> <s_lp_Force_Field>
OPLS_2005

> <r_lp_Energy>
26.0367

> <b_lp_Chiralities_Consistent>
1

> <s_lp_Variant>
BACE_156.smi:1-1

> <chiral flag>
1

> <version>
0

> <s_i_glide_gridfile>
second_dock_grid_2

> <i_i_glide_lignum>
310

> <i_i_glide_rotatable_bonds>
9

> <r_i_docking_score>
-4.01048

> <r_i_glide_ligand_efficiency>
-0.117955

> <r_i_glide_ligand_efficiency_sa>
-0.382129

> <r_i_glide_ligand_efficiency_ln>
-0.886027

> <r_glide_XP_GScore>
-4.01048

> <r_i_glide_gscore>
-4.01048

> <r_i_glide_evdw>
-33.1927

> <r_i_glide_ecoul>
-10.5275

> <r_i_glide_energy>
-43.7202

> <r_i_glide_einternal>
4.63659

> <r_i_glide_emodel>
-58.7436

> <r_glide_XP_HBond>
-0.741265

> <i_i_glide_confnum>
1

> <i_i_glide_posenum>
4

> <r_i_glide_eff_state_penalty>
-0

> <i_glide_XP_PoseRank>
1

$$$$
BACE_157.smi:1
                    3D
 Structure written by MMmdl.
 77 79  0  0  1  0            999 V2000
   23.5097   43.7575    2.8330 C   0  0  0  0  0  0
   22.3784   44.3405    1.9885 C   0  0  0  0  0  0
   22.1786   43.5968    0.6727 C   0  0  0  0  0  0
   20.7634   43.7541    0.1053 C   0  0  0  0  0  0
   20.7074   43.3500   -1.2907 N   0  0  0  0  0  0
   20.4375   42.1336   -1.7753 C   0  0  0  0  0  0
   20.0600   41.2188   -1.0511 O   0  0  0  0  0  0
   20.5783   41.8973   -3.2912 C   0  0  2  0  0  0
   20.7711   40.3990   -3.6155 C   0  0  0  0  0  0
   21.6291   42.7825   -4.0303 C   0  0  0  0  0  0
   21.0756   43.5282   -5.2709 C   0  0  2  0  0  0
   20.0906   44.4493   -4.8401 O   0  0  0  0  0  0
   20.5234   42.5945   -6.3815 C   0  0  2  0  0  0
   21.6352   41.7045   -7.0091 C   0  0  0  0  0  0
   21.3110   41.0207   -8.3315 C   0  0  0  0  0  0
   20.0113   40.5539   -8.6309 C   0  0  0  0  0  0
   19.7096   40.0176   -9.9053 C   0  0  0  0  0  0
   18.2856   39.6180  -10.2913 C   0  0  0  0  0  0
   17.2133   39.8738   -9.2421 C   0  0  0  0  0  0
   16.7445   38.7850   -8.4766 C   0  0  0  0  0  0
   15.7579   38.9806   -7.4974 C   0  0  0  0  0  0
   15.2466   40.2661   -7.2689 C   0  0  0  0  0  0
   15.6936   41.3553   -8.0398 C   0  0  0  0  0  0
   16.6826   41.1744   -9.0387 C   0  0  0  0  0  0
   17.1850   42.2097   -9.8044 O   0  0  0  0  0  0
   16.3748   43.3630  -10.0484 C   0  0  0  0  0  0
   16.5609   44.4534   -8.9772 C   0  0  0  0  0  0
   15.5645   44.9322   -8.4382 O   0  0  0  0  0  0
   17.7851   44.9010   -8.6497 N   0  0  0  0  0  0
   19.0716   44.6548   -9.3093 C   0  0  1  0  0  0
   19.4737   45.8945  -10.1257 C   0  0  0  0  0  0
   20.1378   44.1816   -8.3074 C   0  0  0  0  0  0
   21.3013   44.5742   -8.3905 O   0  0  0  0  0  0
   19.7200   43.3173   -7.3719 N   0  0  0  0  0  0
   20.7530   39.8756  -10.8490 C   0  0  0  0  0  0
   20.5160   39.3504  -12.0848 O   0  0  0  0  0  0
   22.0604   40.2821  -10.5281 C   0  0  0  0  0  0
   22.3377   40.8632   -9.2816 C   0  0  0  0  0  0
   19.5971   42.1825   -3.6492 H   0  0  0  0  0  0
   21.8846   44.1256   -5.6941 H   0  0  0  0  0  0
   19.7897   41.9230   -5.9431 H   0  0  0  0  0  0
   18.9816   43.8368  -10.0223 H   0  0  0  0  0  0
   23.6596   44.3664    3.7223 H   0  0  0  0  0  0
   24.4505   43.7152    2.2850 H   0  0  0  0  0  0
   23.2600   42.7481    3.1599 H   0  0  0  0  0  0
   21.4600   44.3427    2.5750 H   0  0  0  0  0  0
   22.6010   45.3713    1.7510 H   0  0  0  0  0  0
   22.9245   43.9276   -0.0503 H   0  0  0  0  0  0
   22.3679   42.5500    0.8610 H   0  0  0  0  0  0
   20.0600   43.1794    0.7067 H   0  0  0  0  0  0
   20.4601   44.7994    0.1580 H   0  0  0  0  0  0
   20.8820   44.0877   -1.9647 H   0  0  0  0  0  0
   20.0600   39.7667   -3.0835 H   0  0  0  0  0  0
   21.7746   40.0626   -3.3518 H   0  0  0  0  0  0
   20.6150   40.1891   -4.6714 H   0  0  0  0  0  0
   22.0880   43.5185   -3.3712 H   0  0  0  0  0  0
   22.4713   42.1622   -4.3353 H   0  0  0  0  0  0
   20.4600   44.9502   -4.1229 H   0  0  0  0  0  0
   22.5143   42.3280   -7.1751 H   0  0  0  0  0  0
   21.9561   40.9363   -6.3083 H   0  0  0  0  0  0
   19.2370   40.6556   -7.8859 H   0  0  0  0  0  0
   18.0065   40.1496  -11.2018 H   0  0  0  0  0  0
   18.2844   38.5579  -10.5494 H   0  0  0  0  0  0
   17.1438   37.7927   -8.6277 H   0  0  0  0  0  0
   15.4005   38.1501   -6.9047 H   0  0  0  0  0  0
   14.5072   40.4120   -6.4950 H   0  0  0  0  0  0
   15.2737   42.3242   -7.8214 H   0  0  0  0  0  0
   16.6658   43.7803  -11.0124 H   0  0  0  0  0  0
   15.3218   43.0916  -10.1426 H   0  0  0  0  0  0
   17.8129   45.5719   -7.8970 H   0  0  0  0  0  0
   20.4054   45.7256  -10.6676 H   0  0  0  0  0  0
   19.6161   46.7640   -9.4835 H   0  0  0  0  0  0
   18.7102   46.1436  -10.8635 H   0  0  0  0  0  0
   18.7368   43.0856   -7.3803 H   0  0  0  0  0  0
   19.6243   39.0658  -12.2141 H   0  0  0  0  0  0
   22.8597   40.1651  -11.2425 H   0  0  0  0  0  0
   23.3431   41.1921   -9.0645 H   0  0  0  0  0  0
  1  2  1  0  0  0
  1 43  1  0  0  0
  1 44  1  0  0  0
  1 45  1  0  0  0
  2  3  1  0  0  0
  2 46  1  0  0  0
  2 47  1  0  0  0
  3  4  1  0  0  0
  3 48  1  0  0  0
  3 49  1  0  0  0
  4  5  1  0  0  0
  4 50  1  0  0  0
  4 51  1  0  0  0
  5  6  1  0  0  0
  5 52  1  0  0  0
  6  7  2  0  0  0
  6  8  1  0  0  0
  8 39  1  0  0  0
  8  9  1  0  0  0
  8 10  1  0  0  0
  9 53  1  0  0  0
  9 54  1  0  0  0
  9 55  1  0  0  0
 10 11  1  0  0  0
 10 56  1  0  0  0
 10 57  1  0  0  0
 11 40  1  0  0  0
 11 12  1  0  0  0
 11 13  1  0  0  0
 12 58  1  0  0  0
 13 41  1  0  0  0
 13 34  1  0  0  0
 13 14  1  0  0  0
 14 15  1  0  0  0
 14 59  1  0  0  0
 14 60  1  0  0  0
 15 38  1  0  0  0
 15 16  2  0  0  0
 16 17  1  0  0  0
 16 61  1  0  0  0
 17 18  1  0  0  0
 17 35  2  0  0  0
 18 19  1  0  0  0
 18 62  1  0  0  0
 18 63  1  0  0  0
 19 24  2  0  0  0
 19 20  1  0  0  0
 20 21  2  0  0  0
 20 64  1  0  0  0
 21 22  1  0  0  0
 21 65  1  0  0  0
 22 23  2  0  0  0
 22 66  1  0  0  0
 23 24  1  0  0  0
 23 67  1  0  0  0
 24 25  1  0  0  0
 25 26  1  0  0  0
 26 27  1  0  0  0
 26 68  1  0  0  0
 26 69  1  0  0  0
 27 28  2  0  0  0
 27 29  1  0  0  0
 29 30  1  0  0  0
 29 70  1  0  0  0
 30 42  1  0  0  0
 30 31  1  0  0  0
 30 32  1  0  0  0
 31 71  1  0  0  0
 31 72  1  0  0  0
 31 73  1  0  0  0
 32 33  2  0  0  0
 32 34  1  0  0  0
 34 74  1  0  0  0
 35 36  1  0  0  0
 35 37  1  0  0  0
 36 75  1  0  0  0
 37 38  2  0  0  0
 37 76  1  0  0  0
 38 77  1  0  0  0
M  END
> <s_m_source_file>
BACE_157.smi

> <i_m_source_file_index>
1

> <i_lp_mmshare_version>
42013

> <i_f3d_flags>
0

> <s_epik_input>
W0NIM11bQ0gyXVtDSDJdW0NIMl1bTkhdQyg9TylbQ0BIXShbQ0gzXSlbQ0gyXVtDQEhdKFtPSF0pW0NASF0oW0NIMl0xKVtOSF1DKD1PKVtDQEhdKFtDSDNdKVtOSF1DKD1PKVtDSDJdT2MoW2NIXVtjSF1bY0hdW2NIXTIpYzJbQ0gyXWMoW2NIXWMxMyljKFtPSF0pW2NIXVtjSF0z

> <s_epik_cmdline>
J2VwaWtfcHl0aG9uJywgJy1waCcsICc3LjAnLCAnLXRuJywgJzgnLCAnLW1hJywgJzIwMCcsICctaW1hZScsICc8aW5maWxlLm1hZT4nLCAnLW9tYWUnLCAnPG91dGZpbGUubWFlPic=

> <r_lp_tautomer_probability>
1

> <r_epik_Ionization_Penalty>
  0.0002

> <r_epik_Ionization_Penalty_Charging>
  0.0000

> <r_epik_Ionization_Penalty_Neutral>
  0.0002

> <r_epik_State_Penalty>
 -0.0000

> <r_epik_Charging_Adjusted_Penalty>
0

> <i_epik_Tot_Q>
0

> <i_epik_Tot_abs_Q>
0

> <s_lp_Force_Field>
OPLS_2005

> <r_lp_Energy>
26.8776

> <b_lp_Chiralities_Consistent>
1

> <s_lp_Variant>
BACE_157.smi:1-1

> <chiral flag>
1

> <version>
0

> <s_i_glide_gridfile>
second_dock_grid_2

> <i_i_glide_lignum>
311

> <i_i_glide_rotatable_bonds>
10

> <r_i_docking_score>
-6.40307

> <r_i_glide_ligand_efficiency>
-0.168502

> <r_i_glide_ligand_efficiency_sa>
-0.566499

> <r_i_glide_ligand_efficiency_ln>
-1.38069

> <r_glide_XP_GScore>
-6.40307

> <r_i_glide_gscore>
-6.40307

> <r_i_glide_evdw>
-44.2916

> <r_i_glide_ecoul>
-10.0741

> <r_i_glide_energy>
-54.3656

> <r_i_glide_einternal>
11.643

> <r_i_glide_emodel>
-69.3557

> <r_glide_XP_HBond>
-0.56452

> <i_i_glide_confnum>
1

> <i_i_glide_posenum>
6

> <r_i_glide_eff_state_penalty>
-0

> <i_glide_XP_PoseRank>
1

$$$$
