BACE_41.smi:1
                    3D
 Structure written by MMmdl.
 83 85  0  0  1  0            999 V2000
   22.6923   40.0831   -4.1128 C   0  0  0  0  0  0
   21.8877   40.3940   -5.3825 C   0  0  0  0  0  0
   22.5707   39.8282   -6.6320 C   0  0  0  0  0  0
   21.5326   41.8649   -5.5861 C   0  0  0  0  0  0
   22.2635   42.9183   -4.9928 C   0  0  0  0  0  0
   21.8965   44.2553   -5.2395 C   0  0  0  0  0  0
   20.7938   44.5532   -6.0642 C   0  0  0  0  0  0
   20.0637   43.5116   -6.6730 C   0  0  0  0  0  0
   18.9140   43.8300   -7.6154 C   0  0  0  0  0  0
   17.6596   43.1403   -7.2396 N   0  3  0  0  0  0
   17.2480   42.0736   -8.1605 C   0  0  0  0  0  0
   15.8121   41.5793   -7.8754 C   0  0  1  0  0  0
   14.9337   42.6725   -8.0400 O   0  0  0  0  0  0
   15.3062   40.3578   -8.7049 C   0  0  2  0  0  0
   16.3739   39.3424   -9.1490 C   0  0  0  0  0  0
   16.8105   38.2821   -8.1167 C   0  0  2  0  0  0
   17.3948   38.8158   -6.7936 C   0  0  0  0  0  0
   17.7114   37.2241   -8.7887 C   0  0  0  0  0  0
   18.8648   37.7602   -9.6682 C   0  0  0  0  0  0
   20.0446   38.4146   -8.9281 C   0  0  0  0  0  0
   21.2571   38.6757   -9.8455 C   0  0  0  0  0  0
   20.9322   39.4092  -11.1580 C   0  0  0  0  0  0
   20.2879   40.7832  -10.9322 C   0  0  0  0  0  0
   19.9284   41.4632  -12.2527 C   0  0  0  0  0  0
   19.3546   42.7819  -12.0399 N   0  0  0  0  0  0
   18.0195   42.9883  -11.7018 C   0  0  0  0  0  0
   17.0696   41.9464  -11.6161 C   0  0  0  0  0  0
   15.7736   42.2658  -11.1619 C   0  0  0  0  0  0
   15.4576   43.6153  -10.9057 C   0  0  0  0  0  0
   16.4665   44.5818  -11.0487 C   0  0  0  0  0  0
   16.1860   46.0405  -10.7608 C   0  0  0  0  0  0
   17.7228   44.2738  -11.4277 N   0  0  0  0  0  0
   14.7177   41.2175  -11.0407 C   0  0  0  0  0  0
   14.0599   40.9492  -12.0400 O   0  0  0  0  0  0
   14.4404   40.6702   -9.8477 N   0  0  0  0  0  0
   20.4454   42.1759   -6.4320 C   0  0  0  0  0  0
   15.7639   41.3059   -6.8200 H   0  0  0  0  0  0
   14.6200   39.8188   -8.0479 H   0  0  0  0  0  0
   15.9023   37.7511   -7.8267 H   0  0  0  0  0  0
   22.1601   40.4014   -3.2172 H   0  0  0  0  0  0
   23.6713   40.5591   -4.1151 H   0  0  0  0  0  0
   22.8590   39.0082   -4.0382 H   0  0  0  0  0  0
   20.9351   39.8730   -5.2791 H   0  0  0  0  0  0
   22.0201   40.1658   -7.5023 H   0  0  0  0  0  0
   22.5492   38.7394   -6.6300 H   0  0  0  0  0  0
   23.6070   40.1491   -6.7639 H   0  0  0  0  0  0
   23.1108   42.7207   -4.3543 H   0  0  0  0  0  0
   22.4659   45.0546   -4.7901 H   0  0  0  0  0  0
   20.5340   45.5859   -6.2439 H   0  0  0  0  0  0
   18.7185   44.9021   -7.5971 H   0  0  0  0  0  0
   19.2153   43.5953   -8.6383 H   0  0  0  0  0  0
   17.7587   42.7297   -6.3157 H   0  0  0  0  0  0
   17.3254   42.4742   -9.1579 H   0  0  0  0  0  0
   17.9827   41.2776   -8.0841 H   0  0  0  0  0  0
   14.5058   42.7879   -7.1972 H   0  0  0  0  0  0
   15.9767   38.7759   -9.9939 H   0  0  0  0  0  0
   17.2230   39.8779   -9.5596 H   0  0  0  0  0  0
   18.2490   39.4720   -6.9211 H   0  0  0  0  0  0
   17.7250   37.9941   -6.1586 H   0  0  0  0  0  0
   16.6379   39.3475   -6.2189 H   0  0  0  0  0  0
   18.0710   36.5238   -8.0378 H   0  0  0  0  0  0
   17.0742   36.6237   -9.4382 H   0  0  0  0  0  0
   19.2601   36.9501  -10.2585 H   0  0  0  0  0  0
   18.4758   38.4261  -10.4341 H   0  0  0  0  0  0
   19.7320   39.3556   -8.4839 H   0  0  0  0  0  0
   20.3551   37.7708   -8.1029 H   0  0  0  0  0  0
   22.0217   39.2470   -9.3328 H   0  0  0  0  0  0
   21.7503   37.7317  -10.0402 H   0  0  0  0  0  0
   21.8541   39.5464  -11.7239 H   0  0  0  0  0  0
   20.2906   38.7933  -11.7889 H   0  0  0  0  0  0
   19.3880   40.6867  -10.3272 H   0  0  0  0  0  0
   20.9726   41.4152  -10.3650 H   0  0  0  0  0  0
   20.8333   41.5804  -12.8464 H   0  0  0  0  0  0
   19.2554   40.8387  -12.8410 H   0  0  0  0  0  0
   19.9710   43.5808  -12.0278 H   0  0  0  0  0  0
   17.3198   40.9210  -11.8445 H   0  0  0  0  0  0
   14.4640   43.8930  -10.5825 H   0  0  0  0  0  0
   15.3196   46.3797  -11.3288 H   0  0  0  0  0  0
   17.0348   46.6712  -11.0303 H   0  0  0  0  0  0
   15.9803   46.1814   -9.6998 H   0  0  0  0  0  0
   13.5593   40.1710   -9.8253 H   0  0  0  0  0  0
   19.9043   41.3681   -6.9003 H   0  0  0  0  0  0
   16.8975   43.8033   -7.2152 H   0  0  0  0  0  0
  1  2  1  0  0  0
  1 40  1  0  0  0
  1 41  1  0  0  0
  1 42  1  0  0  0
  2  3  1  0  0  0
  2  4  1  0  0  0
  2 43  1  0  0  0
  3 44  1  0  0  0
  3 45  1  0  0  0
  3 46  1  0  0  0
  4 36  1  0  0  0
  4  5  2  0  0  0
  5  6  1  0  0  0
  5 47  1  0  0  0
  6  7  2  0  0  0
  6 48  1  0  0  0
  7  8  1  0  0  0
  7 49  1  0  0  0
  8  9  1  0  0  0
  8 36  2  0  0  0
  9 10  1  0  0  0
  9 50  1  0  0  0
  9 51  1  0  0  0
 10 11  1  0  0  0
 10 52  1  0  0  0
 10 83  1  0  0  0
 11 12  1  0  0  0
 11 53  1  0  0  0
 11 54  1  0  0  0
 12 37  1  0  0  0
 12 13  1  0  0  0
 12 14  1  0  0  0
 13 55  1  0  0  0
 14 38  1  0  0  0
 14 35  1  0  0  0
 14 15  1  0  0  0
 15 16  1  0  0  0
 15 56  1  0  0  0
 15 57  1  0  0  0
 16 39  1  0  0  0
 16 17  1  0  0  0
 16 18  1  0  0  0
 17 58  1  0  0  0
 17 59  1  0  0  0
 17 60  1  0  0  0
 18 19  1  0  0  0
 18 61  1  0  0  0
 18 62  1  0  0  0
 19 20  1  0  0  0
 19 63  1  0  0  0
 19 64  1  0  0  0
 20 21  1  0  0  0
 20 65  1  0  0  0
 20 66  1  0  0  0
 21 22  1  0  0  0
 21 67  1  0  0  0
 21 68  1  0  0  0
 22 23  1  0  0  0
 22 69  1  0  0  0
 22 70  1  0  0  0
 23 24  1  0  0  0
 23 71  1  0  0  0
 23 72  1  0  0  0
 24 25  1  0  0  0
 24 73  1  0  0  0
 24 74  1  0  0  0
 25 26  1  0  0  0
 25 75  1  0  0  0
 26 32  1  0  0  0
 26 27  2  0  0  0
 27 28  1  0  0  0
 27 76  1  0  0  0
 28 29  2  0  0  0
 28 33  1  0  0  0
 29 30  1  0  0  0
 29 77  1  0  0  0
 30 31  1  0  0  0
 30 32  2  0  0  0
 31 78  1  0  0  0
 31 79  1  0  0  0
 31 80  1  0  0  0
 33 34  2  0  0  0
 33 35  1  0  0  0
 35 81  1  0  0  0
 36 82  1  0  0  0
M  CHG  1  10   1
M  END
> <s_m_source_file>
BACE_41.smi

> <i_m_source_file_index>
1

> <i_lp_mmshare_version>
42013

> <i_f3d_flags>
0

> <s_epik_input>
W0NIM11bQ0hdKFtDSDNdKWMxW2NIXVtjSF1bY0hdYyhbY0hdMSlbQ0gyXVtOSF1bQ0gyXVtDQEBIXShbT0hdKVtDQEBIXShbTkhdQyg9TyljKFtjSF1jMjMpW2NIXWMobjMpW0NIM10pW0NIMl1bQ0BIXShbQ0gzXSlbQ0gyXVtDSDJdW0NIMl1bQ0gyXVtDSDJdW0NIMl1bQ0gyXVtOSF0y

> <s_epik_cmdline>
J2VwaWtfcHl0aG9uJywgJy1waCcsICc3LjAnLCAnLXRuJywgJzgnLCAnLW1hJywgJzIwMCcsICctaW1hZScsICc8aW5maWxlLm1hZT4nLCAnLW9tYWUnLCAnPG91dGZpbGUubWFlPic=

> <r_lp_tautomer_probability>
1

> <r_epik_Ionization_Penalty>
  0.0295

> <r_epik_Ionization_Penalty_Charging>
  0.0173

> <r_epik_Ionization_Penalty_Neutral>
  0.0121

> <r_epik_State_Penalty>
  0.0228

> <r_epik_Charging_Adjusted_Penalty>
0.0401499

> <i_epik_Tot_Q>
1

> <i_epik_Tot_abs_Q>
1

> <s_lp_Force_Field>
OPLS_2005

> <r_lp_Energy>
32.9497

> <b_lp_Chiralities_Consistent>
1

> <s_lp_Variant>
BACE_41.smi:1-1

> <chiral flag>
1

> <version>
0

> <s_i_glide_gridfile>
second_dock_grid_2

> <i_i_glide_lignum>
73

> <i_i_glide_rotatable_bonds>
7

> <r_i_docking_score>
-6.78193

> <r_i_glide_ligand_efficiency>
-0.188387

> <r_i_glide_ligand_efficiency_sa>
-0.62204

> <r_i_glide_ligand_efficiency_ln>
-1.47963

> <r_glide_XP_GScore>
-6.80473

> <r_i_glide_gscore>
-6.80473

> <r_i_glide_evdw>
-32.9802

> <r_i_glide_ecoul>
-22.1128

> <r_i_glide_energy>
-55.093

> <r_i_glide_einternal>
9.22115

> <r_i_glide_emodel>
-69.3946

> <r_glide_XP_HBond>
-0.7

> <i_i_glide_confnum>
1

> <i_i_glide_posenum>
3

> <r_i_glide_eff_state_penalty>
0.0228

> <i_glide_XP_PoseRank>
1

$$$$
BACE_41.smi:1
                    3D
 Structure written by MMmdl.
 82 84  0  0  1  0            999 V2000
   21.4453   48.6604   -5.2572 C   0  0  0  0  0  0
   21.3661   47.2295   -5.8351 C   0  0  0  0  0  0
   22.6615   46.8496   -6.5730 C   0  0  0  0  0  0
   20.1534   47.0266   -6.7298 C   0  0  0  0  0  0
   19.8228   47.9795   -7.7192 C   0  0  0  0  0  0
   18.6942   47.7912   -8.5384 C   0  0  0  0  0  0
   17.8990   46.6448   -8.3827 C   0  0  0  0  0  0
   18.2316   45.6740   -7.4185 C   0  0  0  0  0  0
   17.3182   44.4774   -7.2444 C   0  0  0  0  0  0
   17.9556   43.1665   -7.3525 N   0  0  0  0  0  0
   17.3178   42.2887   -8.3396 C   0  0  0  0  0  0
   15.9085   41.7500   -7.9297 C   0  0  1  0  0  0
   14.9534   42.7835   -8.0400 O   0  0  0  0  0  0
   15.3324   40.5043   -8.6847 C   0  0  2  0  0  0
   16.3064   39.3661   -9.0369 C   0  0  0  0  0  0
   16.5688   38.3533   -7.9131 C   0  0  2  0  0  0
   17.1993   38.9499   -6.6425 C   0  0  0  0  0  0
   17.3254   37.1141   -8.4393 C   0  0  0  0  0  0
   18.5309   37.3836   -9.3385 C   0  0  0  0  0  0
   19.6657   38.1891   -8.6698 C   0  0  0  0  0  0
   20.9434   38.3273   -9.5087 C   0  0  0  0  0  0
   20.7305   38.9867  -10.8805 C   0  0  0  0  0  0
   20.2661   40.4446  -10.7841 C   0  0  0  0  0  0
   19.9969   41.0591  -12.1572 C   0  0  0  0  0  0
   19.5114   42.4224  -12.0392 N   0  0  0  0  0  0
   18.1710   42.7305  -11.8177 C   0  0  0  0  0  0
   17.1768   41.7569  -11.5605 C   0  0  0  0  0  0
   15.8752   42.1946  -11.2404 C   0  0  0  0  0  0
   15.6007   43.5762  -11.2679 C   0  0  0  0  0  0
   16.6443   44.4618  -11.5912 C   0  0  0  0  0  0
   16.3915   45.9491  -11.7048 C   0  0  0  0  0  0
   17.8991   44.0507  -11.8517 N   0  0  0  0  0  0
   14.7515   41.2273  -11.0584 C   0  0  0  0  0  0
   14.0599   40.9500  -12.0377 O   0  0  0  0  0  0
   14.4597   40.7686   -9.8339 N   0  0  0  0  0  0
   19.3569   45.8646   -6.5897 C   0  0  0  0  0  0
   15.9548   41.4887   -6.8725 H   0  0  0  0  0  0
   14.6129   40.0751   -7.9823 H   0  0  0  0  0  0
   15.5932   37.9688   -7.6107 H   0  0  0  0  0  0
   20.5117   48.9500   -4.7677 H   0  0  0  0  0  0
   21.6470   49.4008   -6.0341 H   0  0  0  0  0  0
   22.2456   48.7409   -4.5202 H   0  0  0  0  0  0
   21.2641   46.5473   -4.9863 H   0  0  0  0  0  0
   22.6258   45.8110   -6.9142 H   0  0  0  0  0  0
   23.5357   46.9519   -5.9283 H   0  0  0  0  0  0
   22.8180   47.4787   -7.4519 H   0  0  0  0  0  0
   20.4280   48.8618   -7.8549 H   0  0  0  0  0  0
   18.4459   48.5278   -9.2891 H   0  0  0  0  0  0
   17.0266   46.5166   -9.0061 H   0  0  0  0  0  0
   16.8603   44.5513   -6.2708 H   0  0  0  0  0  0
   16.5142   44.5903   -7.9706 H   0  0  0  0  0  0
   17.9071   42.6937   -6.4478 H   0  0  0  0  0  0
   17.2711   42.8278   -9.2764 H   0  0  0  0  0  0
   17.9947   41.4523   -8.4934 H   0  0  0  0  0  0
   14.8596   43.1192   -7.1506 H   0  0  0  0  0  0
   15.8820   38.7906   -9.8617 H   0  0  0  0  0  0
   17.2335   39.7680   -9.4353 H   0  0  0  0  0  0
   17.9757   39.6840   -6.8476 H   0  0  0  0  0  0
   17.6342   38.1716   -6.0114 H   0  0  0  0  0  0
   16.4349   39.4439   -6.0401 H   0  0  0  0  0  0
   17.6510   36.4846   -7.6113 H   0  0  0  0  0  0
   16.6201   36.5002   -8.9996 H   0  0  0  0  0  0
   18.8607   36.3995   -9.6415 H   0  0  0  0  0  0
   18.2030   37.8694  -10.2582 H   0  0  0  0  0  0
   19.3159   39.1879   -8.4336 H   0  0  0  0  0  0
   19.9179   37.7500   -7.7069 H   0  0  0  0  0  0
   21.6753   38.9080   -8.9455 H   0  0  0  0  0  0
   21.3983   37.3500   -9.6398 H   0  0  0  0  0  0
   21.6622   38.9534  -11.4372 H   0  0  0  0  0  0
   20.0245   38.4080  -11.4727 H   0  0  0  0  0  0
   19.3583   40.5079  -10.1924 H   0  0  0  0  0  0
   21.0129   41.0308  -10.2484 H   0  0  0  0  0  0
   20.9188   41.0721  -12.7385 H   0  0  0  0  0  0
   19.2898   40.4549  -12.7252 H   0  0  0  0  0  0
   20.1733   43.1841  -12.0739 H   0  0  0  0  0  0
   17.3966   40.6993  -11.5798 H   0  0  0  0  0  0
   14.6037   43.9448  -11.0753 H   0  0  0  0  0  0
   15.5480   46.2481  -11.0776 H   0  0  0  0  0  0
   16.1614   46.2055  -12.7417 H   0  0  0  0  0  0
   17.2671   46.5260  -11.3963 H   0  0  0  0  0  0
   13.5528   40.3232   -9.7592 H   0  0  0  0  0  0
   19.6076   45.1192   -5.8484 H   0  0  0  0  0  0
  1  2  1  0  0  0
  1 40  1  0  0  0
  1 41  1  0  0  0
  1 42  1  0  0  0
  2  3  1  0  0  0
  2  4  1  0  0  0
  2 43  1  0  0  0
  3 44  1  0  0  0
  3 45  1  0  0  0
  3 46  1  0  0  0
  4 36  1  0  0  0
  4  5  2  0  0  0
  5  6  1  0  0  0
  5 47  1  0  0  0
  6  7  2  0  0  0
  6 48  1  0  0  0
  7  8  1  0  0  0
  7 49  1  0  0  0
  8  9  1  0  0  0
  8 36  2  0  0  0
  9 10  1  0  0  0
  9 50  1  0  0  0
  9 51  1  0  0  0
 10 11  1  0  0  0
 10 52  1  0  0  0
 11 12  1  0  0  0
 11 53  1  0  0  0
 11 54  1  0  0  0
 12 37  1  0  0  0
 12 13  1  0  0  0
 12 14  1  0  0  0
 13 55  1  0  0  0
 14 38  1  0  0  0
 14 35  1  0  0  0
 14 15  1  0  0  0
 15 16  1  0  0  0
 15 56  1  0  0  0
 15 57  1  0  0  0
 16 39  1  0  0  0
 16 17  1  0  0  0
 16 18  1  0  0  0
 17 58  1  0  0  0
 17 59  1  0  0  0
 17 60  1  0  0  0
 18 19  1  0  0  0
 18 61  1  0  0  0
 18 62  1  0  0  0
 19 20  1  0  0  0
 19 63  1  0  0  0
 19 64  1  0  0  0
 20 21  1  0  0  0
 20 65  1  0  0  0
 20 66  1  0  0  0
 21 22  1  0  0  0
 21 67  1  0  0  0
 21 68  1  0  0  0
 22 23  1  0  0  0
 22 69  1  0  0  0
 22 70  1  0  0  0
 23 24  1  0  0  0
 23 71  1  0  0  0
 23 72  1  0  0  0
 24 25  1  0  0  0
 24 73  1  0  0  0
 24 74  1  0  0  0
 25 26  1  0  0  0
 25 75  1  0  0  0
 26 32  1  0  0  0
 26 27  2  0  0  0
 27 28  1  0  0  0
 27 76  1  0  0  0
 28 29  2  0  0  0
 28 33  1  0  0  0
 29 30  1  0  0  0
 29 77  1  0  0  0
 30 31  1  0  0  0
 30 32  2  0  0  0
 31 78  1  0  0  0
 31 79  1  0  0  0
 31 80  1  0  0  0
 33 34  2  0  0  0
 33 35  1  0  0  0
 35 81  1  0  0  0
 36 82  1  0  0  0
M  END
> <s_m_source_file>
BACE_41.smi

> <i_m_source_file_index>
1

> <i_lp_mmshare_version>
42013

> <i_f3d_flags>
0

> <s_epik_input>
W0NIM11bQ0hdKFtDSDNdKWMxW2NIXVtjSF1bY0hdYyhbY0hdMSlbQ0gyXVtOSF1bQ0gyXVtDQEBIXShbT0hdKVtDQEBIXShbTkhdQyg9TyljKFtjSF1jMjMpW2NIXWMobjMpW0NIM10pW0NIMl1bQ0BIXShbQ0gzXSlbQ0gyXVtDSDJdW0NIMl1bQ0gyXVtDSDJdW0NIMl1bQ0gyXVtOSF0y

> <s_epik_cmdline>
J2VwaWtfcHl0aG9uJywgJy1waCcsICc3LjAnLCAnLXRuJywgJzgnLCAnLW1hJywgJzIwMCcsICctaW1hZScsICc8aW5maWxlLm1hZT4nLCAnLW9tYWUnLCAnPG91dGZpbGUubWFlPic=

> <r_lp_tautomer_probability>
1

> <r_epik_Ionization_Penalty>
  2.1208

> <r_epik_Ionization_Penalty_Charging>
  0.0000

> <r_epik_Ionization_Penalty_Neutral>
  2.1208

> <r_epik_State_Penalty>
  2.3075

> <r_epik_Charging_Adjusted_Penalty>
2.30751

> <i_epik_Tot_Q>
0

> <i_epik_Tot_abs_Q>
0

> <s_lp_Force_Field>
OPLS_2005

> <r_lp_Energy>
42.6855

> <b_lp_Chiralities_Consistent>
1

> <s_lp_Variant>
BACE_41.smi:1-2

> <chiral flag>
1

> <version>
0

> <s_i_glide_gridfile>
second_dock_grid_2

> <i_i_glide_lignum>
74

> <i_i_glide_rotatable_bonds>
7

> <r_i_docking_score>
-1.6419

> <r_i_glide_ligand_efficiency>
-0.0456085

> <r_i_glide_ligand_efficiency_sa>
-0.150596

> <r_i_glide_ligand_efficiency_ln>
-0.358219

> <r_glide_XP_GScore>
-3.9494

> <r_i_glide_gscore>
-3.9494

> <r_i_glide_evdw>
-29.5007

> <r_i_glide_ecoul>
-21.8695

> <r_i_glide_energy>
-51.3702

> <r_i_glide_einternal>
5.01584

> <r_i_glide_emodel>
-58.2446

> <r_glide_XP_HBond>
-1.27847

> <i_i_glide_confnum>
1

> <i_i_glide_posenum>
8

> <r_i_glide_eff_state_penalty>
2.3075

> <i_glide_XP_PoseRank>
1

$$$$
BACE_41.smi:1
                    3D
 Structure written by MMmdl.
 84 86  0  0  1  0            999 V2000
   16.2885   37.4298   -9.3390 C   0  0  0  0  0  0
   16.8417   38.8390   -9.0686 C   0  0  0  0  0  0
   16.7527   39.7314  -10.3170 C   0  0  0  0  0  0
   18.2626   38.7941   -8.5174 C   0  0  0  0  0  0
   19.3057   38.2188   -9.2748 C   0  0  0  0  0  0
   20.6159   38.1821   -8.7613 C   0  0  0  0  0  0
   20.8949   38.7225   -7.4925 C   0  0  0  0  0  0
   19.8602   39.2945   -6.7246 C   0  0  0  0  0  0
   20.1624   39.8654   -5.3505 C   0  0  0  0  0  0
   20.4653   41.2956   -5.4514 N   0  3  0  0  0  0
   20.8627   41.9501   -4.1854 C   0  0  0  0  0  0
   22.0413   42.9300   -4.3932 C   0  0  1  0  0  0
   23.2154   42.1551   -4.4590 O   0  0  0  0  0  0
   21.8964   43.8747   -5.6237 C   0  0  2  0  0  0
   23.0755   44.8690   -5.7981 C   0  0  0  0  0  0
   24.2754   44.3415   -6.6276 C   0  0  2  0  0  0
   25.5418   45.1497   -6.2922 C   0  0  0  0  0  0
   23.9999   44.3810   -8.1504 C   0  0  0  0  0  0
   24.9345   43.4774   -8.9862 C   0  0  0  0  0  0
   24.4190   42.0362   -9.1395 C   0  0  0  0  0  0
   23.4024   41.8968  -10.2848 C   0  0  0  0  0  0
   22.5794   40.6043  -10.1923 C   0  0  0  0  0  0
   21.5407   40.4105  -11.3168 C   0  0  0  0  0  0
   20.5342   41.5600  -11.4941 C   0  0  0  0  0  0
   19.8524   41.9247  -10.2515 N   0  0  0  0  0  0
   20.0277   43.2064   -9.7002 C   0  0  0  0  0  0
   19.7984   43.4598   -8.3293 C   0  0  0  0  0  0
   20.0209   44.7603   -7.8120 C   0  0  0  0  0  0
   20.4346   45.7856   -8.6871 C   0  0  0  0  0  0
   20.6412   45.4867  -10.0470 C   0  0  0  0  0  0
   21.1028   46.5234  -11.0482 C   0  0  0  0  0  0
   20.4295   44.2309  -10.4898 N   0  3  0  0  0  0
   19.7883   45.0814   -6.3651 C   0  0  0  0  0  0
   18.8356   45.7801   -6.0340 O   0  0  0  0  0  0
   20.6524   44.6229   -5.4451 N   0  0  0  0  0  0
   18.5464   39.3254   -7.2405 C   0  0  0  0  0  0
   22.1333   43.5353   -3.4895 H   0  0  0  0  0  0
   21.8323   43.2683   -6.5250 H   0  0  0  0  0  0
   24.4706   43.3090   -6.3450 H   0  0  0  0  0  0
   16.2952   36.8245   -8.4340 H   0  0  0  0  0  0
   16.8755   36.9028  -10.0877 H   0  0  0  0  0  0
   15.2585   37.4736   -9.6927 H   0  0  0  0  0  0
   16.2031   39.2855   -8.3040 H   0  0  0  0  0  0
   17.0730   40.7494  -10.0936 H   0  0  0  0  0  0
   15.7273   39.7841  -10.6839 H   0  0  0  0  0  0
   17.3760   39.3526  -11.1273 H   0  0  0  0  0  0
   19.1041   37.8003  -10.2513 H   0  0  0  0  0  0
   21.4121   37.7366   -9.3403 H   0  0  0  0  0  0
   21.9050   38.6828   -7.1093 H   0  0  0  0  0  0
   19.3095   39.7473   -4.6817 H   0  0  0  0  0  0
   21.0221   39.3514   -4.9175 H   0  0  0  0  0  0
   21.2165   41.4024   -6.1167 H   0  0  0  0  0  0
   19.9912   42.4794   -3.7979 H   0  0  0  0  0  0
   21.1231   41.2111   -3.4249 H   0  0  0  0  0  0
   23.9610   42.7297   -4.3429 H   0  0  0  0  0  0
   22.7281   45.7888   -6.2710 H   0  0  0  0  0  0
   23.4160   45.1737   -4.8068 H   0  0  0  0  0  0
   25.4136   46.2069   -6.5273 H   0  0  0  0  0  0
   26.4138   44.7946   -6.8399 H   0  0  0  0  0  0
   25.7883   45.0749   -5.2362 H   0  0  0  0  0  0
   22.9666   44.1097   -8.3591 H   0  0  0  0  0  0
   24.0962   45.4104   -8.4961 H   0  0  0  0  0  0
   25.0694   43.9116   -9.9775 H   0  0  0  0  0  0
   25.9307   43.4553   -8.5468 H   0  0  0  0  0  0
   25.2576   41.3668   -9.3388 H   0  0  0  0  0  0
   23.9885   41.7018   -8.1954 H   0  0  0  0  0  0
   22.7361   42.7555  -10.2713 H   0  0  0  0  0  0
   23.9259   41.9389  -11.2400 H   0  0  0  0  0  0
   23.2586   39.7510  -10.1944 H   0  0  0  0  0  0
   22.0755   40.5830   -9.2267 H   0  0  0  0  0  0
   22.0599   40.2605  -12.2638 H   0  0  0  0  0  0
   20.9955   39.4834  -11.1469 H   0  0  0  0  0  0
   21.0557   42.3998  -11.9496 H   0  0  0  0  0  0
   19.7726   41.2580  -12.2142 H   0  0  0  0  0  0
   19.5868   41.1663   -9.6368 H   0  0  0  0  0  0
   19.4440   42.6689   -7.6883 H   0  0  0  0  0  0
   20.5978   46.7879   -8.3159 H   0  0  0  0  0  0
   21.2365   47.4970  -10.5750 H   0  0  0  0  0  0
   20.3712   46.6326  -11.8497 H   0  0  0  0  0  0
   22.0560   46.2277  -11.4873 H   0  0  0  0  0  0
   20.4606   44.9059   -4.4926 H   0  0  0  0  0  0
   17.7468   39.7493   -6.6493 H   0  0  0  0  0  0
   19.6172   41.7435   -5.7767 H   0  0  0  0  0  0
   20.5895   44.0443  -11.4791 H   0  0  0  0  0  0
  1  2  1  0  0  0
  1 40  1  0  0  0
  1 41  1  0  0  0
  1 42  1  0  0  0
  2  3  1  0  0  0
  2  4  1  0  0  0
  2 43  1  0  0  0
  3 44  1  0  0  0
  3 45  1  0  0  0
  3 46  1  0  0  0
  4 36  1  0  0  0
  4  5  2  0  0  0
  5  6  1  0  0  0
  5 47  1  0  0  0
  6  7  2  0  0  0
  6 48  1  0  0  0
  7  8  1  0  0  0
  7 49  1  0  0  0
  8  9  1  0  0  0
  8 36  2  0  0  0
  9 10  1  0  0  0
  9 50  1  0  0  0
  9 51  1  0  0  0
 10 11  1  0  0  0
 10 52  1  0  0  0
 10 83  1  0  0  0
 11 12  1  0  0  0
 11 53  1  0  0  0
 11 54  1  0  0  0
 12 37  1  0  0  0
 12 13  1  0  0  0
 12 14  1  0  0  0
 13 55  1  0  0  0
 14 38  1  0  0  0
 14 35  1  0  0  0
 14 15  1  0  0  0
 15 16  1  0  0  0
 15 56  1  0  0  0
 15 57  1  0  0  0
 16 39  1  0  0  0
 16 17  1  0  0  0
 16 18  1  0  0  0
 17 58  1  0  0  0
 17 59  1  0  0  0
 17 60  1  0  0  0
 18 19  1  0  0  0
 18 61  1  0  0  0
 18 62  1  0  0  0
 19 20  1  0  0  0
 19 63  1  0  0  0
 19 64  1  0  0  0
 20 21  1  0  0  0
 20 65  1  0  0  0
 20 66  1  0  0  0
 21 22  1  0  0  0
 21 67  1  0  0  0
 21 68  1  0  0  0
 22 23  1  0  0  0
 22 69  1  0  0  0
 22 70  1  0  0  0
 23 24  1  0  0  0
 23 71  1  0  0  0
 23 72  1  0  0  0
 24 25  1  0  0  0
 24 73  1  0  0  0
 24 74  1  0  0  0
 25 26  1  0  0  0
 25 75  1  0  0  0
 26 32  1  0  0  0
 26 27  2  0  0  0
 27 28  1  0  0  0
 27 76  1  0  0  0
 28 29  2  0  0  0
 28 33  1  0  0  0
 29 30  1  0  0  0
 29 77  1  0  0  0
 30 31  1  0  0  0
 30 32  2  0  0  0
 31 78  1  0  0  0
 31 79  1  0  0  0
 31 80  1  0  0  0
 32 84  1  0  0  0
 33 34  2  0  0  0
 33 35  1  0  0  0
 35 81  1  0  0  0
 36 82  1  0  0  0
M  CHG  2  10   1  32   1
M  END
> <s_m_source_file>
BACE_41.smi

> <i_m_source_file_index>
1

> <i_lp_mmshare_version>
42013

> <i_f3d_flags>
0

> <s_epik_input>
W0NIM11bQ0hdKFtDSDNdKWMxW2NIXVtjSF1bY0hdYyhbY0hdMSlbQ0gyXVtOSF1bQ0gyXVtDQEBIXShbT0hdKVtDQEBIXShbTkhdQyg9TyljKFtjSF1jMjMpW2NIXWMobjMpW0NIM10pW0NIMl1bQ0BIXShbQ0gzXSlbQ0gyXVtDSDJdW0NIMl1bQ0gyXVtDSDJdW0NIMl1bQ0gyXVtOSF0y

> <s_epik_cmdline>
J2VwaWtfcHl0aG9uJywgJy1waCcsICc3LjAnLCAnLXRuJywgJzgnLCAnLW1hJywgJzIwMCcsICctaW1hZScsICc8aW5maWxlLm1hZT4nLCAnLW9tYWUnLCAnPG91dGZpbGUubWFlPic=

> <r_lp_tautomer_probability>
0.999994

> <r_epik_Ionization_Penalty>
  2.3305

> <r_epik_Ionization_Penalty_Charging>
  2.3304

> <r_epik_Ionization_Penalty_Neutral>
  0.0000

> <r_epik_State_Penalty>
  2.4157

> <r_epik_Charging_Adjusted_Penalty>
4.74611

> <i_epik_Tot_Q>
2

> <i_epik_Tot_abs_Q>
2

> <s_lp_Force_Field>
OPLS_2005

> <r_lp_Energy>
39.3323

> <b_lp_Chiralities_Consistent>
1

> <s_lp_Variant>
BACE_41.smi:1-3

> <chiral flag>
1

> <version>
0

> <s_i_glide_gridfile>
second_dock_grid_2

> <i_i_glide_lignum>
75

> <i_i_glide_rotatable_bonds>
7

> <r_i_docking_score>
-1.66225

> <r_i_glide_ligand_efficiency>
-0.0461737

> <r_i_glide_ligand_efficiency_sa>
-0.152462

> <r_i_glide_ligand_efficiency_ln>
-0.362659

> <r_glide_XP_GScore>
-4.07795

> <r_i_glide_gscore>
-4.07795

> <r_i_glide_evdw>
-34.2237

> <r_i_glide_ecoul>
-12.151

> <r_i_glide_energy>
-46.3747

> <r_i_glide_einternal>
3.50866

> <r_i_glide_emodel>
-66.3937

> <r_glide_XP_HBond>
0

> <i_i_glide_confnum>
1

> <i_i_glide_posenum>
1

> <r_i_glide_eff_state_penalty>
2.4157

> <i_glide_XP_PoseRank>
1

$$$$
BACE_42.smi:1
                    3D
 Structure written by MMmdl.
 83 85  0  0  1  0            999 V2000
   21.0193   41.9875   -5.0677 C   0  0  0  0  0  0
   21.0751   40.4637   -4.8857 C   0  0  0  0  0  0
   22.3925   40.0290   -4.2213 C   0  0  0  0  0  0
   20.8189   39.7526   -6.2107 C   0  0  0  0  0  0
   21.7921   39.7536   -7.2323 C   0  0  0  0  0  0
   21.5210   39.1347   -8.4646 C   0  0  0  0  0  0
   20.2665   38.5403   -8.6959 C   0  0  0  0  0  0
   19.2781   38.5355   -7.6894 C   0  0  0  0  0  0
   17.9318   37.8635   -7.9619 C   0  0  0  0  0  0
   16.7364   38.5502   -7.4121 N   0  3  0  0  0  0
   16.6426   40.0195   -7.5729 C   0  0  0  0  0  0
   16.4904   40.4845   -9.0374 C   0  0  1  0  0  0
   15.1585   40.2492   -9.4582 O   0  0  0  0  0  0
   16.8916   41.9716   -9.2385 C   0  0  2  0  0  0
   16.1335   42.9596   -8.3039 C   0  0  0  0  0  0
   16.7301   44.3806   -8.1288 C   0  0  2  0  0  0
   16.5892   45.2634   -9.3816 C   0  0  0  0  0  0
   18.1759   44.3324   -7.5905 C   0  0  0  0  0  0
   18.6955   45.6668   -7.0186 C   0  0  0  0  0  0
   20.1525   45.5962   -6.5217 C   0  0  0  0  0  0
   21.2215   45.9910   -7.5597 C   0  0  0  0  0  0
   21.2230   45.1337   -8.8346 C   0  0  0  0  0  0
   22.4295   45.4091   -9.7439 C   0  0  0  0  0  0
   22.3719   44.6636  -11.0908 C   0  0  0  0  0  0
   22.4681   43.2116  -10.9469 N   0  0  0  0  0  0
   23.7822   42.6167  -10.7224 C   0  0  0  0  0  0
   21.3579   42.3596  -11.1662 C   0  0  0  0  0  0
   20.0323   42.8528  -11.2344 C   0  0  0  0  0  0
   18.9702   41.9549  -11.4587 C   0  0  0  0  0  0
   19.2592   40.5875  -11.6218 C   0  0  0  0  0  0
   20.6033   40.1854  -11.5585 C   0  0  0  0  0  0
   21.6180   41.0400  -11.3202 N   0  0  0  0  0  0
   17.5773   42.4688  -11.6399 C   0  0  0  0  0  0
   17.2600   42.9642  -12.7186 O   0  0  0  0  0  0
   16.6905   42.3620  -10.6360 N   0  0  0  0  0  0
   19.5783   39.1182   -6.4400 C   0  0  0  0  0  0
   17.1403   39.8905   -9.6793 H   0  0  0  0  0  0
   17.9537   42.0304   -9.0003 H   0  0  0  0  0  0
   16.1220   44.8538   -7.3566 H   0  0  0  0  0  0
   20.0600   42.2917   -5.4850 H   0  0  0  0  0  0
   21.7995   42.3386   -5.7441 H   0  0  0  0  0  0
   21.1450   42.5054   -4.1171 H   0  0  0  0  0  0
   20.2691   40.1923   -4.2030 H   0  0  0  0  0  0
   22.4286   38.9499   -4.0791 H   0  0  0  0  0  0
   22.5074   40.4922   -3.2405 H   0  0  0  0  0  0
   23.2598   40.3122   -4.8153 H   0  0  0  0  0  0
   22.7478   40.2332   -7.0817 H   0  0  0  0  0  0
   22.2760   39.1299   -9.2384 H   0  0  0  0  0  0
   20.0713   38.0734   -9.6498 H   0  0  0  0  0  0
   17.7960   37.7527   -9.0388 H   0  0  0  0  0  0
   17.9560   36.8522   -7.5577 H   0  0  0  0  0  0
   15.9151   38.1244   -7.8182 H   0  0  0  0  0  0
   15.7940   40.3548   -6.9743 H   0  0  0  0  0  0
   17.5144   40.4992   -7.1377 H   0  0  0  0  0  0
   14.5539   40.6869   -8.8748 H   0  0  0  0  0  0
   15.0919   43.0369   -8.6181 H   0  0  0  0  0  0
   16.0865   42.5430   -7.2986 H   0  0  0  0  0  0
   17.3058   44.9884  -10.1549 H   0  0  0  0  0  0
   16.7590   46.3131   -9.1454 H   0  0  0  0  0  0
   15.5881   45.1904   -9.8070 H   0  0  0  0  0  0
   18.2375   43.5760   -6.8067 H   0  0  0  0  0  0
   18.8355   43.9822   -8.3805 H   0  0  0  0  0  0
   18.5975   46.4726   -7.7461 H   0  0  0  0  0  0
   18.0602   45.9446   -6.1785 H   0  0  0  0  0  0
   20.2566   46.2745   -5.6745 H   0  0  0  0  0  0
   20.3664   44.6043   -6.1247 H   0  0  0  0  0  0
   21.0976   47.0401   -7.8296 H   0  0  0  0  0  0
   22.2000   45.9193   -7.0829 H   0  0  0  0  0  0
   21.2119   44.0770   -8.5616 H   0  0  0  0  0  0
   20.3104   45.3325   -9.3956 H   0  0  0  0  0  0
   22.4833   46.4796   -9.9463 H   0  0  0  0  0  0
   23.3501   45.1536   -9.2185 H   0  0  0  0  0  0
   21.4993   44.9657  -11.6660 H   0  0  0  0  0  0
   23.2209   44.9832  -11.6961 H   0  0  0  0  0  0
   24.1436   42.1511  -11.6394 H   0  0  0  0  0  0
   23.7405   41.8607   -9.9362 H   0  0  0  0  0  0
   24.5105   43.3712  -10.4225 H   0  0  0  0  0  0
   19.8039   43.9007  -11.1197 H   0  0  0  0  0  0
   18.4804   39.8680  -11.8307 H   0  0  0  0  0  0
   20.8730   39.1481  -11.6950 H   0  0  0  0  0  0
   15.7554   42.6734  -10.8478 H   0  0  0  0  0  0
   18.8391   39.1094   -5.6521 H   0  0  0  0  0  0
   16.6841   38.3274   -6.4250 H   0  0  0  0  0  0
  1  2  1  0  0  0
  1 40  1  0  0  0
  1 41  1  0  0  0
  1 42  1  0  0  0
  2  3  1  0  0  0
  2  4  1  0  0  0
  2 43  1  0  0  0
  3 44  1  0  0  0
  3 45  1  0  0  0
  3 46  1  0  0  0
  4 36  1  0  0  0
  4  5  2  0  0  0
  5  6  1  0  0  0
  5 47  1  0  0  0
  6  7  2  0  0  0
  6 48  1  0  0  0
  7  8  1  0  0  0
  7 49  1  0  0  0
  8  9  1  0  0  0
  8 36  2  0  0  0
  9 10  1  0  0  0
  9 50  1  0  0  0
  9 51  1  0  0  0
 10 11  1  0  0  0
 10 52  1  0  0  0
 10 83  1  0  0  0
 11 12  1  0  0  0
 11 53  1  0  0  0
 11 54  1  0  0  0
 12 37  1  0  0  0
 12 13  1  0  0  0
 12 14  1  0  0  0
 13 55  1  0  0  0
 14 38  1  0  0  0
 14 35  1  0  0  0
 14 15  1  0  0  0
 15 16  1  0  0  0
 15 56  1  0  0  0
 15 57  1  0  0  0
 16 39  1  0  0  0
 16 17  1  0  0  0
 16 18  1  0  0  0
 17 58  1  0  0  0
 17 59  1  0  0  0
 17 60  1  0  0  0
 18 19  1  0  0  0
 18 61  1  0  0  0
 18 62  1  0  0  0
 19 20  1  0  0  0
 19 63  1  0  0  0
 19 64  1  0  0  0
 20 21  1  0  0  0
 20 65  1  0  0  0
 20 66  1  0  0  0
 21 22  1  0  0  0
 21 67  1  0  0  0
 21 68  1  0  0  0
 22 23  1  0  0  0
 22 69  1  0  0  0
 22 70  1  0  0  0
 23 24  1  0  0  0
 23 71  1  0  0  0
 23 72  1  0  0  0
 24 25  1  0  0  0
 24 73  1  0  0  0
 24 74  1  0  0  0
 25 26  1  0  0  0
 25 27  1  0  0  0
 26 75  1  0  0  0
 26 76  1  0  0  0
 26 77  1  0  0  0
 27 32  1  0  0  0
 27 28  2  0  0  0
 28 29  1  0  0  0
 28 78  1  0  0  0
 29 30  2  0  0  0
 29 33  1  0  0  0
 30 31  1  0  0  0
 30 79  1  0  0  0
 31 32  2  0  0  0
 31 80  1  0  0  0
 33 34  2  0  0  0
 33 35  1  0  0  0
 35 81  1  0  0  0
 36 82  1  0  0  0
M  CHG  1  10   1
M  END
> <s_m_source_file>
BACE_42.smi

> <i_m_source_file_index>
1

> <i_lp_mmshare_version>
42013

> <i_f3d_flags>
0

> <s_epik_input>
W0NIM11bQ0hdKFtDSDNdKWMxW2NIXVtjSF1bY0hdYyhbY0hdMSlbQ0gyXVtOSF1bQ0gyXVtDQEBIXShbT0hdKVtDQEBIXShbTkhdQyg9TyljKFtjSF1jMjMpW2NIXVtjSF1uMylbQ0gyXVtDQEhdKFtDSDNdKVtDSDJdW0NIMl1bQ0gyXVtDSDJdW0NIMl1bQ0gyXVtDSDJdTjJbQ0gzXQ==

> <s_epik_cmdline>
J2VwaWtfcHl0aG9uJywgJy1waCcsICc3LjAnLCAnLXRuJywgJzgnLCAnLW1hJywgJzIwMCcsICctaW1hZScsICc8aW5maWxlLm1hZT4nLCAnLW9tYWUnLCAnPG91dGZpbGUubWFlPic=

> <r_lp_tautomer_probability>
1

> <r_epik_Ionization_Penalty>
  0.0243

> <r_epik_Ionization_Penalty_Charging>
  0.0173

> <r_epik_Ionization_Penalty_Neutral>
  0.0070

> <r_epik_State_Penalty>
  0.0181

> <r_epik_Charging_Adjusted_Penalty>
0.0354689

> <i_epik_Tot_Q>
1

> <i_epik_Tot_abs_Q>
1

> <s_lp_Force_Field>
OPLS_2005

> <r_lp_Energy>
34.5079

> <b_lp_Chiralities_Consistent>
1

> <s_lp_Variant>
BACE_42.smi:1-1

> <chiral flag>
1

> <version>
0

> <s_i_glide_gridfile>
second_dock_grid_2

> <i_i_glide_lignum>
76

> <i_i_glide_rotatable_bonds>
7

> <r_i_docking_score>
-5.8873

> <r_i_glide_ligand_efficiency>
-0.163536

> <r_i_glide_ligand_efficiency_sa>
-0.539984

> <r_i_glide_ligand_efficiency_ln>
-1.28445

> <r_glide_XP_GScore>
-5.9054

> <r_i_glide_gscore>
-5.9054

> <r_i_glide_evdw>
-38.692

> <r_i_glide_ecoul>
-13.127

> <r_i_glide_energy>
-51.819

> <r_i_glide_einternal>
6.08245

> <r_i_glide_emodel>
-68.1554

> <r_glide_XP_HBond>
-0.672053

> <i_i_glide_confnum>
1

> <i_i_glide_posenum>
5

> <r_i_glide_eff_state_penalty>
0.0181

> <i_glide_XP_PoseRank>
1

$$$$
BACE_42.smi:1
                    3D
 Structure written by MMmdl.
 82 84  0  0  1  0            999 V2000
   30.8944   45.8338  -10.0803 C   0  0  0  0  0  0
   30.5970   44.6101   -9.2009 C   0  0  0  0  0  0
   31.8827   44.0120   -8.6103 C   0  0  0  0  0  0
   29.7583   43.5863   -9.9579 C   0  0  0  0  0  0
   30.3399   42.6916  -10.8832 C   0  0  0  0  0  0
   29.5336   41.7757  -11.5853 C   0  0  0  0  0  0
   28.1429   41.7505  -11.3728 C   0  0  0  0  0  0
   27.5494   42.6368  -10.4459 C   0  0  0  0  0  0
   26.0513   42.6624  -10.1966 C   0  0  0  0  0  0
   25.3750   41.3895  -10.4400 N   0  0  0  0  0  0
   24.1400   41.1875   -9.6777 C   0  0  0  0  0  0
   23.0534   42.2704   -9.9314 C   0  0  1  0  0  0
   22.5393   42.0937  -11.2400 O   0  0  0  0  0  0
   21.8330   42.2817   -8.9529 C   0  0  2  0  0  0
   21.4435   43.7421   -8.6004 C   0  0  0  0  0  0
   20.0379   44.0060   -8.0040 C   0  0  2  0  0  0
   19.8584   43.4627   -6.5743 C   0  0  0  0  0  0
   18.9012   43.5621   -8.9482 C   0  0  0  0  0  0
   17.5541   44.2651   -8.6790 C   0  0  0  0  0  0
   16.3918   43.6978   -9.5195 C   0  0  0  0  0  0
   15.5331   42.6451   -8.7903 C   0  0  0  0  0  0
   16.3356   41.4435   -8.2729 C   0  0  0  0  0  0
   15.4750   40.3521   -7.6248 C   0  0  0  0  0  0
   16.3283   39.2223   -7.0187 C   0  0  0  0  0  0
   17.0106   38.4244   -8.0405 N   0  0  0  0  0  0
   16.2015   37.5160   -8.8400 C   0  0  0  0  0  0
   18.3214   38.7086   -8.4779 C   0  0  0  0  0  0
   19.2627   39.3815   -7.6610 C   0  0  0  0  0  0
   20.5510   39.6530   -8.1672 C   0  0  0  0  0  0
   20.8650   39.2126   -9.4699 C   0  0  0  0  0  0
   19.8720   38.5498  -10.2087 C   0  0  0  0  0  0
   18.6404   38.3028   -9.7306 N   0  0  0  0  0  0
   21.5647   40.3516   -7.3060 C   0  0  0  0  0  0
   21.8674   39.8828   -6.2113 O   0  0  0  0  0  0
   22.1004   41.5133   -7.7303 N   0  0  0  0  0  0
   28.3643   43.5510   -9.7480 C   0  0  0  0  0  0
   23.5260   43.2506   -9.8922 H   0  0  0  0  0  0
   20.9799   41.8464   -9.4706 H   0  0  0  0  0  0
   19.9699   45.0912   -7.9230 H   0  0  0  0  0  0
   29.9712   46.3001  -10.4271 H   0  0  0  0  0  0
   31.4761   45.5586  -10.9605 H   0  0  0  0  0  0
   31.4571   46.5878   -9.5284 H   0  0  0  0  0  0
   29.9998   44.9559   -8.3549 H   0  0  0  0  0  0
   31.6605   43.1167   -8.0294 H   0  0  0  0  0  0
   32.3728   44.7239   -7.9455 H   0  0  0  0  0  0
   32.5974   43.7498   -9.3895 H   0  0  0  0  0  0
   31.4039   42.7064  -11.0698 H   0  0  0  0  0  0
   29.9782   41.0929  -12.2962 H   0  0  0  0  0  0
   27.5416   41.0395  -11.9212 H   0  0  0  0  0  0
   25.9084   42.9618   -9.1567 H   0  0  0  0  0  0
   25.6121   43.4501  -10.8096 H   0  0  0  0  0  0
   25.1549   41.3115  -11.4297 H   0  0  0  0  0  0
   23.7449   40.1960   -9.8884 H   0  0  0  0  0  0
   24.4102   41.1774   -8.6214 H   0  0  0  0  0  0
   23.2061   41.7021  -11.7917 H   0  0  0  0  0  0
   22.1997   44.1675   -7.9385 H   0  0  0  0  0  0
   21.5045   44.3363   -9.5130 H   0  0  0  0  0  0
   19.7100   42.3840   -6.5659 H   0  0  0  0  0  0
   18.9876   43.9039   -6.0902 H   0  0  0  0  0  0
   20.7232   43.6901   -5.9504 H   0  0  0  0  0  0
   19.1886   43.7691   -9.9805 H   0  0  0  0  0  0
   18.7937   42.4789   -8.8884 H   0  0  0  0  0  0
   17.2939   44.2230   -7.6212 H   0  0  0  0  0  0
   17.6740   45.3233   -8.9137 H   0  0  0  0  0  0
   15.7362   44.5209   -9.8042 H   0  0  0  0  0  0
   16.7714   43.2878  -10.4565 H   0  0  0  0  0  0
   15.0106   43.1157   -7.9586 H   0  0  0  0  0  0
   14.7579   42.2912   -9.4702 H   0  0  0  0  0  0
   16.8997   41.0160   -9.1025 H   0  0  0  0  0  0
   17.0635   41.7803   -7.5349 H   0  0  0  0  0  0
   14.8628   40.7943   -6.8351 H   0  0  0  0  0  0
   14.7692   39.9450   -8.3488 H   0  0  0  0  0  0
   17.0171   39.6264   -6.2841 H   0  0  0  0  0  0
   15.6809   38.5564   -6.4455 H   0  0  0  0  0  0
   16.6992   36.5536   -8.9597 H   0  0  0  0  0  0
   15.9895   37.9375   -9.8229 H   0  0  0  0  0  0
   15.2600   37.3510   -8.3311 H   0  0  0  0  0  0
   19.0254   39.6925   -6.6543 H   0  0  0  0  0  0
   21.8385   39.3670   -9.9025 H   0  0  0  0  0  0
   20.0651   38.2066  -11.2144 H   0  0  0  0  0  0
   22.7588   41.9312   -7.0918 H   0  0  0  0  0  0
   27.9105   44.2390   -9.0504 H   0  0  0  0  0  0
  1  2  1  0  0  0
  1 40  1  0  0  0
  1 41  1  0  0  0
  1 42  1  0  0  0
  2  3  1  0  0  0
  2  4  1  0  0  0
  2 43  1  0  0  0
  3 44  1  0  0  0
  3 45  1  0  0  0
  3 46  1  0  0  0
  4 36  1  0  0  0
  4  5  2  0  0  0
  5  6  1  0  0  0
  5 47  1  0  0  0
  6  7  2  0  0  0
  6 48  1  0  0  0
  7  8  1  0  0  0
  7 49  1  0  0  0
  8  9  1  0  0  0
  8 36  2  0  0  0
  9 10  1  0  0  0
  9 50  1  0  0  0
  9 51  1  0  0  0
 10 11  1  0  0  0
 10 52  1  0  0  0
 11 12  1  0  0  0
 11 53  1  0  0  0
 11 54  1  0  0  0
 12 37  1  0  0  0
 12 13  1  0  0  0
 12 14  1  0  0  0
 13 55  1  0  0  0
 14 38  1  0  0  0
 14 35  1  0  0  0
 14 15  1  0  0  0
 15 16  1  0  0  0
 15 56  1  0  0  0
 15 57  1  0  0  0
 16 39  1  0  0  0
 16 17  1  0  0  0
 16 18  1  0  0  0
 17 58  1  0  0  0
 17 59  1  0  0  0
 17 60  1  0  0  0
 18 19  1  0  0  0
 18 61  1  0  0  0
 18 62  1  0  0  0
 19 20  1  0  0  0
 19 63  1  0  0  0
 19 64  1  0  0  0
 20 21  1  0  0  0
 20 65  1  0  0  0
 20 66  1  0  0  0
 21 22  1  0  0  0
 21 67  1  0  0  0
 21 68  1  0  0  0
 22 23  1  0  0  0
 22 69  1  0  0  0
 22 70  1  0  0  0
 23 24  1  0  0  0
 23 71  1  0  0  0
 23 72  1  0  0  0
 24 25  1  0  0  0
 24 73  1  0  0  0
 24 74  1  0  0  0
 25 26  1  0  0  0
 25 27  1  0  0  0
 26 75  1  0  0  0
 26 76  1  0  0  0
 26 77  1  0  0  0
 27 32  1  0  0  0
 27 28  2  0  0  0
 28 29  1  0  0  0
 28 78  1  0  0  0
 29 30  2  0  0  0
 29 33  1  0  0  0
 30 31  1  0  0  0
 30 79  1  0  0  0
 31 32  2  0  0  0
 31 80  1  0  0  0
 33 34  2  0  0  0
 33 35  1  0  0  0
 35 81  1  0  0  0
 36 82  1  0  0  0
M  END
> <s_m_source_file>
BACE_42.smi

> <i_m_source_file_index>
1

> <i_lp_mmshare_version>
42013

> <i_f3d_flags>
0

> <s_epik_input>
W0NIM11bQ0hdKFtDSDNdKWMxW2NIXVtjSF1bY0hdYyhbY0hdMSlbQ0gyXVtOSF1bQ0gyXVtDQEBIXShbT0hdKVtDQEBIXShbTkhdQyg9TyljKFtjSF1jMjMpW2NIXVtjSF1uMylbQ0gyXVtDQEhdKFtDSDNdKVtDSDJdW0NIMl1bQ0gyXVtDSDJdW0NIMl1bQ0gyXVtDSDJdTjJbQ0gzXQ==

> <s_epik_cmdline>
J2VwaWtfcHl0aG9uJywgJy1waCcsICc3LjAnLCAnLXRuJywgJzgnLCAnLW1hJywgJzIwMCcsICctaW1hZScsICc8aW5maWxlLm1hZT4nLCAnLW9tYWUnLCAnPG91dGZpbGUubWFlPic=

> <r_lp_tautomer_probability>
1

> <r_epik_Ionization_Penalty>
  2.1126

> <r_epik_Ionization_Penalty_Charging>
  0.0000

> <r_epik_Ionization_Penalty_Neutral>
  2.1126

> <r_epik_State_Penalty>
  2.3028

> <r_epik_Charging_Adjusted_Penalty>
2.30283

> <i_epik_Tot_Q>
0

> <i_epik_Tot_abs_Q>
0

> <s_lp_Force_Field>
OPLS_2005

> <r_lp_Energy>
44.6028

> <b_lp_Chiralities_Consistent>
1

> <s_lp_Variant>
BACE_42.smi:1-2

> <chiral flag>
1

> <version>
0

> <s_i_glide_gridfile>
second_dock_grid_2

> <i_i_glide_lignum>
77

> <i_i_glide_rotatable_bonds>
7

> <r_i_docking_score>
-1.84375

> <r_i_glide_ligand_efficiency>
-0.0512152

> <r_i_glide_ligand_efficiency_sa>
-0.169109

> <r_i_glide_ligand_efficiency_ln>
-0.402256

> <r_glide_XP_GScore>
-4.14655

> <r_i_glide_gscore>
-4.14655

> <r_i_glide_evdw>
-40.8028

> <r_i_glide_ecoul>
-5.20951

> <r_i_glide_energy>
-46.0123

> <r_i_glide_einternal>
2.88919

> <r_i_glide_emodel>
-59.9986

> <r_glide_XP_HBond>
-1.73106

> <i_i_glide_confnum>
1

> <i_i_glide_posenum>
8

> <r_i_glide_eff_state_penalty>
2.3028

> <i_glide_XP_PoseRank>
1

$$$$
BACE_43.smi:1
                    3D
 Structure written by MMmdl.
 84 86  0  0  1  0            999 V2000
   18.0055   45.9515  -12.8466 C   0  0  0  0  0  0
   16.9239   45.1252  -12.4376 O   0  0  0  0  0  0
   17.2239   43.8429  -12.0376 C   0  0  0  0  0  0
   18.4586   43.2037  -12.2795 C   0  0  0  0  0  0
   18.6579   41.9002  -11.7832 C   0  0  0  0  0  0
   17.6073   41.2783  -11.0781 C   0  0  0  0  0  0
   16.3857   41.9734  -10.9247 C   0  0  0  0  0  0
   15.2526   41.4227  -10.3086 N   0  0  0  0  0  0
   15.2219   40.0683   -9.7734 C   0  0  0  0  0  0
   15.5090   40.0331   -8.2627 C   0  0  0  0  0  0
   15.8161   38.6116   -7.7643 C   0  0  0  0  0  0
   17.2701   38.1899   -8.0531 C   0  0  0  0  0  0
   18.1534   38.1338   -6.7950 C   0  0  0  0  0  0
   19.6341   38.3973   -7.0910 C   0  0  0  0  0  0
   20.0089   39.8675   -6.8484 C   0  0  0  0  0  0
   21.4281   40.2690   -7.3024 C   0  0  1  0  0  0
   22.4868   39.3775   -6.6461 C   0  0  0  0  0  0
   21.6250   40.3203   -8.8405 C   0  0  0  0  0  0
   20.7100   41.2745   -9.6606 C   0  0  2  0  0  0
   20.7434   40.8273  -11.0567 N   0  0  0  0  0  0
   19.9401   41.1799  -12.0744 C   0  0  0  0  0  0
   20.2480   40.9475  -13.2399 O   0  0  0  0  0  0
   21.0751   42.7937   -9.6021 C   0  0  2  0  0  0
   22.3042   43.0297  -10.2622 O   0  0  0  0  0  0
   21.1596   43.4673   -8.2192 C   0  0  0  0  0  0
   19.9606   43.2251   -7.3866 N   0  3  0  0  0  0
   20.0081   43.8663   -6.0585 C   0  0  0  0  0  0
   19.7558   45.3590   -6.1679 C   0  0  0  0  0  0
   20.8042   46.2731   -5.9308 C   0  0  0  0  0  0
   20.5850   47.6636   -6.0453 C   0  0  0  0  0  0
   19.3060   48.1337   -6.4177 C   0  0  0  0  0  0
   18.2597   47.2251   -6.6580 C   0  0  0  0  0  0
   18.4800   45.8406   -6.5298 C   0  0  0  0  0  0
   21.7354   48.6336   -5.8029 C   0  0  0  0  0  0
   21.3568   49.7571   -4.8242 C   0  0  0  0  0  0
   22.2730   49.1959   -7.1268 C   0  0  0  0  0  0
   16.2068   43.2243  -11.4014 N   0  0  0  0  0  0
   21.6198   41.2514   -6.8871 H   0  0  0  0  0  0
   19.6860   41.1451   -9.3186 H   0  0  0  0  0  0
   20.3237   43.3495  -10.1621 H   0  0  0  0  0  0
   17.6389   46.9608  -13.0367 H   0  0  0  0  0  0
   18.4598   45.5878  -13.7685 H   0  0  0  0  0  0
   18.7722   46.0182  -12.0726 H   0  0  0  0  0  0
   19.2506   43.6895  -12.8268 H   0  0  0  0  0  0
   17.7491   40.2743  -10.7086 H   0  0  0  0  0  0
   14.4306   41.9962  -10.1878 H   0  0  0  0  0  0
   14.2258   39.6589   -9.9513 H   0  0  0  0  0  0
   15.8993   39.4148  -10.3209 H   0  0  0  0  0  0
   16.3386   40.6942   -8.0084 H   0  0  0  0  0  0
   14.6408   40.4238   -7.7297 H   0  0  0  0  0  0
   15.6119   38.5508   -6.6943 H   0  0  0  0  0  0
   15.1227   37.9048   -8.2223 H   0  0  0  0  0  0
   17.2772   37.2088   -8.5278 H   0  0  0  0  0  0
   17.7101   38.8687   -8.7834 H   0  0  0  0  0  0
   17.8006   38.8363   -6.0384 H   0  0  0  0  0  0
   18.0601   37.1481   -6.3401 H   0  0  0  0  0  0
   20.2342   37.7622   -6.4404 H   0  0  0  0  0  0
   19.8704   38.0841   -8.1078 H   0  0  0  0  0  0
   19.2543   40.5032   -7.3049 H   0  0  0  0  0  0
   19.9211   40.0612   -5.7778 H   0  0  0  0  0  0
   22.4427   38.3582   -7.0243 H   0  0  0  0  0  0
   22.3578   39.3417   -5.5626 H   0  0  0  0  0  0
   23.4928   39.7481   -6.8454 H   0  0  0  0  0  0
   22.6672   40.5568   -9.0569 H   0  0  0  0  0  0
   21.4932   39.3050   -9.2178 H   0  0  0  0  0  0
   21.5735   40.3238  -11.3338 H   0  0  0  0  0  0
   22.9568   42.4234   -9.9412 H   0  0  0  0  0  0
   22.0599   43.1549   -7.6911 H   0  0  0  0  0  0
   21.2705   44.5431   -8.3665 H   0  0  0  0  0  0
   19.1361   43.5479   -7.8722 H   0  0  0  0  0  0
   19.2601   43.4105   -5.4132 H   0  0  0  0  0  0
   20.9694   43.6686   -5.5803 H   0  0  0  0  0  0
   21.7845   45.9047   -5.6609 H   0  0  0  0  0  0
   19.1234   49.1924   -6.5288 H   0  0  0  0  0  0
   17.2853   47.5901   -6.9489 H   0  0  0  0  0  0
   17.6704   45.1512   -6.7230 H   0  0  0  0  0  0
   22.5472   48.0722   -5.3378 H   0  0  0  0  0  0
   20.9838   49.3502   -3.8839 H   0  0  0  0  0  0
   20.5841   50.4098   -5.2304 H   0  0  0  0  0  0
   22.2193   50.3802   -4.5881 H   0  0  0  0  0  0
   22.6058   48.3919   -7.7835 H   0  0  0  0  0  0
   23.1257   49.8543   -6.9581 H   0  0  0  0  0  0
   21.5097   49.7633   -7.6596 H   0  0  0  0  0  0
   19.8737   42.2291   -7.2386 H   0  0  0  0  0  0
  1  2  1  0  0  0
  1 41  1  0  0  0
  1 42  1  0  0  0
  1 43  1  0  0  0
  2  3  1  0  0  0
  3 37  1  0  0  0
  3  4  2  0  0  0
  4  5  1  0  0  0
  4 44  1  0  0  0
  5 21  1  0  0  0
  5  6  2  0  0  0
  6  7  1  0  0  0
  6 45  1  0  0  0
  7  8  1  0  0  0
  7 37  2  0  0  0
  8  9  1  0  0  0
  8 46  1  0  0  0
  9 10  1  0  0  0
  9 47  1  0  0  0
  9 48  1  0  0  0
 10 11  1  0  0  0
 10 49  1  0  0  0
 10 50  1  0  0  0
 11 12  1  0  0  0
 11 51  1  0  0  0
 11 52  1  0  0  0
 12 13  1  0  0  0
 12 53  1  0  0  0
 12 54  1  0  0  0
 13 14  1  0  0  0
 13 55  1  0  0  0
 13 56  1  0  0  0
 14 15  1  0  0  0
 14 57  1  0  0  0
 14 58  1  0  0  0
 15 16  1  0  0  0
 15 59  1  0  0  0
 15 60  1  0  0  0
 16 38  1  0  0  0
 16 17  1  0  0  0
 16 18  1  0  0  0
 17 61  1  0  0  0
 17 62  1  0  0  0
 17 63  1  0  0  0
 18 19  1  0  0  0
 18 64  1  0  0  0
 18 65  1  0  0  0
 19 39  1  0  0  0
 19 20  1  0  0  0
 19 23  1  0  0  0
 20 21  1  0  0  0
 20 66  1  0  0  0
 21 22  2  0  0  0
 23 40  1  0  0  0
 23 24  1  0  0  0
 23 25  1  0  0  0
 24 67  1  0  0  0
 25 26  1  0  0  0
 25 68  1  0  0  0
 25 69  1  0  0  0
 26 27  1  0  0  0
 26 70  1  0  0  0
 26 84  1  0  0  0
 27 28  1  0  0  0
 27 71  1  0  0  0
 27 72  1  0  0  0
 28 33  1  0  0  0
 28 29  2  0  0  0
 29 30  1  0  0  0
 29 73  1  0  0  0
 30 31  2  0  0  0
 30 34  1  0  0  0
 31 32  1  0  0  0
 31 74  1  0  0  0
 32 33  2  0  0  0
 32 75  1  0  0  0
 33 76  1  0  0  0
 34 35  1  0  0  0
 34 36  1  0  0  0
 34 77  1  0  0  0
 35 78  1  0  0  0
 35 79  1  0  0  0
 35 80  1  0  0  0
 36 81  1  0  0  0
 36 82  1  0  0  0
 36 83  1  0  0  0
M  CHG  1  26   1
M  END
> <s_m_source_file>
BACE_43.smi

> <i_m_source_file_index>
1

> <i_lp_mmshare_version>
42013

> <i_f3d_flags>
0

> <s_epik_input>
W0NIM11PYyhbY0hdYzEyKW5jKFtjSF0xKVtOSF1bQ0gyXVtDSDJdW0NIMl1bQ0gyXVtDSDJdW0NIMl1bQ0gyXVtDQEBIXShbQ0gzXSlbQ0gyXVtDQEhdKFtOSF1DMj1PKVtDQEhdKFtPSF0pW0NIMl1bTkhdW0NIMl1jM1tjSF1jKFtDSF0oW0NIM10pW0NIM10pW2NIXVtjSF1bY0hdMw==

> <s_epik_cmdline>
J2VwaWtfcHl0aG9uJywgJy1waCcsICc3LjAnLCAnLXRuJywgJzgnLCAnLW1hJywgJzIwMCcsICctaW1hZScsICc8aW5maWxlLm1hZT4nLCAnLW9tYWUnLCAnPG91dGZpbGUubWFlPic=

> <r_lp_tautomer_probability>
1

> <r_epik_Ionization_Penalty>
  0.0174

> <r_epik_Ionization_Penalty_Charging>
  0.0173

> <r_epik_Ionization_Penalty_Neutral>
  0.0000

> <r_epik_State_Penalty>
  0.0137

> <r_epik_Charging_Adjusted_Penalty>
0.0310503

> <i_epik_Tot_Q>
1

> <i_epik_Tot_abs_Q>
1

> <s_lp_Force_Field>
OPLS_2005

> <r_lp_Energy>
29.7454

> <b_lp_Chiralities_Consistent>
1

> <s_lp_Variant>
BACE_43.smi:1-1

> <chiral flag>
1

> <version>
0

> <s_i_glide_gridfile>
second_dock_grid_2

> <i_i_glide_lignum>
78

> <i_i_glide_rotatable_bonds>
8

> <r_i_docking_score>
-3.04903

> <r_i_glide_ligand_efficiency>
-0.0824062

> <r_i_glide_ligand_efficiency_sa>
-0.274596

> <r_i_glide_ligand_efficiency_ln>
-0.661263

> <r_glide_XP_GScore>
-3.06273

> <r_i_glide_gscore>
-3.06273

> <r_i_glide_evdw>
-40.8312

> <r_i_glide_ecoul>
-10.5484

> <r_i_glide_energy>
-51.3796

> <r_i_glide_einternal>
6.46836

> <r_i_glide_emodel>
-70.9983

> <r_glide_XP_HBond>
-1.01302

> <i_i_glide_confnum>
1

> <i_i_glide_posenum>
2

> <r_i_glide_eff_state_penalty>
0.0137

> <i_glide_XP_PoseRank>
1

$$$$
BACE_43.smi:1
                    3D
 Structure written by MMmdl.
 83 85  0  0  1  0            999 V2000
   15.6203   45.7688  -12.1475 C   0  0  0  0  0  0
   16.7721   45.0796  -12.6155 O   0  0  0  0  0  0
   17.0779   43.8628  -12.0435 C   0  0  0  0  0  0
   18.2436   43.1984  -12.4609 C   0  0  0  0  0  0
   18.6014   41.9896  -11.8316 C   0  0  0  0  0  0
   17.7286   41.4607  -10.8573 C   0  0  0  0  0  0
   16.5382   42.1617  -10.5527 C   0  0  0  0  0  0
   15.5734   41.6990   -9.6485 N   0  0  0  0  0  0
   15.5605   40.3200   -9.1847 C   0  0  0  0  0  0
   16.1083   40.1860   -7.7565 C   0  0  0  0  0  0
   16.4421   38.7276   -7.4169 C   0  0  0  0  0  0
   17.8824   38.3471   -7.8048 C   0  0  0  0  0  0
   18.8693   38.5509   -6.6444 C   0  0  0  0  0  0
   20.3086   38.8462   -7.0997 C   0  0  0  0  0  0
   20.6308   40.3544   -7.0511 C   0  0  0  0  0  0
   21.9588   40.7875   -7.7153 C   0  0  1  0  0  0
   23.1601   40.0139   -7.1635 C   0  0  0  0  0  0
   21.9656   40.7045   -9.2550 C   0  0  0  0  0  0
   20.9851   41.6254  -10.0223 C   0  0  2  0  0  0
   20.7920   41.0023  -11.3219 N   0  0  0  0  0  0
   19.8594   41.2691  -12.2373 C   0  0  0  0  0  0
   20.0599   40.9505  -13.3991 O   0  0  0  0  0  0
   21.4408   43.1017  -10.2557 C   0  0  2  0  0  0
   22.6583   43.1334  -10.9752 O   0  0  0  0  0  0
   21.6171   43.9659   -9.0042 C   0  0  0  0  0  0
   20.3708   44.0861   -8.2418 N   0  0  0  0  0  0
   20.4928   44.8891   -7.0294 C   0  0  0  0  0  0
   21.2000   44.1467   -5.9135 C   0  0  0  0  0  0
   20.4566   43.4579   -4.9319 C   0  0  0  0  0  0
   21.1107   42.7661   -3.8925 C   0  0  0  0  0  0
   22.5183   42.7159   -3.8739 C   0  0  0  0  0  0
   23.2608   43.3857   -4.8612 C   0  0  0  0  0  0
   22.6081   44.1247   -5.8606 C   0  0  0  0  0  0
   20.3096   42.0868   -2.7945 C   0  0  0  0  0  0
   20.6279   42.6706   -1.4109 C   0  0  0  0  0  0
   20.4748   40.5645   -2.8390 C   0  0  0  0  0  0
   16.2278   43.3407  -11.1282 N   0  0  0  0  0  0
   22.1219   41.8217   -7.4310 H   0  0  0  0  0  0
   20.0281   41.6287   -9.5086 H   0  0  0  0  0  0
   20.7054   43.6128  -10.8774 H   0  0  0  0  0  0
   15.5387   46.7220  -12.6667 H   0  0  0  0  0  0
   15.6827   45.9750  -11.0797 H   0  0  0  0  0  0
   14.7102   45.2019  -12.3485 H   0  0  0  0  0  0
   18.8597   43.6355  -13.2324 H   0  0  0  0  0  0
   17.9762   40.5291  -10.3734 H   0  0  0  0  0  0
   14.7414   42.2502   -9.5056 H   0  0  0  0  0  0
   14.5284   39.9665   -9.2023 H   0  0  0  0  0  0
   16.0991   39.6694   -9.8708 H   0  0  0  0  0  0
   16.9964   40.8066   -7.6151 H   0  0  0  0  0  0
   15.3643   40.5665   -7.0536 H   0  0  0  0  0  0
   16.2997   38.5550   -6.3513 H   0  0  0  0  0  0
   15.7301   38.0641   -7.9062 H   0  0  0  0  0  0
   17.9112   37.3003   -8.1050 H   0  0  0  0  0  0
   18.1906   38.9160   -8.6832 H   0  0  0  0  0  0
   18.5285   39.3497   -5.9847 H   0  0  0  0  0  0
   18.8487   37.6472   -6.0388 H   0  0  0  0  0  0
   20.9979   38.3175   -6.4411 H   0  0  0  0  0  0
   20.4756   38.4341   -8.0939 H   0  0  0  0  0  0
   19.8005   40.9161   -7.4717 H   0  0  0  0  0  0
   20.6628   40.6561   -6.0051 H   0  0  0  0  0  0
   23.0741   38.9503   -7.3668 H   0  0  0  0  0  0
   23.2583   40.1506   -6.0877 H   0  0  0  0  0  0
   24.0811   40.3533   -7.6393 H   0  0  0  0  0  0
   22.9752   40.8841   -9.6239 H   0  0  0  0  0  0
   21.7601   39.6655   -9.5228 H   0  0  0  0  0  0
   21.5943   40.4958  -11.6700 H   0  0  0  0  0  0
   23.2990   42.6166  -10.5123 H   0  0  0  0  0  0
   22.4217   43.5544   -8.3984 H   0  0  0  0  0  0
   21.9550   44.9597   -9.3070 H   0  0  0  0  0  0
   20.0526   43.1570   -7.9818 H   0  0  0  0  0  0
   21.0079   45.8279   -7.2357 H   0  0  0  0  0  0
   19.4980   45.1599   -6.6788 H   0  0  0  0  0  0
   19.3779   43.4664   -4.9752 H   0  0  0  0  0  0
   23.0360   42.1803   -3.0937 H   0  0  0  0  0  0
   24.3406   43.3489   -4.8402 H   0  0  0  0  0  0
   23.1910   44.6514   -6.6016 H   0  0  0  0  0  0
   19.2599   42.3052   -2.9771 H   0  0  0  0  0  0
   20.3940   43.7357   -1.3758 H   0  0  0  0  0  0
   21.6785   42.5510   -1.1559 H   0  0  0  0  0  0
   20.0313   42.1851   -0.6362 H   0  0  0  0  0  0
   20.0521   40.1530   -3.7555 H   0  0  0  0  0  0
   19.9664   40.0972   -1.9978 H   0  0  0  0  0  0
   21.5227   40.2693   -2.8049 H   0  0  0  0  0  0
  1  2  1  0  0  0
  1 41  1  0  0  0
  1 42  1  0  0  0
  1 43  1  0  0  0
  2  3  1  0  0  0
  3 37  1  0  0  0
  3  4  2  0  0  0
  4  5  1  0  0  0
  4 44  1  0  0  0
  5 21  1  0  0  0
  5  6  2  0  0  0
  6  7  1  0  0  0
  6 45  1  0  0  0
  7  8  1  0  0  0
  7 37  2  0  0  0
  8  9  1  0  0  0
  8 46  1  0  0  0
  9 10  1  0  0  0
  9 47  1  0  0  0
  9 48  1  0  0  0
 10 11  1  0  0  0
 10 49  1  0  0  0
 10 50  1  0  0  0
 11 12  1  0  0  0
 11 51  1  0  0  0
 11 52  1  0  0  0
 12 13  1  0  0  0
 12 53  1  0  0  0
 12 54  1  0  0  0
 13 14  1  0  0  0
 13 55  1  0  0  0
 13 56  1  0  0  0
 14 15  1  0  0  0
 14 57  1  0  0  0
 14 58  1  0  0  0
 15 16  1  0  0  0
 15 59  1  0  0  0
 15 60  1  0  0  0
 16 38  1  0  0  0
 16 17  1  0  0  0
 16 18  1  0  0  0
 17 61  1  0  0  0
 17 62  1  0  0  0
 17 63  1  0  0  0
 18 19  1  0  0  0
 18 64  1  0  0  0
 18 65  1  0  0  0
 19 39  1  0  0  0
 19 20  1  0  0  0
 19 23  1  0  0  0
 20 21  1  0  0  0
 20 66  1  0  0  0
 21 22  2  0  0  0
 23 40  1  0  0  0
 23 24  1  0  0  0
 23 25  1  0  0  0
 24 67  1  0  0  0
 25 26  1  0  0  0
 25 68  1  0  0  0
 25 69  1  0  0  0
 26 27  1  0  0  0
 26 70  1  0  0  0
 27 28  1  0  0  0
 27 71  1  0  0  0
 27 72  1  0  0  0
 28 33  1  0  0  0
 28 29  2  0  0  0
 29 30  1  0  0  0
 29 73  1  0  0  0
 30 31  2  0  0  0
 30 34  1  0  0  0
 31 32  1  0  0  0
 31 74  1  0  0  0
 32 33  2  0  0  0
 32 75  1  0  0  0
 33 76  1  0  0  0
 34 35  1  0  0  0
 34 36  1  0  0  0
 34 77  1  0  0  0
 35 78  1  0  0  0
 35 79  1  0  0  0
 35 80  1  0  0  0
 36 81  1  0  0  0
 36 82  1  0  0  0
 36 83  1  0  0  0
M  END
> <s_m_source_file>
BACE_43.smi

> <i_m_source_file_index>
1

> <i_lp_mmshare_version>
42013

> <i_f3d_flags>
0

> <s_epik_input>
W0NIM11PYyhbY0hdYzEyKW5jKFtjSF0xKVtOSF1bQ0gyXVtDSDJdW0NIMl1bQ0gyXVtDSDJdW0NIMl1bQ0gyXVtDQEBIXShbQ0gzXSlbQ0gyXVtDQEhdKFtOSF1DMj1PKVtDQEhdKFtPSF0pW0NIMl1bTkhdW0NIMl1jM1tjSF1jKFtDSF0oW0NIM10pW0NIM10pW2NIXVtjSF1bY0hdMw==

> <s_epik_cmdline>
J2VwaWtfcHl0aG9uJywgJy1waCcsICc3LjAnLCAnLXRuJywgJzgnLCAnLW1hJywgJzIwMCcsICctaW1hZScsICc8aW5maWxlLm1hZT4nLCAnLW9tYWUnLCAnPG91dGZpbGUubWFlPic=

> <r_lp_tautomer_probability>
1

> <r_epik_Ionization_Penalty>
  2.1014

> <r_epik_Ionization_Penalty_Charging>
  0.0000

> <r_epik_Ionization_Penalty_Neutral>
  2.1014

> <r_epik_State_Penalty>
  2.2376

> <r_epik_Charging_Adjusted_Penalty>
2.23761

> <i_epik_Tot_Q>
0

> <i_epik_Tot_abs_Q>
0

> <s_lp_Force_Field>
OPLS_2005

> <r_lp_Energy>
43.2585

> <b_lp_Chiralities_Consistent>
1

> <s_lp_Variant>
BACE_43.smi:1-2

> <chiral flag>
1

> <version>
0

> <s_i_glide_gridfile>
second_dock_grid_2

> <i_i_glide_lignum>
79

> <i_i_glide_rotatable_bonds>
8

> <r_i_docking_score>
-2.14303

> <r_i_glide_ligand_efficiency>
-0.0579197

> <r_i_glide_ligand_efficiency_sa>
-0.193001

> <r_i_glide_ligand_efficiency_ln>
-0.464773

> <r_glide_XP_GScore>
-4.38063

> <r_i_glide_gscore>
-4.38063

> <r_i_glide_evdw>
-42.0345

> <r_i_glide_ecoul>
-6.06892

> <r_i_glide_energy>
-48.1035

> <r_i_glide_einternal>
3.83843

> <r_i_glide_emodel>
-63.3913

> <r_glide_XP_HBond>
-0.849131

> <i_i_glide_confnum>
1

> <i_i_glide_posenum>
1

> <r_i_glide_eff_state_penalty>
2.2376

> <i_glide_XP_PoseRank>
1

$$$$
BACE_44.smi:1
                    3D
 Structure written by MMmdl.
 83 85  0  0  1  0            999 V2000
   20.5697   39.9149  -10.1768 C   0  0  0  0  0  0
   20.2947   39.2514   -8.8178 C   0  0  0  0  0  0
   21.3119   38.1504   -8.5129 C   0  0  0  0  0  0
   18.8528   38.7614   -8.7275 C   0  0  0  0  0  0
   18.3414   37.8139   -9.6399 C   0  0  0  0  0  0
   16.9673   37.5002   -9.6343 C   0  0  0  0  0  0
   16.0884   38.1695   -8.7627 C   0  0  0  0  0  0
   16.5923   39.1080   -7.8415 C   0  0  0  0  0  0
   15.6272   39.9361   -6.9996 C   0  0  0  0  0  0
   16.0589   41.3495   -6.8400 N   0  3  0  0  0  0
   16.4414   42.1049   -8.0607 C   0  0  0  0  0  0
   17.5656   43.1474   -7.7918 C   0  0  1  0  0  0
   18.6856   42.4838   -7.2402 O   0  0  0  0  0  0
   18.1315   43.8727   -9.0520 C   0  0  2  0  0  0
   19.0383   45.0712   -8.6627 C   0  0  0  0  0  0
   20.0449   45.5619   -9.7370 C   0  0  2  0  0  0
   21.0981   46.4887   -9.1045 C   0  0  0  0  0  0
   19.4251   46.2124  -10.9965 C   0  0  0  0  0  0
   18.4837   47.4011  -10.7265 C   0  0  0  0  0  0
   17.9321   48.0323  -12.0177 C   0  0  0  0  0  0
   16.5942   48.7561  -11.7777 C   0  0  0  0  0  0
   15.8159   49.0937  -13.0622 C   0  0  0  0  0  0
   15.1584   47.8860  -13.7630 C   0  0  0  0  0  0
   13.9894   47.3524  -13.0561 N   0  0  0  0  0  0
   12.6871   47.9496  -13.3393 C   0  0  0  0  0  0
   14.0351   46.0808  -12.4400 C   0  0  0  0  0  0
   15.2547   45.5038  -12.0303 C   0  0  0  0  0  0
   15.2492   44.2310  -11.4333 C   0  0  0  0  0  0
   14.0324   43.5466  -11.2848 C   0  0  0  0  0  0
   12.8620   44.1983  -11.7012 C   0  0  0  0  0  0
   11.5204   43.5165  -11.5706 C   0  0  0  0  0  0
   12.8600   45.4421  -12.2309 N   0  0  0  0  0  0
   16.5095   43.6282  -10.9258 C   0  0  0  0  0  0
   16.9148   42.5471  -11.3474 O   0  0  0  0  0  0
   17.0526   44.3249   -9.9191 N   0  0  0  0  0  0
   17.9854   39.3320   -7.7751 C   0  0  0  0  0  0
   17.2032   43.8832   -7.0712 H   0  0  0  0  0  0
   18.7422   43.1583   -9.6105 H   0  0  0  0  0  0
   20.5909   44.6825  -10.0818 H   0  0  0  0  0  0
   19.8835   40.7446  -10.3549 H   0  0  0  0  0  0
   20.4566   39.2091  -11.0000 H   0  0  0  0  0  0
   21.5847   40.3123  -10.2192 H   0  0  0  0  0  0
   20.4299   40.0230   -8.0579 H   0  0  0  0  0  0
   21.1451   37.7520   -7.5153 H   0  0  0  0  0  0
   22.3316   38.5354   -8.5471 H   0  0  0  0  0  0
   21.2425   37.3422   -9.2404 H   0  0  0  0  0  0
   18.9898   37.3533  -10.3702 H   0  0  0  0  0  0
   16.5719   36.7816  -10.3355 H   0  0  0  0  0  0
   15.0269   37.9723   -8.8118 H   0  0  0  0  0  0
   14.6376   39.9283   -7.4596 H   0  0  0  0  0  0
   15.5204   39.4737   -6.0178 H   0  0  0  0  0  0
   15.3471   41.8629   -6.3243 H   0  0  0  0  0  0
   16.7641   41.4428   -8.8618 H   0  0  0  0  0  0
   15.5380   42.5959   -8.4211 H   0  0  0  0  0  0
   18.5049   42.2249   -6.3418 H   0  0  0  0  0  0
   18.4334   45.8992   -8.2919 H   0  0  0  0  0  0
   19.6371   44.7692   -7.8028 H   0  0  0  0  0  0
   20.6445   47.3795   -8.6688 H   0  0  0  0  0  0
   21.8343   46.8159   -9.8393 H   0  0  0  0  0  0
   21.6410   45.9760   -8.3095 H   0  0  0  0  0  0
   20.2296   46.5417  -11.6573 H   0  0  0  0  0  0
   18.8885   45.4523  -11.5647 H   0  0  0  0  0  0
   17.6527   47.0515  -10.1160 H   0  0  0  0  0  0
   18.9883   48.1681  -10.1394 H   0  0  0  0  0  0
   18.6641   48.7237  -12.4366 H   0  0  0  0  0  0
   17.8085   47.2597  -12.7749 H   0  0  0  0  0  0
   15.9600   48.1564  -11.1256 H   0  0  0  0  0  0
   16.7959   49.6771  -11.2309 H   0  0  0  0  0  0
   15.0502   49.8368  -12.8393 H   0  0  0  0  0  0
   16.4980   49.5797  -13.7607 H   0  0  0  0  0  0
   14.8042   48.2290  -14.7358 H   0  0  0  0  0  0
   15.8897   47.1115  -13.9907 H   0  0  0  0  0  0
   12.0592   47.9634  -12.4471 H   0  0  0  0  0  0
   12.1726   47.3813  -14.1158 H   0  0  0  0  0  0
   12.7922   48.9780  -13.6882 H   0  0  0  0  0  0
   16.1922   46.0122  -12.1537 H   0  0  0  0  0  0
   13.9948   42.5613  -10.8399 H   0  0  0  0  0  0
   11.6129   42.5613  -11.0517 H   0  0  0  0  0  0
   11.1093   43.3291  -12.5631 H   0  0  0  0  0  0
   10.8274   44.1426  -11.0101 H   0  0  0  0  0  0
   16.6170   45.2037   -9.6832 H   0  0  0  0  0  0
   18.3846   40.0265   -7.0544 H   0  0  0  0  0  0
   16.8731   41.3157   -6.2300 H   0  0  0  0  0  0
  1  2  1  0  0  0
  1 40  1  0  0  0
  1 41  1  0  0  0
  1 42  1  0  0  0
  2  3  1  0  0  0
  2  4  1  0  0  0
  2 43  1  0  0  0
  3 44  1  0  0  0
  3 45  1  0  0  0
  3 46  1  0  0  0
  4 36  1  0  0  0
  4  5  2  0  0  0
  5  6  1  0  0  0
  5 47  1  0  0  0
  6  7  2  0  0  0
  6 48  1  0  0  0
  7  8  1  0  0  0
  7 49  1  0  0  0
  8  9  1  0  0  0
  8 36  2  0  0  0
  9 10  1  0  0  0
  9 50  1  0  0  0
  9 51  1  0  0  0
 10 11  1  0  0  0
 10 52  1  0  0  0
 10 83  1  0  0  0
 11 12  1  0  0  0
 11 53  1  0  0  0
 11 54  1  0  0  0
 12 37  1  0  0  0
 12 13  1  0  0  0
 12 14  1  0  0  0
 13 55  1  0  0  0
 14 38  1  0  0  0
 14 35  1  0  0  0
 14 15  1  0  0  0
 15 16  1  0  0  0
 15 56  1  0  0  0
 15 57  1  0  0  0
 16 39  1  0  0  0
 16 17  1  0  0  0
 16 18  1  0  0  0
 17 58  1  0  0  0
 17 59  1  0  0  0
 17 60  1  0  0  0
 18 19  1  0  0  0
 18 61  1  0  0  0
 18 62  1  0  0  0
 19 20  1  0  0  0
 19 63  1  0  0  0
 19 64  1  0  0  0
 20 21  1  0  0  0
 20 65  1  0  0  0
 20 66  1  0  0  0
 21 22  1  0  0  0
 21 67  1  0  0  0
 21 68  1  0  0  0
 22 23  1  0  0  0
 22 69  1  0  0  0
 22 70  1  0  0  0
 23 24  1  0  0  0
 23 71  1  0  0  0
 23 72  1  0  0  0
 24 25  1  0  0  0
 24 26  1  0  0  0
 25 73  1  0  0  0
 25 74  1  0  0  0
 25 75  1  0  0  0
 26 32  1  0  0  0
 26 27  2  0  0  0
 27 28  1  0  0  0
 27 76  1  0  0  0
 28 29  2  0  0  0
 28 33  1  0  0  0
 29 30  1  0  0  0
 29 77  1  0  0  0
 30 31  1  0  0  0
 30 32  2  0  0  0
 31 78  1  0  0  0
 31 79  1  0  0  0
 31 80  1  0  0  0
 33 34  2  0  0  0
 33 35  1  0  0  0
 35 81  1  0  0  0
 36 82  1  0  0  0
M  CHG  1  10   1
M  END
> <s_m_source_file>
BACE_44.smi

> <i_m_source_file_index>
1

> <i_lp_mmshare_version>
42013

> <i_f3d_flags>
0

> <s_epik_input>
W0NIM11bQ0hdKFtDSDNdKWMxW2NIXVtjSF1bY0hdYyhbY0hdMSlbQ0gyXVtOSF1bQ0gyXVtDQEBIXShbT0hdKVtDQEBIXShbTkhdQyg9TyljKFtjSF1jMjMpW2NIXWMobjMpW0NIM10pW0NIMl1bQ0BIXShbQ0gzXSlbQ0gyXVtDSDJdW0NIMl1bQ0gyXVtDSDJdW0NIMl1OMltDSDNd

> <s_epik_cmdline>
J2VwaWtfcHl0aG9uJywgJy1waCcsICc3LjAnLCAnLXRuJywgJzgnLCAnLW1hJywgJzIwMCcsICctaW1hZScsICc8aW5maWxlLm1hZT4nLCAnLW9tYWUnLCAnPG91dGZpbGUubWFlPic=

> <r_lp_tautomer_probability>
1

> <r_epik_Ionization_Penalty>
  0.0422

> <r_epik_Ionization_Penalty_Charging>
  0.0173

> <r_epik_Ionization_Penalty_Neutral>
  0.0248

> <r_epik_State_Penalty>
  0.0348

> <r_epik_Charging_Adjusted_Penalty>
0.0521435

> <i_epik_Tot_Q>
1

> <i_epik_Tot_abs_Q>
1

> <s_lp_Force_Field>
OPLS_2005

> <r_lp_Energy>
27.1733

> <b_lp_Chiralities_Consistent>
1

> <s_lp_Variant>
BACE_44.smi:1-1

> <chiral flag>
1

> <version>
0

> <s_i_glide_gridfile>
second_dock_grid_2

> <i_i_glide_lignum>
80

> <i_i_glide_rotatable_bonds>
7

> <r_i_docking_score>
-5.78544

> <r_i_glide_ligand_efficiency>
-0.160707

> <r_i_glide_ligand_efficiency_sa>
-0.530641

> <r_i_glide_ligand_efficiency_ln>
-1.26223

> <r_glide_XP_GScore>
-5.82024

> <r_i_glide_gscore>
-5.82024

> <r_i_glide_evdw>
-31.8713

> <r_i_glide_ecoul>
-22.0871

> <r_i_glide_energy>
-53.9583

> <r_i_glide_einternal>
8.40252

> <r_i_glide_emodel>
-61.0964

> <r_glide_XP_HBond>
-0.737019

> <i_i_glide_confnum>
1

> <i_i_glide_posenum>
7

> <r_i_glide_eff_state_penalty>
0.0348

> <i_glide_XP_PoseRank>
1

$$$$
BACE_44.smi:1
                    3D
 Structure written by MMmdl.
 84 86  0  0  1  0            999 V2000
   24.7668   48.9526   -0.6849 C   0  0  0  0  0  0
   25.2384   49.1396   -2.1380 C   0  0  0  0  0  0
   26.2436   50.2938   -2.2472 C   0  0  0  0  0  0
   24.0738   49.3331   -3.0991 C   0  0  0  0  0  0
   23.1208   50.3465   -2.8670 C   0  0  0  0  0  0
   22.0595   50.5379   -3.7683 C   0  0  0  0  0  0
   21.9408   49.7233   -4.9100 C   0  0  0  0  0  0
   22.8960   48.7175   -5.1622 C   0  0  0  0  0  0
   22.8265   47.8961   -6.4391 C   0  0  0  0  0  0
   22.0625   46.6392   -6.2888 N   0  3  0  0  0  0
   20.5847   46.7542   -6.2678 C   0  0  0  0  0  0
   19.9187   45.5963   -7.0560 C   0  0  1  0  0  0
   20.7147   45.4109   -8.2128 O   0  0  0  0  0  0
   19.7275   44.2579   -6.2717 C   0  0  2  0  0  0
   21.0501   43.5091   -5.9492 C   0  0  0  0  0  0
   20.9441   42.3543   -4.9171 C   0  0  2  0  0  0
   22.0905   42.3932   -3.8868 C   0  0  0  0  0  0
   20.8207   40.9591   -5.5675 C   0  0  0  0  0  0
   22.0961   40.4513   -6.2831 C   0  0  0  0  0  0
   21.9034   39.1911   -7.1442 C   0  0  0  0  0  0
   20.8514   39.3966   -8.2456 C   0  0  0  0  0  0
   20.7772   38.3023   -9.3197 C   0  0  0  0  0  0
   19.6948   38.5245  -10.4073 C   0  0  0  0  0  0
   18.3143   38.4017   -9.9236 N   0  0  0  0  0  0
   17.8172   37.0618   -9.6203 C   0  0  0  0  0  0
   17.6897   39.4853   -9.2593 C   0  0  0  0  0  0
   18.2219   40.7960   -9.2340 C   0  0  0  0  0  0
   17.6943   41.7583   -8.3461 C   0  0  0  0  0  0
   16.5117   41.4495   -7.6399 C   0  0  0  0  0  0
   15.9671   40.1558   -7.7485 C   0  0  0  0  0  0
   14.7660   39.7071   -6.9453 C   0  0  0  0  0  0
   16.5741   39.2430   -8.5323 N   0  3  0  0  0  0
   18.4504   43.0373   -8.1301 C   0  0  0  0  0  0
   18.9087   43.6406   -9.1000 O   0  0  0  0  0  0
   18.7100   43.3500   -6.8413 N   0  0  0  0  0  0
   23.9563   48.5197   -4.2487 C   0  0  0  0  0  0
   18.9338   45.9430   -7.3732 H   0  0  0  0  0  0
   19.2977   44.5468   -5.3130 H   0  0  0  0  0  0
   20.0330   42.5117   -4.3378 H   0  0  0  0  0  0
   24.0346   48.1502   -0.6082 H   0  0  0  0  0  0
   24.3084   49.8564   -0.2859 H   0  0  0  0  0  0
   25.6038   48.7009   -0.0334 H   0  0  0  0  0  0
   25.7594   48.2280   -2.4350 H   0  0  0  0  0  0
   26.6330   50.3766   -3.2635 H   0  0  0  0  0  0
   27.0937   50.1443   -1.5810 H   0  0  0  0  0  0
   25.7841   51.2483   -1.9894 H   0  0  0  0  0  0
   23.2008   50.9886   -2.0019 H   0  0  0  0  0  0
   21.3232   51.3071   -3.5757 H   0  0  0  0  0  0
   21.1200   49.8807   -5.5939 H   0  0  0  0  0  0
   22.4159   48.4934   -7.2534 H   0  0  0  0  0  0
   23.8427   47.6385   -6.7388 H   0  0  0  0  0  0
   22.2377   46.0821   -7.1207 H   0  0  0  0  0  0
   20.2238   46.8076   -5.2404 H   0  0  0  0  0  0
   20.2953   47.6918   -6.7474 H   0  0  0  0  0  0
   20.2524   44.7927   -8.7744 H   0  0  0  0  0  0
   21.5050   43.1637   -6.8775 H   0  0  0  0  0  0
   21.7565   44.2268   -5.5403 H   0  0  0  0  0  0
   23.0682   42.3181   -4.3641 H   0  0  0  0  0  0
   22.0061   41.5740   -3.1723 H   0  0  0  0  0  0
   22.0763   43.3236   -3.3180 H   0  0  0  0  0  0
   20.5328   40.2302   -4.8067 H   0  0  0  0  0  0
   19.9819   40.9941   -6.2586 H   0  0  0  0  0  0
   22.5109   41.2324   -6.9192 H   0  0  0  0  0  0
   22.8623   40.2398   -5.5361 H   0  0  0  0  0  0
   22.8617   38.9503   -7.6073 H   0  0  0  0  0  0
   21.6328   38.3464   -6.5071 H   0  0  0  0  0  0
   19.8874   39.4425   -7.7484 H   0  0  0  0  0  0
   21.0295   40.3574   -8.7278 H   0  0  0  0  0  0
   21.7518   38.2141   -9.8021 H   0  0  0  0  0  0
   20.5907   37.3501   -8.8404 H   0  0  0  0  0  0
   19.8563   39.4659  -10.9303 H   0  0  0  0  0  0
   19.8225   37.7595  -11.1735 H   0  0  0  0  0  0
   16.8177   36.9276  -10.0353 H   0  0  0  0  0  0
   17.7733   36.8937   -8.5423 H   0  0  0  0  0  0
   18.4602   36.2903  -10.0400 H   0  0  0  0  0  0
   19.1123   41.0521   -9.7860 H   0  0  0  0  0  0
   16.0687   42.1501   -6.9458 H   0  0  0  0  0  0
   14.0605   40.5274   -6.8399 H   0  0  0  0  0  0
   15.0661   39.3864   -5.9485 H   0  0  0  0  0  0
   14.2432   38.8797   -7.4269 H   0  0  0  0  0  0
   18.2925   42.7111   -6.1669 H   0  0  0  0  0  0
   24.6960   47.7569   -4.4412 H   0  0  0  0  0  0
   22.3887   46.1227   -5.4853 H   0  0  0  0  0  0
   16.1893   38.2973   -8.5250 H   0  0  0  0  0  0
  1  2  1  0  0  0
  1 40  1  0  0  0
  1 41  1  0  0  0
  1 42  1  0  0  0
  2  3  1  0  0  0
  2  4  1  0  0  0
  2 43  1  0  0  0
  3 44  1  0  0  0
  3 45  1  0  0  0
  3 46  1  0  0  0
  4 36  1  0  0  0
  4  5  2  0  0  0
  5  6  1  0  0  0
  5 47  1  0  0  0
  6  7  2  0  0  0
  6 48  1  0  0  0
  7  8  1  0  0  0
  7 49  1  0  0  0
  8  9  1  0  0  0
  8 36  2  0  0  0
  9 10  1  0  0  0
  9 50  1  0  0  0
  9 51  1  0  0  0
 10 11  1  0  0  0
 10 52  1  0  0  0
 10 83  1  0  0  0
 11 12  1  0  0  0
 11 53  1  0  0  0
 11 54  1  0  0  0
 12 37  1  0  0  0
 12 13  1  0  0  0
 12 14  1  0  0  0
 13 55  1  0  0  0
 14 38  1  0  0  0
 14 35  1  0  0  0
 14 15  1  0  0  0
 15 16  1  0  0  0
 15 56  1  0  0  0
 15 57  1  0  0  0
 16 39  1  0  0  0
 16 17  1  0  0  0
 16 18  1  0  0  0
 17 58  1  0  0  0
 17 59  1  0  0  0
 17 60  1  0  0  0
 18 19  1  0  0  0
 18 61  1  0  0  0
 18 62  1  0  0  0
 19 20  1  0  0  0
 19 63  1  0  0  0
 19 64  1  0  0  0
 20 21  1  0  0  0
 20 65  1  0  0  0
 20 66  1  0  0  0
 21 22  1  0  0  0
 21 67  1  0  0  0
 21 68  1  0  0  0
 22 23  1  0  0  0
 22 69  1  0  0  0
 22 70  1  0  0  0
 23 24  1  0  0  0
 23 71  1  0  0  0
 23 72  1  0  0  0
 24 25  1  0  0  0
 24 26  1  0  0  0
 25 73  1  0  0  0
 25 74  1  0  0  0
 25 75  1  0  0  0
 26 32  1  0  0  0
 26 27  2  0  0  0
 27 28  1  0  0  0
 27 76  1  0  0  0
 28 29  2  0  0  0
 28 33  1  0  0  0
 29 30  1  0  0  0
 29 77  1  0  0  0
 30 31  1  0  0  0
 30 32  2  0  0  0
 31 78  1  0  0  0
 31 79  1  0  0  0
 31 80  1  0  0  0
 32 84  1  0  0  0
 33 34  2  0  0  0
 33 35  1  0  0  0
 35 81  1  0  0  0
 36 82  1  0  0  0
M  CHG  2  10   1  32   1
M  END
> <s_m_source_file>
BACE_44.smi

> <i_m_source_file_index>
1

> <i_lp_mmshare_version>
42013

> <i_f3d_flags>
0

> <s_epik_input>
W0NIM11bQ0hdKFtDSDNdKWMxW2NIXVtjSF1bY0hdYyhbY0hdMSlbQ0gyXVtOSF1bQ0gyXVtDQEBIXShbT0hdKVtDQEBIXShbTkhdQyg9TyljKFtjSF1jMjMpW2NIXWMobjMpW0NIM10pW0NIMl1bQ0BIXShbQ0gzXSlbQ0gyXVtDSDJdW0NIMl1bQ0gyXVtDSDJdW0NIMl1OMltDSDNd

> <s_epik_cmdline>
J2VwaWtfcHl0aG9uJywgJy1waCcsICc3LjAnLCAnLXRuJywgJzgnLCAnLW1hJywgJzIwMCcsICctaW1hZScsICc8aW5maWxlLm1hZT4nLCAnLW9tYWUnLCAnPG91dGZpbGUubWFlPic=

> <r_lp_tautomer_probability>
0.999994

> <r_epik_Ionization_Penalty>
  1.9123

> <r_epik_Ionization_Penalty_Charging>
  1.9123

> <r_epik_Ionization_Penalty_Neutral>
  0.0000

> <r_epik_State_Penalty>
  1.9680

> <r_epik_Charging_Adjusted_Penalty>
3.88028

> <i_epik_Tot_Q>
2

> <i_epik_Tot_abs_Q>
2

> <s_lp_Force_Field>
OPLS_2005

> <r_lp_Energy>
35.8008

> <b_lp_Chiralities_Consistent>
1

> <s_lp_Variant>
BACE_44.smi:1-2

> <chiral flag>
1

> <version>
0

> <s_i_glide_gridfile>
second_dock_grid_2

> <i_i_glide_lignum>
81

> <i_i_glide_rotatable_bonds>
7

> <r_i_docking_score>
-3.59693

> <r_i_glide_ligand_efficiency>
-0.0999147

> <r_i_glide_ligand_efficiency_sa>
-0.329911

> <r_i_glide_ligand_efficiency_ln>
-0.784753

> <r_glide_XP_GScore>
-5.56493

> <r_i_glide_gscore>
-5.56493

> <r_i_glide_evdw>
-40.3204

> <r_i_glide_ecoul>
-7.76654

> <r_i_glide_energy>
-48.0869

> <r_i_glide_einternal>
12.3161

> <r_i_glide_emodel>
-57.0027

> <r_glide_XP_HBond>
-0.96

> <i_i_glide_confnum>
1

> <i_i_glide_posenum>
2

> <r_i_glide_eff_state_penalty>
1.968

> <i_glide_XP_PoseRank>
1

$$$$
BACE_44.smi:1
                    3D
 Structure written by MMmdl.
 82 84  0  0  1  0            999 V2000
   18.6615   47.4658   -6.8351 C   0  0  0  0  0  0
   18.4808   46.8168   -8.2160 C   0  0  0  0  0  0
   17.1855   47.2862   -8.8977 C   0  0  0  0  0  0
   18.5578   45.2974   -8.1346 C   0  0  0  0  0  0
   19.8132   44.6563   -8.0578 C   0  0  0  0  0  0
   19.8909   43.2521   -7.9860 C   0  0  0  0  0  0
   18.7145   42.4790   -7.9902 C   0  0  0  0  0  0
   17.4560   43.1097   -8.0622 C   0  0  0  0  0  0
   16.1888   42.2803   -8.0773 C   0  0  0  0  0  0
   16.3102   41.0920   -7.2417 N   0  0  0  0  0  0
   15.0787   40.3123   -7.1675 C   0  0  0  0  0  0
   14.7335   39.6855   -8.5317 C   0  0  1  0  0  0
   14.0595   40.6632   -9.3017 O   0  0  0  0  0  0
   15.9934   39.1995   -9.2972 C   0  0  2  0  0  0
   16.9356   38.3017   -8.4558 C   0  0  0  0  0  0
   18.0180   37.5519   -9.2775 C   0  0  2  0  0  0
   17.6742   36.0585   -9.3979 C   0  0  0  0  0  0
   19.4396   37.7473   -8.7013 C   0  0  0  0  0  0
   20.0094   39.1379   -9.0224 C   0  0  0  0  0  0
   21.3766   39.4338   -8.3945 C   0  0  0  0  0  0
   21.8666   40.8815   -8.6217 C   0  0  0  0  0  0
   22.5868   41.1489   -9.9617 C   0  0  0  0  0  0
   21.6988   41.5581  -11.1583 C   0  0  0  0  0  0
   21.0864   42.8846  -11.0183 N   0  0  0  0  0  0
   21.9441   44.0575  -11.1673 C   0  0  0  0  0  0
   19.7008   43.0444  -11.2661 C   0  0  0  0  0  0
   18.7847   42.0150  -10.9553 C   0  0  0  0  0  0
   17.4066   42.1863  -11.2053 C   0  0  0  0  0  0
   16.9855   43.4005  -11.7845 C   0  0  0  0  0  0
   17.9582   44.3848  -12.0547 C   0  0  0  0  0  0
   17.5695   45.7162  -12.6626 C   0  0  0  0  0  0
   19.2745   44.2166  -11.7987 N   0  0  0  0  0  0
   16.4265   41.0908  -10.8939 C   0  0  0  0  0  0
   15.3980   40.9462  -11.5546 O   0  0  0  0  0  0
   16.7438   40.3370   -9.8274 N   0  0  0  0  0  0
   17.3809   44.5160   -8.1350 C   0  0  0  0  0  0
   14.0602   38.8422   -8.3709 H   0  0  0  0  0  0
   15.6521   38.6124  -10.1518 H   0  0  0  0  0  0
   18.0264   37.9447  -10.2953 H   0  0  0  0  0  0
   19.6113   47.1735   -6.3864 H   0  0  0  0  0  0
   17.8656   47.1776   -6.1477 H   0  0  0  0  0  0
   18.6548   48.5535   -6.9097 H   0  0  0  0  0  0
   19.3089   47.1559   -8.8398 H   0  0  0  0  0  0
   17.0899   46.8559   -9.8949 H   0  0  0  0  0  0
   17.1715   48.3710   -9.0054 H   0  0  0  0  0  0
   16.3016   47.0022   -8.3258 H   0  0  0  0  0  0
   20.7236   45.2377   -8.0553 H   0  0  0  0  0  0
   20.8544   42.7673   -7.9292 H   0  0  0  0  0  0
   18.7805   41.4020   -7.9391 H   0  0  0  0  0  0
   15.3552   42.8969   -7.7383 H   0  0  0  0  0  0
   15.9684   41.9962   -9.1070 H   0  0  0  0  0  0
   16.5793   41.3696   -6.3030 H   0  0  0  0  0  0
   15.1578   39.5403   -6.4009 H   0  0  0  0  0  0
   14.2667   40.9712   -6.8577 H   0  0  0  0  0  0
   13.1789   40.7484   -8.9699 H   0  0  0  0  0  0
   17.4079   38.9126   -7.6855 H   0  0  0  0  0  0
   16.3457   37.5733   -7.8993 H   0  0  0  0  0  0
   17.6833   35.5683   -8.4238 H   0  0  0  0  0  0
   18.3886   35.5398  -10.0377 H   0  0  0  0  0  0
   16.6843   35.9185   -9.8333 H   0  0  0  0  0  0
   19.4321   37.5757   -7.6239 H   0  0  0  0  0  0
   20.1135   37.0001   -9.1221 H   0  0  0  0  0  0
   20.0885   39.2236  -10.1044 H   0  0  0  0  0  0
   19.3068   39.8969   -8.6810 H   0  0  0  0  0  0
   21.2934   39.2709   -7.3192 H   0  0  0  0  0  0
   22.1210   38.7194   -8.7472 H   0  0  0  0  0  0
   21.0591   41.5969   -8.4634 H   0  0  0  0  0  0
   22.5891   41.0911   -7.8320 H   0  0  0  0  0  0
   23.3307   41.9284   -9.7982 H   0  0  0  0  0  0
   23.1657   40.2668  -10.2366 H   0  0  0  0  0  0
   22.3344   41.6055  -12.0431 H   0  0  0  0  0  0
   20.9809   40.7762  -11.3898 H   0  0  0  0  0  0
   21.6062   44.8650  -10.5172 H   0  0  0  0  0  0
   21.9336   44.4141  -12.1979 H   0  0  0  0  0  0
   22.9775   43.8324  -10.9068 H   0  0  0  0  0  0
   19.1269   41.0985  -10.5191 H   0  0  0  0  0  0
   15.9431   43.5782  -12.0073 H   0  0  0  0  0  0
   16.4908   45.7869  -12.8057 H   0  0  0  0  0  0
   18.0508   45.8444  -13.6325 H   0  0  0  0  0  0
   17.8804   46.5351  -12.0132 H   0  0  0  0  0  0
   17.6021   40.5651   -9.3472 H   0  0  0  0  0  0
   16.4142   44.9941   -8.1942 H   0  0  0  0  0  0
  1  2  1  0  0  0
  1 40  1  0  0  0
  1 41  1  0  0  0
  1 42  1  0  0  0
  2  3  1  0  0  0
  2  4  1  0  0  0
  2 43  1  0  0  0
  3 44  1  0  0  0
  3 45  1  0  0  0
  3 46  1  0  0  0
  4 36  1  0  0  0
  4  5  2  0  0  0
  5  6  1  0  0  0
  5 47  1  0  0  0
  6  7  2  0  0  0
  6 48  1  0  0  0
  7  8  1  0  0  0
  7 49  1  0  0  0
  8  9  1  0  0  0
  8 36  2  0  0  0
  9 10  1  0  0  0
  9 50  1  0  0  0
  9 51  1  0  0  0
 10 11  1  0  0  0
 10 52  1  0  0  0
 11 12  1  0  0  0
 11 53  1  0  0  0
 11 54  1  0  0  0
 12 37  1  0  0  0
 12 13  1  0  0  0
 12 14  1  0  0  0
 13 55  1  0  0  0
 14 38  1  0  0  0
 14 35  1  0  0  0
 14 15  1  0  0  0
 15 16  1  0  0  0
 15 56  1  0  0  0
 15 57  1  0  0  0
 16 39  1  0  0  0
 16 17  1  0  0  0
 16 18  1  0  0  0
 17 58  1  0  0  0
 17 59  1  0  0  0
 17 60  1  0  0  0
 18 19  1  0  0  0
 18 61  1  0  0  0
 18 62  1  0  0  0
 19 20  1  0  0  0
 19 63  1  0  0  0
 19 64  1  0  0  0
 20 21  1  0  0  0
 20 65  1  0  0  0
 20 66  1  0  0  0
 21 22  1  0  0  0
 21 67  1  0  0  0
 21 68  1  0  0  0
 22 23  1  0  0  0
 22 69  1  0  0  0
 22 70  1  0  0  0
 23 24  1  0  0  0
 23 71  1  0  0  0
 23 72  1  0  0  0
 24 25  1  0  0  0
 24 26  1  0  0  0
 25 73  1  0  0  0
 25 74  1  0  0  0
 25 75  1  0  0  0
 26 32  1  0  0  0
 26 27  2  0  0  0
 27 28  1  0  0  0
 27 76  1  0  0  0
 28 29  2  0  0  0
 28 33  1  0  0  0
 29 30  1  0  0  0
 29 77  1  0  0  0
 30 31  1  0  0  0
 30 32  2  0  0  0
 31 78  1  0  0  0
 31 79  1  0  0  0
 31 80  1  0  0  0
 33 34  2  0  0  0
 33 35  1  0  0  0
 35 81  1  0  0  0
 36 82  1  0  0  0
M  END
> <s_m_source_file>
BACE_44.smi

> <i_m_source_file_index>
1

> <i_lp_mmshare_version>
42013

> <i_f3d_flags>
0

> <s_epik_input>
W0NIM11bQ0hdKFtDSDNdKWMxW2NIXVtjSF1bY0hdYyhbY0hdMSlbQ0gyXVtOSF1bQ0gyXVtDQEBIXShbT0hdKVtDQEBIXShbTkhdQyg9TyljKFtjSF1jMjMpW2NIXWMobjMpW0NIM10pW0NIMl1bQ0BIXShbQ0gzXSlbQ0gyXVtDSDJdW0NIMl1bQ0gyXVtDSDJdW0NIMl1OMltDSDNd

> <s_epik_cmdline>
J2VwaWtfcHl0aG9uJywgJy1waCcsICc3LjAnLCAnLXRuJywgJzgnLCAnLW1hJywgJzIwMCcsICctaW1hZScsICc8aW5maWxlLm1hZT4nLCAnLW9tYWUnLCAnPG91dGZpbGUubWFlPic=

> <r_lp_tautomer_probability>
1

> <r_epik_Ionization_Penalty>
  2.1408

> <r_epik_Ionization_Penalty_Charging>
  0.0000

> <r_epik_Ionization_Penalty_Neutral>
  2.1408

> <r_epik_State_Penalty>
  2.3195

> <r_epik_Charging_Adjusted_Penalty>
2.31951

> <i_epik_Tot_Q>
0

> <i_epik_Tot_abs_Q>
0

> <s_lp_Force_Field>
OPLS_2005

> <r_lp_Energy>
37.8599

> <b_lp_Chiralities_Consistent>
1

> <s_lp_Variant>
BACE_44.smi:1-3

> <chiral flag>
1

> <version>
0

> <s_i_glide_gridfile>
second_dock_grid_2

> <i_i_glide_lignum>
82

> <i_i_glide_rotatable_bonds>
7

> <r_i_docking_score>
-2.36647

> <r_i_glide_ligand_efficiency>
-0.0657353

> <r_i_glide_ligand_efficiency_sa>
-0.217053

> <r_i_glide_ligand_efficiency_ln>
-0.5163

> <r_glide_XP_GScore>
-4.68597

> <r_i_glide_gscore>
-4.68597

> <r_i_glide_evdw>
-28.5923

> <r_i_glide_ecoul>
-14.8076

> <r_i_glide_energy>
-43.3999

> <r_i_glide_einternal>
9.58566

> <r_i_glide_emodel>
-60.5628

> <r_glide_XP_HBond>
-1.77303

> <i_i_glide_confnum>
1

> <i_i_glide_posenum>
3

> <r_i_glide_eff_state_penalty>
2.3195

> <i_glide_XP_PoseRank>
1

$$$$
BACE_45.smi:1
                    3D
 Structure written by MMmdl.
 81 83  0  0  1  0            999 V2000
   22.6636   40.4188   -3.7474 C   0  0  0  0  0  0
   22.0342   41.7321   -3.2666 C   0  0  0  0  0  0
   20.7178   41.4937   -2.4963 C   0  0  0  0  0  0
   21.8571   42.6982   -4.4308 C   0  0  0  0  0  0
   22.8018   43.7084   -4.6792 C   0  0  0  0  0  0
   22.6367   44.6086   -5.7496 C   0  0  0  0  0  0
   21.5069   44.5057   -6.5835 C   0  0  0  0  0  0
   20.5517   43.4943   -6.3499 C   0  0  0  0  0  0
   19.3265   43.3923   -7.2390 C   0  0  0  0  0  0
   18.8605   41.9979   -7.3417 N   0  3  0  0  0  0
   17.7892   41.7703   -8.3248 C   0  0  0  0  0  0
   16.4025   42.1559   -7.7852 C   0  0  1  0  0  0
   16.1496   43.5216   -8.0401 O   0  0  0  0  0  0
   15.1764   41.2798   -8.1899 C   0  0  2  0  0  0
   15.2068   39.7857   -7.7580 C   0  0  0  0  0  0
   15.9912   38.8070   -8.6272 C   0  0  0  0  0  0
   15.3419   38.3937   -9.9366 C   0  0  0  0  0  0
   17.1513   38.2724   -8.1948 C   0  0  0  0  0  0
   18.0391   37.2760   -8.9180 C   0  0  0  0  0  0
   19.4875   37.7850   -9.0405 C   0  0  0  0  0  0
   19.6698   38.8463  -10.1386 C   0  0  0  0  0  0
   21.0862   39.4512  -10.1696 C   0  0  0  0  0  0
   21.1519   40.9136  -10.6575 C   0  0  0  0  0  0
   20.8071   41.1439  -12.1428 C   0  0  0  0  0  0
   19.3948   40.9445  -12.4396 N   0  0  0  0  0  0
   18.4340   41.8443  -11.9673 C   0  0  0  0  0  0
   17.1695   41.3506  -11.5816 C   0  0  0  0  0  0
   16.2019   42.2517  -11.0856 C   0  0  0  0  0  0
   16.5272   43.6241  -11.0662 C   0  0  0  0  0  0
   17.8157   44.0197  -11.4736 C   0  0  0  0  0  0
   18.2272   45.4750  -11.4409 C   0  0  0  0  0  0
   18.7545   43.1538  -11.9053 N   0  0  0  0  0  0
   14.8186   41.7911  -10.7325 C   0  0  0  0  0  0
   13.9910   41.7160  -11.6390 O   0  0  0  0  0  0
   14.4626   41.5222   -9.4612 N   0  0  0  0  0  0
   20.7497   42.5893   -5.2855 C   0  0  0  0  0  0
   16.4600   42.0761   -6.6989 H   0  0  0  0  0  0
   14.4371   41.6788   -7.4963 H   0  0  0  0  0  0
   23.6257   40.5985   -4.2298 H   0  0  0  0  0  0
   22.0211   39.8973   -4.4552 H   0  0  0  0  0  0
   22.8510   39.7497   -2.9070 H   0  0  0  0  0  0
   22.7316   42.1955   -2.5685 H   0  0  0  0  0  0
   20.2987   42.4300   -2.1322 H   0  0  0  0  0  0
   20.8608   40.8438   -1.6399 H   0  0  0  0  0  0
   19.9609   41.0074   -3.1084 H   0  0  0  0  0  0
   23.6598   43.7927   -4.0400 H   0  0  0  0  0  0
   23.3741   45.3751   -5.9264 H   0  0  0  0  0  0
   21.3820   45.2020   -7.3980 H   0  0  0  0  0  0
   18.5346   44.0211   -6.8322 H   0  0  0  0  0  0
   19.5678   43.7738   -8.2308 H   0  0  0  0  0  0
   19.6532   41.4288   -7.5959 H   0  0  0  0  0  0
   18.0520   42.2822   -9.2420 H   0  0  0  0  0  0
   17.8105   40.7153   -8.5439 H   0  0  0  0  0  0
   15.5701   43.8121   -7.3482 H   0  0  0  0  0  0
   15.5869   39.7302   -6.7347 H   0  0  0  0  0  0
   14.1849   39.4069   -7.6886 H   0  0  0  0  0  0
   14.4235   38.9518  -10.1200 H   0  0  0  0  0  0
   15.0846   37.3332   -9.9005 H   0  0  0  0  0  0
   16.0171   38.5513  -10.7739 H   0  0  0  0  0  0
   17.5124   38.5650   -7.2184 H   0  0  0  0  0  0
   18.0258   36.3612   -8.3280 H   0  0  0  0  0  0
   17.6388   37.0144   -9.8971 H   0  0  0  0  0  0
   19.8051   38.1837   -8.0761 H   0  0  0  0  0  0
   20.1529   36.9527   -9.2403 H   0  0  0  0  0  0
   19.4313   38.4123  -11.1098 H   0  0  0  0  0  0
   18.9445   39.6373   -9.9848 H   0  0  0  0  0  0
   21.5041   39.4320   -9.1616 H   0  0  0  0  0  0
   21.7447   38.8226  -10.7697 H   0  0  0  0  0  0
   20.5358   41.5515  -10.0226 H   0  0  0  0  0  0
   22.1756   41.2625  -10.5066 H   0  0  0  0  0  0
   21.1027   42.1504  -12.4346 H   0  0  0  0  0  0
   21.3947   40.4682  -12.7640 H   0  0  0  0  0  0
   19.1000   39.9824  -12.5030 H   0  0  0  0  0  0
   16.9506   40.2969  -11.6564 H   0  0  0  0  0  0
   15.8072   44.3496  -10.7149 H   0  0  0  0  0  0
   17.3616   46.1263  -11.3209 H   0  0  0  0  0  0
   18.7319   45.7510  -12.3681 H   0  0  0  0  0  0
   18.9106   45.6535  -10.6104 H   0  0  0  0  0  0
   13.4773   41.3069   -9.3665 H   0  0  0  0  0  0
   20.0578   41.7875   -5.1103 H   0  0  0  0  0  0
   18.5314   41.7084   -6.4201 H   0  0  0  0  0  0
  1  2  1  0  0  0
  1 39  1  0  0  0
  1 40  1  0  0  0
  1 41  1  0  0  0
  2  3  1  0  0  0
  2  4  1  0  0  0
  2 42  1  0  0  0
  3 43  1  0  0  0
  3 44  1  0  0  0
  3 45  1  0  0  0
  4 36  1  0  0  0
  4  5  2  0  0  0
  5  6  1  0  0  0
  5 46  1  0  0  0
  6  7  2  0  0  0
  6 47  1  0  0  0
  7  8  1  0  0  0
  7 48  1  0  0  0
  8  9  1  0  0  0
  8 36  2  0  0  0
  9 10  1  0  0  0
  9 49  1  0  0  0
  9 50  1  0  0  0
 10 11  1  0  0  0
 10 51  1  0  0  0
 10 81  1  0  0  0
 11 12  1  0  0  0
 11 52  1  0  0  0
 11 53  1  0  0  0
 12 37  1  0  0  0
 12 13  1  0  0  0
 12 14  1  0  0  0
 13 54  1  0  0  0
 14 38  1  0  0  0
 14 35  1  0  0  0
 14 15  1  0  0  0
 15 16  1  0  0  0
 15 55  1  0  0  0
 15 56  1  0  0  0
 16 17  1  0  0  0
 16 18  2  0  0  0
 17 57  1  0  0  0
 17 58  1  0  0  0
 17 59  1  0  0  0
 18 19  1  0  0  0
 18 60  1  0  0  0
 19 20  1  0  0  0
 19 61  1  0  0  0
 19 62  1  0  0  0
 20 21  1  0  0  0
 20 63  1  0  0  0
 20 64  1  0  0  0
 21 22  1  0  0  0
 21 65  1  0  0  0
 21 66  1  0  0  0
 22 23  1  0  0  0
 22 67  1  0  0  0
 22 68  1  0  0  0
 23 24  1  0  0  0
 23 69  1  0  0  0
 23 70  1  0  0  0
 24 25  1  0  0  0
 24 71  1  0  0  0
 24 72  1  0  0  0
 25 26  1  0  0  0
 25 73  1  0  0  0
 26 32  1  0  0  0
 26 27  2  0  0  0
 27 28  1  0  0  0
 27 74  1  0  0  0
 28 29  2  0  0  0
 28 33  1  0  0  0
 29 30  1  0  0  0
 29 75  1  0  0  0
 30 31  1  0  0  0
 30 32  2  0  0  0
 31 76  1  0  0  0
 31 77  1  0  0  0
 31 78  1  0  0  0
 33 34  2  0  0  0
 33 35  1  0  0  0
 35 79  1  0  0  0
 36 80  1  0  0  0
M  CHG  1  10   1
M  END
> <s_m_source_file>
BACE_45.smi

> <i_m_source_file_index>
1

> <i_lp_mmshare_version>
42013

> <i_f3d_flags>
0

> <s_epik_input>
W0NIM11bQ0hdKFtDSDNdKWMxW2NIXVtjSF1bY0hdYyhbY0hdMSlbQ0gyXVtOSF1bQ0gyXVtDQEBIXShbT0hdKVtDQEBIXShbTkhdQyg9TyljKFtjSF1jMjMpW2NIXWMobjMpW0NIM10pW0NIMl0vQyhbQ0gzXSk9W0NIXS9bQ0gyXVtDSDJdW0NIMl1bQ0gyXVtDSDJdW0NIMl1bTkhdMg==

> <s_epik_cmdline>
J2VwaWtfcHl0aG9uJywgJy1waCcsICc3LjAnLCAnLXRuJywgJzgnLCAnLW1hJywgJzIwMCcsICctaW1hZScsICc8aW5maWxlLm1hZT4nLCAnLW9tYWUnLCAnPG91dGZpbGUubWFlPic=

> <r_lp_tautomer_probability>
1

> <r_epik_Ionization_Penalty>
  0.0294

> <r_epik_Ionization_Penalty_Charging>
  0.0187

> <r_epik_Ionization_Penalty_Neutral>
  0.0107

> <r_epik_State_Penalty>
  0.0226

> <r_epik_Charging_Adjusted_Penalty>
0.0412201

> <i_epik_Tot_Q>
1

> <i_epik_Tot_abs_Q>
1

> <s_lp_Force_Field>
OPLS_2005

> <r_lp_Energy>
36.8474

> <b_lp_Chiralities_Consistent>
1

> <s_lp_Variant>
BACE_45.smi:1-1

> <chiral flag>
1

> <version>
0

> <s_i_glide_gridfile>
second_dock_grid_2

> <i_i_glide_lignum>
83

> <i_i_glide_rotatable_bonds>
7

> <r_i_docking_score>
-7.30507

> <r_i_glide_ligand_efficiency>
-0.202919

> <r_i_glide_ligand_efficiency_sa>
-0.670023

> <r_i_glide_ligand_efficiency_ln>
-1.59377

> <r_glide_XP_GScore>
-7.32767

> <r_i_glide_gscore>
-7.32767

> <r_i_glide_evdw>
-39.8649

> <r_i_glide_ecoul>
-22.9566

> <r_i_glide_energy>
-62.8215

> <r_i_glide_einternal>
3.3442

> <r_i_glide_emodel>
-88.1111

> <r_glide_XP_HBond>
-0.93231

> <i_i_glide_confnum>
1

> <i_i_glide_posenum>
2

> <r_i_glide_eff_state_penalty>
0.0226

> <i_glide_XP_PoseRank>
1

$$$$
BACE_45.smi:1
                    3D
 Structure written by MMmdl.
 80 82  0  0  1  0            999 V2000
   20.1726   42.4720   -2.3573 C   0  0  0  0  0  0
   21.5512   42.0578   -2.8945 C   0  0  0  0  0  0
   22.5355   43.2380   -2.9047 C   0  0  0  0  0  0
   21.4420   41.3988   -4.2642 C   0  0  0  0  0  0
   22.0771   40.1645   -4.5237 C   0  0  0  0  0  0
   21.9758   39.5673   -5.7944 C   0  0  0  0  0  0
   21.2449   40.2020   -6.8165 C   0  0  0  0  0  0
   20.6125   41.4383   -6.5725 C   0  0  0  0  0  0
   19.8284   42.1186   -7.6810 C   0  0  0  0  0  0
   18.5394   41.4800   -7.9263 N   0  0  0  0  0  0
   17.6650   42.2389   -8.8158 C   0  0  0  0  0  0
   16.4144   42.7351   -8.0623 C   0  0  1  0  0  0
   16.0809   43.9841   -8.6297 O   0  0  0  0  0  0
   15.2154   41.7537   -8.1730 C   0  0  2  0  0  0
   15.3538   40.3965   -7.4278 C   0  0  0  0  0  0
   16.1286   39.2780   -8.1204 C   0  0  0  0  0  0
   15.3989   38.5651   -9.2484 C   0  0  0  0  0  0
   17.3590   38.9217   -7.6959 C   0  0  0  0  0  0
   18.2430   37.8179   -8.2580 C   0  0  0  0  0  0
   19.6809   38.2891   -8.5316 C   0  0  0  0  0  0
   19.7588   39.3444   -9.6432 C   0  0  0  0  0  0
   21.1913   39.8060   -9.9606 C   0  0  0  0  0  0
   21.2645   41.1180  -10.7687 C   0  0  0  0  0  0
   20.8422   41.0183  -12.2505 C   0  0  0  0  0  0
   19.4221   40.7467  -12.4431 N   0  0  0  0  0  0
   18.4675   41.6839  -12.0250 C   0  0  0  0  0  0
   17.2024   41.2157  -11.6142 C   0  0  0  0  0  0
   16.2391   42.1479  -11.1762 C   0  0  0  0  0  0
   16.5622   43.5201  -11.2280 C   0  0  0  0  0  0
   17.8560   43.8912  -11.6447 C   0  0  0  0  0  0
   18.2693   45.3475  -11.6669 C   0  0  0  0  0  0
   18.7923   42.9978  -12.0309 N   0  0  0  0  0  0
   14.8722   41.6955  -10.7644 C   0  0  0  0  0  0
   14.0713   41.3826  -11.6423 O   0  0  0  0  0  0
   14.5094   41.6565   -9.4635 N   0  0  0  0  0  0
   20.7062   42.0272   -5.2921 C   0  0  0  0  0  0
   16.6935   42.8466   -7.0176 H   0  0  0  0  0  0
   14.4403   42.2649   -7.6011 H   0  0  0  0  0  0
   19.5025   41.6140   -2.2972 H   0  0  0  0  0  0
   19.7000   43.2198   -2.9948 H   0  0  0  0  0  0
   20.2538   42.8956   -1.3559 H   0  0  0  0  0  0
   21.9528   41.3164   -2.2023 H   0  0  0  0  0  0
   23.5228   42.9204   -3.2410 H   0  0  0  0  0  0
   22.6487   43.6606   -1.9060 H   0  0  0  0  0  0
   22.2001   44.0388   -3.5640 H   0  0  0  0  0  0
   22.6457   39.6701   -3.7497 H   0  0  0  0  0  0
   22.4618   38.6220   -5.9860 H   0  0  0  0  0  0
   21.1753   39.7374   -7.7891 H   0  0  0  0  0  0
   19.6779   43.1663   -7.4173 H   0  0  0  0  0  0
   20.4329   42.1071   -8.5886 H   0  0  0  0  0  0
   18.0645   41.3314   -7.0419 H   0  0  0  0  0  0
   18.2061   43.0711   -9.2682 H   0  0  0  0  0  0
   17.3549   41.5900   -9.6356 H   0  0  0  0  0  0
   15.4163   44.3901   -8.0952 H   0  0  0  0  0  0
   15.7977   40.5746   -6.4482 H   0  0  0  0  0  0
   14.3575   40.0102   -7.2089 H   0  0  0  0  0  0
   14.3187   38.6544   -9.1311 H   0  0  0  0  0  0
   15.6273   37.5002   -9.2657 H   0  0  0  0  0  0
   15.6720   38.9862  -10.2131 H   0  0  0  0  0  0
   17.7886   39.4564   -6.8610 H   0  0  0  0  0  0
   18.2646   37.0081   -7.5282 H   0  0  0  0  0  0
   17.8252   37.3989   -9.1722 H   0  0  0  0  0  0
   20.1188   38.6837   -7.6137 H   0  0  0  0  0  0
   20.2883   37.4284   -8.8138 H   0  0  0  0  0  0
   19.2938   38.9382  -10.5406 H   0  0  0  0  0  0
   19.1675   40.2104   -9.3540 H   0  0  0  0  0  0
   21.7174   39.9695   -9.0192 H   0  0  0  0  0  0
   21.7356   39.0133  -10.4752 H   0  0  0  0  0  0
   20.6982   41.8989  -10.2599 H   0  0  0  0  0  0
   22.3000   41.4583  -10.7495 H   0  0  0  0  0  0
   21.1007   41.9403  -12.7724 H   0  0  0  0  0  0
   21.4092   40.2263  -12.7395 H   0  0  0  0  0  0
   19.1466   39.7762  -12.4038 H   0  0  0  0  0  0
   16.9815   40.1589  -11.6293 H   0  0  0  0  0  0
   15.8411   44.2704  -10.9372 H   0  0  0  0  0  0
   17.4152   45.9886  -11.8865 H   0  0  0  0  0  0
   19.0318   45.5286  -12.4255 H   0  0  0  0  0  0
   18.6742   45.6356  -10.6964 H   0  0  0  0  0  0
   13.5391   41.4038   -9.3440 H   0  0  0  0  0  0
   20.2162   42.9706   -5.1004 H   0  0  0  0  0  0
  1  2  1  0  0  0
  1 39  1  0  0  0
  1 40  1  0  0  0
  1 41  1  0  0  0
  2  3  1  0  0  0
  2  4  1  0  0  0
  2 42  1  0  0  0
  3 43  1  0  0  0
  3 44  1  0  0  0
  3 45  1  0  0  0
  4 36  1  0  0  0
  4  5  2  0  0  0
  5  6  1  0  0  0
  5 46  1  0  0  0
  6  7  2  0  0  0
  6 47  1  0  0  0
  7  8  1  0  0  0
  7 48  1  0  0  0
  8  9  1  0  0  0
  8 36  2  0  0  0
  9 10  1  0  0  0
  9 49  1  0  0  0
  9 50  1  0  0  0
 10 11  1  0  0  0
 10 51  1  0  0  0
 11 12  1  0  0  0
 11 52  1  0  0  0
 11 53  1  0  0  0
 12 37  1  0  0  0
 12 13  1  0  0  0
 12 14  1  0  0  0
 13 54  1  0  0  0
 14 38  1  0  0  0
 14 35  1  0  0  0
 14 15  1  0  0  0
 15 16  1  0  0  0
 15 55  1  0  0  0
 15 56  1  0  0  0
 16 17  1  0  0  0
 16 18  2  0  0  0
 17 57  1  0  0  0
 17 58  1  0  0  0
 17 59  1  0  0  0
 18 19  1  0  0  0
 18 60  1  0  0  0
 19 20  1  0  0  0
 19 61  1  0  0  0
 19 62  1  0  0  0
 20 21  1  0  0  0
 20 63  1  0  0  0
 20 64  1  0  0  0
 21 22  1  0  0  0
 21 65  1  0  0  0
 21 66  1  0  0  0
 22 23  1  0  0  0
 22 67  1  0  0  0
 22 68  1  0  0  0
 23 24  1  0  0  0
 23 69  1  0  0  0
 23 70  1  0  0  0
 24 25  1  0  0  0
 24 71  1  0  0  0
 24 72  1  0  0  0
 25 26  1  0  0  0
 25 73  1  0  0  0
 26 32  1  0  0  0
 26 27  2  0  0  0
 27 28  1  0  0  0
 27 74  1  0  0  0
 28 29  2  0  0  0
 28 33  1  0  0  0
 29 30  1  0  0  0
 29 75  1  0  0  0
 30 31  1  0  0  0
 30 32  2  0  0  0
 31 76  1  0  0  0
 31 77  1  0  0  0
 31 78  1  0  0  0
 33 34  2  0  0  0
 33 35  1  0  0  0
 35 79  1  0  0  0
 36 80  1  0  0  0
M  END
> <s_m_source_file>
BACE_45.smi

> <i_m_source_file_index>
1

> <i_lp_mmshare_version>
42013

> <i_f3d_flags>
0

> <s_epik_input>
W0NIM11bQ0hdKFtDSDNdKWMxW2NIXVtjSF1bY0hdYyhbY0hdMSlbQ0gyXVtOSF1bQ0gyXVtDQEBIXShbT0hdKVtDQEBIXShbTkhdQyg9TyljKFtjSF1jMjMpW2NIXWMobjMpW0NIM10pW0NIMl0vQyhbQ0gzXSk9W0NIXS9bQ0gyXVtDSDJdW0NIMl1bQ0gyXVtDSDJdW0NIMl1bTkhdMg==

> <s_epik_cmdline>
J2VwaWtfcHl0aG9uJywgJy1waCcsICc3LjAnLCAnLXRuJywgJzgnLCAnLW1hJywgJzIwMCcsICctaW1hZScsICc8aW5maWxlLm1hZT4nLCAnLW9tYWUnLCAnPG91dGZpbGUubWFlPic=

> <r_lp_tautomer_probability>
1

> <r_epik_Ionization_Penalty>
  2.0751

> <r_epik_Ionization_Penalty_Charging>
  0.0000

> <r_epik_Ionization_Penalty_Neutral>
  2.0751

> <r_epik_State_Penalty>
  2.2595

> <r_epik_Charging_Adjusted_Penalty>
2.25946

> <i_epik_Tot_Q>
0

> <i_epik_Tot_abs_Q>
0

> <s_lp_Force_Field>
OPLS_2005

> <r_lp_Energy>
45.1618

> <b_lp_Chiralities_Consistent>
1

> <s_lp_Variant>
BACE_45.smi:1-2

> <chiral flag>
1

> <version>
0

> <s_i_glide_gridfile>
second_dock_grid_2

> <i_i_glide_lignum>
84

> <i_i_glide_rotatable_bonds>
7

> <r_i_docking_score>
-3.10622

> <r_i_glide_ligand_efficiency>
-0.0862838

> <r_i_glide_ligand_efficiency_sa>
-0.284903

> <r_i_glide_ligand_efficiency_ln>
-0.677693

> <r_glide_XP_GScore>
-5.36572

> <r_i_glide_gscore>
-5.36572

> <r_i_glide_evdw>
-42.4128

> <r_i_glide_ecoul>
-14.2665

> <r_i_glide_energy>
-56.6793

> <r_i_glide_einternal>
12.9758

> <r_i_glide_emodel>
-81.9088

> <r_glide_XP_HBond>
-0.914352

> <i_i_glide_confnum>
1

> <i_i_glide_posenum>
5

> <r_i_glide_eff_state_penalty>
2.2595

> <i_glide_XP_PoseRank>
1

$$$$
BACE_45.smi:1
                    3D
 Structure written by MMmdl.
 82 84  0  0  1  0            999 V2000
   31.0265   44.2945   -7.9610 C   0  0  0  0  0  0
   30.8035   44.7461   -9.4127 C   0  0  0  0  0  0
   30.1320   46.1257   -9.4851 C   0  0  0  0  0  0
   30.0322   43.7031  -10.2101 C   0  0  0  0  0  0
   30.6515   43.0413  -11.2919 C   0  0  0  0  0  0
   29.9449   42.0702  -12.0273 C   0  0  0  0  0  0
   28.6192   41.7500  -11.6770 C   0  0  0  0  0  0
   27.9910   42.4049  -10.5959 C   0  0  0  0  0  0
   26.5798   42.0299  -10.1884 C   0  0  0  0  0  0
   25.6027   42.3766  -11.2398 N   0  3  0  0  0  0
   24.1735   42.3757  -10.8361 C   0  0  0  0  0  0
   23.6771   41.0076  -10.2963 C   0  0  1  0  0  0
   24.1067   40.9497   -8.9567 O   0  0  0  0  0  0
   22.1341   40.7934  -10.3181 C   0  0  2  0  0  0
   21.6984   39.3676   -9.8764 C   0  0  0  0  0  0
   21.3368   39.3082   -8.4042 C   0  0  0  0  0  0
   22.4550   38.9507   -7.4537 C   0  0  0  0  0  0
   20.1026   39.6266   -7.9777 C   0  0  0  0  0  0
   19.6594   39.7789   -6.5415 C   0  0  0  0  0  0
   18.5909   38.7723   -6.1075 C   0  0  0  0  0  0
   17.2208   38.9470   -6.7889 C   0  0  0  0  0  0
   17.0381   38.0662   -8.0399 C   0  0  0  0  0  0
   15.6066   38.0776   -8.6035 C   0  0  0  0  0  0
   15.1460   39.4303   -9.1771 C   0  0  0  0  0  0
   15.9063   39.8074  -10.3654 N   0  0  0  0  0  0
   17.0271   40.6442  -10.2552 C   0  0  0  0  0  0
   18.0929   40.5509  -11.1762 C   0  0  0  0  0  0
   19.2242   41.3866  -11.0384 C   0  0  0  0  0  0
   19.2380   42.3455   -9.9984 C   0  0  0  0  0  0
   18.1562   42.3933   -9.0939 C   0  0  0  0  0  0
   18.1277   43.3463   -7.9185 C   0  0  0  0  0  0
   17.1066   41.5593   -9.2620 N   0  3  0  0  0  0
   20.3344   41.2822  -12.0472 C   0  0  0  0  0  0
   20.0583   41.3498  -13.2396 O   0  0  0  0  0  0
   21.6041   41.0654  -11.6550 N   0  0  0  0  0  0
   28.7001   43.3856   -9.8710 C   0  0  0  0  0  0
   24.1534   40.1946  -10.8396 H   0  0  0  0  0  0
   21.7064   41.5301   -9.6370 H   0  0  0  0  0  0
   31.5560   43.3409   -7.9210 H   0  0  0  0  0  0
   30.0837   44.1727   -7.4260 H   0  0  0  0  0  0
   31.6241   45.0220   -7.4112 H   0  0  0  0  0  0
   31.7902   44.8484   -9.8684 H   0  0  0  0  0  0
   30.0278   46.4541  -10.5191 H   0  0  0  0  0  0
   30.7202   46.8764   -8.9587 H   0  0  0  0  0  0
   29.1376   46.1146   -9.0382 H   0  0  0  0  0  0
   31.6705   43.2712  -11.5657 H   0  0  0  0  0  0
   30.4209   41.5598  -12.8505 H   0  0  0  0  0  0
   28.0995   40.9778  -12.2264 H   0  0  0  0  0  0
   26.5460   40.9590   -9.9837 H   0  0  0  0  0  0
   26.3177   42.5509   -9.2678 H   0  0  0  0  0  0
   25.8313   43.3015  -11.5712 H   0  0  0  0  0  0
   23.9955   43.1672  -10.1089 H   0  0  0  0  0  0
   23.6204   42.6603  -11.7305 H   0  0  0  0  0  0
   24.0186   40.0519   -8.6608 H   0  0  0  0  0  0
   20.8134   39.0434  -10.4224 H   0  0  0  0  0  0
   22.4600   38.6257  -10.1210 H   0  0  0  0  0  0
   23.2839   38.5504   -8.0291 H   0  0  0  0  0  0
   22.1206   38.1931   -6.7449 H   0  0  0  0  0  0
   22.7928   39.8254   -6.8959 H   0  0  0  0  0  0
   19.3523   39.8683   -8.7083 H   0  0  0  0  0  0
   20.5092   39.7173   -5.8608 H   0  0  0  0  0  0
   19.2607   40.7885   -6.4402 H   0  0  0  0  0  0
   18.9516   37.7509   -6.2207 H   0  0  0  0  0  0
   18.4599   38.9200   -5.0371 H   0  0  0  0  0  0
   16.4559   38.6680   -6.0661 H   0  0  0  0  0  0
   17.0372   39.9977   -7.0063 H   0  0  0  0  0  0
   17.7553   38.3244   -8.8166 H   0  0  0  0  0  0
   17.2684   37.0356   -7.7651 H   0  0  0  0  0  0
   15.5270   37.3153   -9.3796 H   0  0  0  0  0  0
   14.9228   37.7599   -7.8136 H   0  0  0  0  0  0
   14.1020   39.3403   -9.4773 H   0  0  0  0  0  0
   15.1574   40.1995   -8.4082 H   0  0  0  0  0  0
   15.9438   39.1057  -11.0905 H   0  0  0  0  0  0
   18.0606   39.8260  -11.9777 H   0  0  0  0  0  0
   20.0698   43.0234   -9.8848 H   0  0  0  0  0  0
   19.1356   43.5247   -7.5437 H   0  0  0  0  0  0
   17.5364   42.9396   -7.0970 H   0  0  0  0  0  0
   17.6934   44.3012   -8.2129 H   0  0  0  0  0  0
   22.2765   40.9655  -12.4074 H   0  0  0  0  0  0
   28.2273   43.8822   -9.0377 H   0  0  0  0  0  0
   25.7158   41.7303  -12.0055 H   0  0  0  0  0  0
   16.3395   41.6139   -8.5881 H   0  0  0  0  0  0
  1  2  1  0  0  0
  1 39  1  0  0  0
  1 40  1  0  0  0
  1 41  1  0  0  0
  2  3  1  0  0  0
  2  4  1  0  0  0
  2 42  1  0  0  0
  3 43  1  0  0  0
  3 44  1  0  0  0
  3 45  1  0  0  0
  4 36  1  0  0  0
  4  5  2  0  0  0
  5  6  1  0  0  0
  5 46  1  0  0  0
  6  7  2  0  0  0
  6 47  1  0  0  0
  7  8  1  0  0  0
  7 48  1  0  0  0
  8  9  1  0  0  0
  8 36  2  0  0  0
  9 10  1  0  0  0
  9 49  1  0  0  0
  9 50  1  0  0  0
 10 11  1  0  0  0
 10 51  1  0  0  0
 10 81  1  0  0  0
 11 12  1  0  0  0
 11 52  1  0  0  0
 11 53  1  0  0  0
 12 37  1  0  0  0
 12 13  1  0  0  0
 12 14  1  0  0  0
 13 54  1  0  0  0
 14 38  1  0  0  0
 14 35  1  0  0  0
 14 15  1  0  0  0
 15 16  1  0  0  0
 15 55  1  0  0  0
 15 56  1  0  0  0
 16 17  1  0  0  0
 16 18  2  0  0  0
 17 57  1  0  0  0
 17 58  1  0  0  0
 17 59  1  0  0  0
 18 19  1  0  0  0
 18 60  1  0  0  0
 19 20  1  0  0  0
 19 61  1  0  0  0
 19 62  1  0  0  0
 20 21  1  0  0  0
 20 63  1  0  0  0
 20 64  1  0  0  0
 21 22  1  0  0  0
 21 65  1  0  0  0
 21 66  1  0  0  0
 22 23  1  0  0  0
 22 67  1  0  0  0
 22 68  1  0  0  0
 23 24  1  0  0  0
 23 69  1  0  0  0
 23 70  1  0  0  0
 24 25  1  0  0  0
 24 71  1  0  0  0
 24 72  1  0  0  0
 25 26  1  0  0  0
 25 73  1  0  0  0
 26 32  1  0  0  0
 26 27  2  0  0  0
 27 28  1  0  0  0
 27 74  1  0  0  0
 28 29  2  0  0  0
 28 33  1  0  0  0
 29 30  1  0  0  0
 29 75  1  0  0  0
 30 31  1  0  0  0
 30 32  2  0  0  0
 31 76  1  0  0  0
 31 77  1  0  0  0
 31 78  1  0  0  0
 32 82  1  0  0  0
 33 34  2  0  0  0
 33 35  1  0  0  0
 35 79  1  0  0  0
 36 80  1  0  0  0
M  CHG  2  10   1  32   1
M  END
> <s_m_source_file>
BACE_45.smi

> <i_m_source_file_index>
1

> <i_lp_mmshare_version>
42013

> <i_f3d_flags>
0

> <s_epik_input>
W0NIM11bQ0hdKFtDSDNdKWMxW2NIXVtjSF1bY0hdYyhbY0hdMSlbQ0gyXVtOSF1bQ0gyXVtDQEBIXShbT0hdKVtDQEBIXShbTkhdQyg9TyljKFtjSF1jMjMpW2NIXWMobjMpW0NIM10pW0NIMl0vQyhbQ0gzXSk9W0NIXS9bQ0gyXVtDSDJdW0NIMl1bQ0gyXVtDSDJdW0NIMl1bTkhdMg==

> <s_epik_cmdline>
J2VwaWtfcHl0aG9uJywgJy1waCcsICc3LjAnLCAnLXRuJywgJzgnLCAnLW1hJywgJzIwMCcsICctaW1hZScsICc8aW5maWxlLm1hZT4nLCAnLW9tYWUnLCAnPG91dGZpbGUubWFlPic=

> <r_lp_tautomer_probability>
0.999994

> <r_epik_Ionization_Penalty>
  2.4053

> <r_epik_Ionization_Penalty_Charging>
  2.4053

> <r_epik_Ionization_Penalty_Neutral>
  0.0000

> <r_epik_State_Penalty>
  2.4952

> <r_epik_Charging_Adjusted_Penalty>
4.90049

> <i_epik_Tot_Q>
2

> <i_epik_Tot_abs_Q>
2

> <s_lp_Force_Field>
OPLS_2005

> <r_lp_Energy>
38.0733

> <b_lp_Chiralities_Consistent>
1

> <s_lp_Variant>
BACE_45.smi:1-3

> <chiral flag>
1

> <version>
0

> <s_i_glide_gridfile>
second_dock_grid_2

> <i_i_glide_lignum>
85

> <i_i_glide_rotatable_bonds>
7

> <r_i_docking_score>
-2.65298

> <r_i_glide_ligand_efficiency>
-0.0736938

> <r_i_glide_ligand_efficiency_sa>
-0.243331

> <r_i_glide_ligand_efficiency_ln>
-0.578808

> <r_glide_XP_GScore>
-5.14818

> <r_i_glide_gscore>
-5.14818

> <r_i_glide_evdw>
-39.111

> <r_i_glide_ecoul>
-14.6892

> <r_i_glide_energy>
-53.8002

> <r_i_glide_einternal>
1.18159

> <r_i_glide_emodel>
-72.7363

> <r_glide_XP_HBond>
-1.32627

> <i_i_glide_confnum>
1

> <i_i_glide_posenum>
6

> <r_i_glide_eff_state_penalty>
2.4952

> <i_glide_XP_PoseRank>
1

$$$$
BACE_46.smi:1
                    3D
 Structure written by MMmdl.
 78 80  0  0  1  0            999 V2000
   21.2398   41.0881   -7.9597 C   0  0  0  0  0  0
   20.8472   39.8049   -7.2228 C   0  0  0  0  0  0
   22.0595   38.8860   -7.0336 C   0  0  0  0  0  0
   19.6801   39.1039   -7.9029 C   0  0  0  0  0  0
   19.8417   38.3905   -9.1102 C   0  0  0  0  0  0
   18.7362   37.7509   -9.7047 C   0  0  0  0  0  0
   17.4635   37.8179   -9.1042 C   0  0  0  0  0  0
   17.2899   38.5500   -7.9126 C   0  0  0  0  0  0
   15.9232   38.6835   -7.2635 C   0  0  0  0  0  0
   15.3008   40.0123   -7.4627 N   0  3  0  0  0  0
   15.0038   40.3924   -8.8690 C   0  0  0  0  0  0
   16.1887   41.0966   -9.5849 C   0  0  1  0  0  0
   15.8655   41.2055  -10.9581 O   0  0  0  0  0  0
   16.5047   42.5015   -9.0035 C   0  0  2  0  0  0
   15.5786   43.6344   -9.5139 C   0  0  0  0  0  0
   15.3316   44.7588   -8.4844 C   0  0  2  0  0  0
   13.8579   44.7447   -8.0398 C   0  0  0  0  0  0
   15.7844   46.1448   -8.9921 C   0  0  0  0  0  0
   17.2626   46.3795   -8.7750 C   0  0  0  0  0  0
   17.7589   47.1817   -7.8167 C   0  0  0  0  0  0
   19.2319   47.3531   -7.5275 C   0  0  0  0  0  0
   19.5948   46.7129   -6.1785 C   0  0  0  0  0  0
   21.1034   46.6025   -5.9114 C   0  0  0  0  0  0
   21.7805   45.3758   -6.5458 C   0  0  0  0  0  0
   22.2003   45.6261   -7.9147 N   0  0  0  0  0  0
   21.7442   44.7840   -8.9303 C   0  0  0  0  0  0
   20.4173   44.3073   -8.9972 C   0  0  0  0  0  0
   20.0440   43.4829  -10.0851 C   0  0  0  0  0  0
   21.0257   43.1744  -11.0477 C   0  0  0  0  0  0
   22.3239   43.6964  -10.8887 C   0  0  0  0  0  0
   23.5289   43.3501  -12.0657 Cl  0  0  0  0  0  0
   22.6713   44.4872   -9.8550 N   0  0  0  0  0  0
   18.6319   42.9993  -10.2574 C   0  0  0  0  0  0
   18.1841   42.7415  -11.3780 O   0  0  0  0  0  0
   17.9216   42.8584   -9.1228 N   0  0  0  0  0  0
   18.3994   39.1834   -7.3224 C   0  0  0  0  0  0
   17.0812   40.4785   -9.5389 H   0  0  0  0  0  0
   16.3577   42.4200   -7.9248 H   0  0  0  0  0  0
   15.9143   44.5604   -7.5847 H   0  0  0  0  0  0
   20.3941   41.7735   -7.9901 H   0  0  0  0  0  0
   21.5513   40.8783   -8.9842 H   0  0  0  0  0  0
   22.0561   41.6001   -7.4507 H   0  0  0  0  0  0
   20.5189   40.0952   -6.2208 H   0  0  0  0  0  0
   21.7923   38.0091   -6.4446 H   0  0  0  0  0  0
   22.8598   39.4064   -6.5044 H   0  0  0  0  0  0
   22.4625   38.5495   -7.9884 H   0  0  0  0  0  0
   20.8090   38.3293   -9.5856 H   0  0  0  0  0  0
   18.8635   37.2058  -10.6279 H   0  0  0  0  0  0
   16.6231   37.3267   -9.5730 H   0  0  0  0  0  0
   15.2518   37.9012   -7.6187 H   0  0  0  0  0  0
   16.0543   38.5520   -6.1896 H   0  0  0  0  0  0
   14.4246   39.9925   -6.9532 H   0  0  0  0  0  0
   14.6929   39.5036   -9.4208 H   0  0  0  0  0  0
   14.1393   41.0563   -8.8638 H   0  0  0  0  0  0
   16.6119   41.6194  -11.3753 H   0  0  0  0  0  0
   15.9628   44.0427  -10.4483 H   0  0  0  0  0  0
   14.6151   43.2053   -9.7940 H   0  0  0  0  0  0
   13.1835   44.9471   -8.8703 H   0  0  0  0  0  0
   13.6674   45.4641   -7.2454 H   0  0  0  0  0  0
   13.5947   43.7632   -7.6447 H   0  0  0  0  0  0
   15.5497   46.2835  -10.0469 H   0  0  0  0  0  0
   15.2614   46.9265   -8.4506 H   0  0  0  0  0  0
   17.9343   45.8291   -9.4153 H   0  0  0  0  0  0
   17.0866   47.7075   -7.1548 H   0  0  0  0  0  0
   19.8056   46.9115   -8.3418 H   0  0  0  0  0  0
   19.4731   48.4165   -7.5238 H   0  0  0  0  0  0
   19.1370   47.3102   -5.3866 H   0  0  0  0  0  0
   19.1453   45.7219   -6.1002 H   0  0  0  0  0  0
   21.6214   47.5251   -6.1825 H   0  0  0  0  0  0
   21.2368   46.5040   -4.8401 H   0  0  0  0  0  0
   22.6865   45.1473   -5.9836 H   0  0  0  0  0  0
   21.1509   44.4882   -6.4580 H   0  0  0  0  0  0
   23.1746   45.8769   -8.0103 H   0  0  0  0  0  0
   19.7002   44.5892   -8.2400 H   0  0  0  0  0  0
   20.7908   42.5539  -11.9009 H   0  0  0  0  0  0
   18.4079   43.0593   -8.2624 H   0  0  0  0  0  0
   18.2615   39.7505   -6.4242 H   0  0  0  0  0  0
   15.8772   40.7136   -7.0227 H   0  0  0  0  0  0
  1  2  1  0  0  0
  1 40  1  0  0  0
  1 41  1  0  0  0
  1 42  1  0  0  0
  2  3  1  0  0  0
  2  4  1  0  0  0
  2 43  1  0  0  0
  3 44  1  0  0  0
  3 45  1  0  0  0
  3 46  1  0  0  0
  4 36  1  0  0  0
  4  5  2  0  0  0
  5  6  1  0  0  0
  5 47  1  0  0  0
  6  7  2  0  0  0
  6 48  1  0  0  0
  7  8  1  0  0  0
  7 49  1  0  0  0
  8  9  1  0  0  0
  8 36  2  0  0  0
  9 10  1  0  0  0
  9 50  1  0  0  0
  9 51  1  0  0  0
 10 11  1  0  0  0
 10 52  1  0  0  0
 10 78  1  0  0  0
 11 12  1  0  0  0
 11 53  1  0  0  0
 11 54  1  0  0  0
 12 37  1  0  0  0
 12 13  1  0  0  0
 12 14  1  0  0  0
 13 55  1  0  0  0
 14 38  1  0  0  0
 14 35  1  0  0  0
 14 15  1  0  0  0
 15 16  1  0  0  0
 15 56  1  0  0  0
 15 57  1  0  0  0
 16 39  1  0  0  0
 16 17  1  0  0  0
 16 18  1  0  0  0
 17 58  1  0  0  0
 17 59  1  0  0  0
 17 60  1  0  0  0
 18 19  1  0  0  0
 18 61  1  0  0  0
 18 62  1  0  0  0
 19 20  2  0  0  0
 19 63  1  0  0  0
 20 21  1  0  0  0
 20 64  1  0  0  0
 21 22  1  0  0  0
 21 65  1  0  0  0
 21 66  1  0  0  0
 22 23  1  0  0  0
 22 67  1  0  0  0
 22 68  1  0  0  0
 23 24  1  0  0  0
 23 69  1  0  0  0
 23 70  1  0  0  0
 24 25  1  0  0  0
 24 71  1  0  0  0
 24 72  1  0  0  0
 25 26  1  0  0  0
 25 73  1  0  0  0
 26 32  1  0  0  0
 26 27  2  0  0  0
 27 28  1  0  0  0
 27 74  1  0  0  0
 28 29  2  0  0  0
 28 33  1  0  0  0
 29 30  1  0  0  0
 29 75  1  0  0  0
 30 31  1  0  0  0
 30 32  2  0  0  0
 33 34  2  0  0  0
 33 35  1  0  0  0
 35 76  1  0  0  0
 36 77  1  0  0  0
M  CHG  1  10   1
M  END
> <s_m_source_file>
BACE_46.smi

> <i_m_source_file_index>
1

> <i_lp_mmshare_version>
42013

> <i_f3d_flags>
0

> <s_epik_input>
W0NIM11bQ0hdKFtDSDNdKWMxW2NIXVtjSF1bY0hdYyhbY0hdMSlbQ0gyXVtOSF1bQ0gyXVtDQEBIXShbT0hdKVtDQEBIXShbTkhdQyg9TyljKFtjSF1jMjMpW2NIXWMoQ2wpbjMpW0NIMl1bQ0BIXShbQ0gzXSlbQ0gyXS9bQ0hdPVtDSF0vW0NIMl1bQ0gyXVtDSDJdW0NIMl1bTkhdMg==

> <s_epik_cmdline>
J2VwaWtfcHl0aG9uJywgJy1waCcsICc3LjAnLCAnLXRuJywgJzgnLCAnLW1hJywgJzIwMCcsICctaW1hZScsICc8aW5maWxlLm1hZT4nLCAnLW9tYWUnLCAnPG91dGZpbGUubWFlPic=

> <r_lp_tautomer_probability>
1

> <r_epik_Ionization_Penalty>
  0.0175

> <r_epik_Ionization_Penalty_Charging>
  0.0175

> <r_epik_Ionization_Penalty_Neutral>
  0.0000

> <r_epik_State_Penalty>
  0.0139

> <r_epik_Charging_Adjusted_Penalty>
0.0313485

> <i_epik_Tot_Q>
1

> <i_epik_Tot_abs_Q>
1

> <s_lp_Force_Field>
OPLS_2005

> <r_lp_Energy>
24.6807

> <b_lp_Chiralities_Consistent>
1

> <s_lp_Variant>
BACE_46.smi:1-1

> <chiral flag>
1

> <version>
0

> <s_i_glide_gridfile>
second_dock_grid_2

> <i_i_glide_lignum>
86

> <i_i_glide_rotatable_bonds>
7

> <r_i_docking_score>
-3.94975

> <r_i_glide_ligand_efficiency>
-0.109715

> <r_i_glide_ligand_efficiency_sa>
-0.362272

> <r_i_glide_ligand_efficiency_ln>
-0.861728

> <r_glide_XP_GScore>
-3.96365

> <r_i_glide_gscore>
-3.96365

> <r_i_glide_evdw>
-33.8005

> <r_i_glide_ecoul>
-11.3038

> <r_i_glide_energy>
-45.1043

> <r_i_glide_einternal>
5.1441

> <r_i_glide_emodel>
-61.1637

> <r_glide_XP_HBond>
-0.48

> <i_i_glide_confnum>
1

> <i_i_glide_posenum>
3

> <r_i_glide_eff_state_penalty>
0.0139

> <i_glide_XP_PoseRank>
1

$$$$
BACE_46.smi:1
                    3D
 Structure written by MMmdl.
 77 79  0  0  1  0            999 V2000
   24.6209   50.5799   -0.4757 C   0  0  0  0  0  0
   25.1266   49.7736   -1.6854 C   0  0  0  0  0  0
   26.3967   50.4010   -2.2750 C   0  0  0  0  0  0
   24.0790   49.5553   -2.7743 C   0  0  0  0  0  0
   23.0161   50.4638   -2.9851 C   0  0  0  0  0  0
   22.0791   50.2332   -4.0112 C   0  0  0  0  0  0
   22.2064   49.1085   -4.8481 C   0  0  0  0  0  0
   23.2629   48.1948   -4.6506 C   0  0  0  0  0  0
   23.4143   46.9755   -5.5468 C   0  0  0  0  0  0
   22.4410   45.9292   -5.2404 N   0  0  0  0  0  0
   21.2378   45.9490   -6.0794 C   0  0  0  0  0  0
   20.0925   45.0770   -5.5065 C   0  0  1  0  0  0
   18.8692   45.6167   -5.9765 O   0  0  0  0  0  0
   20.1164   43.5300   -5.7258 C   0  0  2  0  0  0
   21.4924   42.8311   -5.5543 C   0  0  0  0  0  0
   21.4490   41.3426   -5.0939 C   0  0  2  0  0  0
   22.3966   41.1304   -3.8976 C   0  0  0  0  0  0
   21.7799   40.3102   -6.1996 C   0  0  0  0  0  0
   20.6213   40.0173   -7.1301 C   0  0  0  0  0  0
   19.8135   38.9500   -7.0186 C   0  0  0  0  0  0
   18.6106   38.6783   -7.8980 C   0  0  0  0  0  0
   17.3098   38.8214   -7.0887 C   0  0  0  0  0  0
   16.0069   38.6879   -7.8991 C   0  0  0  0  0  0
   15.4544   40.0095   -8.4703 C   0  0  0  0  0  0
   15.9967   40.3446   -9.7833 N   0  0  0  0  0  0
   16.8714   41.4232   -9.9535 C   0  0  0  0  0  0
   17.7397   41.8635   -8.9316 C   0  0  0  0  0  0
   18.6564   42.9005   -9.2075 C   0  0  0  0  0  0
   18.6246   43.4835  -10.4890 C   0  0  0  0  0  0
   17.7007   43.0035  -11.4319 C   0  0  0  0  0  0
   17.6602   43.7490  -12.9831 Cl  0  0  0  0  0  0
   16.8465   41.9914  -11.1768 N   0  0  0  0  0  0
   19.6751   43.3506   -8.1998 C   0  0  0  0  0  0
   20.6757   43.9685   -8.5588 O   0  0  0  0  0  0
   19.3805   43.0978   -6.9148 N   0  0  0  0  0  0
   24.1890   48.4221   -3.6107 C   0  0  0  0  0  0
   20.0607   45.2454   -4.4400 H   0  0  0  0  0  0
   19.4997   43.1504   -4.9120 H   0  0  0  0  0  0
   20.4501   41.1136   -4.7208 H   0  0  0  0  0  0
   23.7114   50.1474   -0.0602 H   0  0  0  0  0  0
   24.4162   51.6179   -0.7361 H   0  0  0  0  0  0
   25.3676   50.5960    0.3200 H   0  0  0  0  0  0
   25.3950   48.7863   -1.3082 H   0  0  0  0  0  0
   26.8309   49.7656   -3.0470 H   0  0  0  0  0  0
   27.1595   50.5491   -1.5078 H   0  0  0  0  0  0
   26.1839   51.3697   -2.7258 H   0  0  0  0  0  0
   22.9039   51.3426   -2.3681 H   0  0  0  0  0  0
   21.2598   50.9238   -4.1520 H   0  0  0  0  0  0
   21.4889   48.9458   -5.6366 H   0  0  0  0  0  0
   23.3599   47.2763   -6.5953 H   0  0  0  0  0  0
   24.4212   46.5786   -5.4045 H   0  0  0  0  0  0
   22.8872   45.0174   -5.2894 H   0  0  0  0  0  0
   20.8738   46.9749   -6.1344 H   0  0  0  0  0  0
   21.4816   45.6756   -7.1037 H   0  0  0  0  0  0
   18.7847   45.3797   -6.8885 H   0  0  0  0  0  0
   22.1014   42.9433   -6.4511 H   0  0  0  0  0  0
   22.0260   43.3875   -4.7849 H   0  0  0  0  0  0
   23.4333   41.3243   -4.1700 H   0  0  0  0  0  0
   22.3403   40.1102   -3.5191 H   0  0  0  0  0  0
   22.1437   41.7910   -3.0679 H   0  0  0  0  0  0
   22.6459   40.6213   -6.7839 H   0  0  0  0  0  0
   22.0611   39.3625   -5.7376 H   0  0  0  0  0  0
   20.4406   40.7341   -7.9121 H   0  0  0  0  0  0
   19.9810   38.2400   -6.2251 H   0  0  0  0  0  0
   18.6215   39.3459   -8.7574 H   0  0  0  0  0  0
   18.6905   37.6658   -8.2965 H   0  0  0  0  0  0
   17.3242   38.0639   -6.3134 H   0  0  0  0  0  0
   17.2958   39.7509   -6.5292 H   0  0  0  0  0  0
   16.0972   37.9233   -8.6706 H   0  0  0  0  0  0
   15.2492   38.3082   -7.2116 H   0  0  0  0  0  0
   14.3778   39.8990   -8.6065 H   0  0  0  0  0  0
   15.5666   40.8264   -7.7565 H   0  0  0  0  0  0
   15.4072   40.1202  -10.5699 H   0  0  0  0  0  0
   17.7352   41.3822   -7.9678 H   0  0  0  0  0  0
   19.3037   44.2812  -10.7529 H   0  0  0  0  0  0
   18.5415   42.5616   -6.7303 H   0  0  0  0  0  0
   25.0009   47.7254   -3.4628 H   0  0  0  0  0  0
  1  2  1  0  0  0
  1 40  1  0  0  0
  1 41  1  0  0  0
  1 42  1  0  0  0
  2  3  1  0  0  0
  2  4  1  0  0  0
  2 43  1  0  0  0
  3 44  1  0  0  0
  3 45  1  0  0  0
  3 46  1  0  0  0
  4 36  1  0  0  0
  4  5  2  0  0  0
  5  6  1  0  0  0
  5 47  1  0  0  0
  6  7  2  0  0  0
  6 48  1  0  0  0
  7  8  1  0  0  0
  7 49  1  0  0  0
  8  9  1  0  0  0
  8 36  2  0  0  0
  9 10  1  0  0  0
  9 50  1  0  0  0
  9 51  1  0  0  0
 10 11  1  0  0  0
 10 52  1  0  0  0
 11 12  1  0  0  0
 11 53  1  0  0  0
 11 54  1  0  0  0
 12 37  1  0  0  0
 12 13  1  0  0  0
 12 14  1  0  0  0
 13 55  1  0  0  0
 14 38  1  0  0  0
 14 35  1  0  0  0
 14 15  1  0  0  0
 15 16  1  0  0  0
 15 56  1  0  0  0
 15 57  1  0  0  0
 16 39  1  0  0  0
 16 17  1  0  0  0
 16 18  1  0  0  0
 17 58  1  0  0  0
 17 59  1  0  0  0
 17 60  1  0  0  0
 18 19  1  0  0  0
 18 61  1  0  0  0
 18 62  1  0  0  0
 19 20  2  0  0  0
 19 63  1  0  0  0
 20 21  1  0  0  0
 20 64  1  0  0  0
 21 22  1  0  0  0
 21 65  1  0  0  0
 21 66  1  0  0  0
 22 23  1  0  0  0
 22 67  1  0  0  0
 22 68  1  0  0  0
 23 24  1  0  0  0
 23 69  1  0  0  0
 23 70  1  0  0  0
 24 25  1  0  0  0
 24 71  1  0  0  0
 24 72  1  0  0  0
 25 26  1  0  0  0
 25 73  1  0  0  0
 26 32  1  0  0  0
 26 27  2  0  0  0
 27 28  1  0  0  0
 27 74  1  0  0  0
 28 29  2  0  0  0
 28 33  1  0  0  0
 29 30  1  0  0  0
 29 75  1  0  0  0
 30 31  1  0  0  0
 30 32  2  0  0  0
 33 34  2  0  0  0
 33 35  1  0  0  0
 35 76  1  0  0  0
 36 77  1  0  0  0
M  END
> <s_m_source_file>
BACE_46.smi

> <i_m_source_file_index>
1

> <i_lp_mmshare_version>
42013

> <i_f3d_flags>
0

> <s_epik_input>
W0NIM11bQ0hdKFtDSDNdKWMxW2NIXVtjSF1bY0hdYyhbY0hdMSlbQ0gyXVtOSF1bQ0gyXVtDQEBIXShbT0hdKVtDQEBIXShbTkhdQyg9TyljKFtjSF1jMjMpW2NIXWMoQ2wpbjMpW0NIMl1bQ0BIXShbQ0gzXSlbQ0gyXS9bQ0hdPVtDSF0vW0NIMl1bQ0gyXVtDSDJdW0NIMl1bTkhdMg==

> <s_epik_cmdline>
J2VwaWtfcHl0aG9uJywgJy1waCcsICc3LjAnLCAnLXRuJywgJzgnLCAnLW1hJywgJzIwMCcsICctaW1hZScsICc8aW5maWxlLm1hZT4nLCAnLW9tYWUnLCAnPG91dGZpbGUubWFlPic=

> <r_lp_tautomer_probability>
1

> <r_epik_Ionization_Penalty>
  2.0960

> <r_epik_Ionization_Penalty_Charging>
  0.0000

> <r_epik_Ionization_Penalty_Neutral>
  2.0960

> <r_epik_State_Penalty>
  2.2318

> <r_epik_Charging_Adjusted_Penalty>
2.2318

> <i_epik_Tot_Q>
0

> <i_epik_Tot_abs_Q>
0

> <s_lp_Force_Field>
OPLS_2005

> <r_lp_Energy>
33.4355

> <b_lp_Chiralities_Consistent>
1

> <s_lp_Variant>
BACE_46.smi:1-2

> <chiral flag>
1

> <version>
0

> <s_i_glide_gridfile>
second_dock_grid_2

> <i_i_glide_lignum>
87

> <i_i_glide_rotatable_bonds>
7

> <r_i_docking_score>
-2.263

> <r_i_glide_ligand_efficiency>
-0.0628612

> <r_i_glide_ligand_efficiency_sa>
-0.207563

> <r_i_glide_ligand_efficiency_ln>
-0.493726

> <r_glide_XP_GScore>
-4.4948

> <r_i_glide_gscore>
-4.4948

> <r_i_glide_evdw>
-41.7134

> <r_i_glide_ecoul>
-11.0458

> <r_i_glide_energy>
-52.7591

> <r_i_glide_einternal>
2.43409

> <r_i_glide_emodel>
-71.6543

> <r_glide_XP_HBond>
-0.987354

> <i_i_glide_confnum>
1

> <i_i_glide_posenum>
24

> <r_i_glide_eff_state_penalty>
2.2318

> <i_glide_XP_PoseRank>
1

$$$$
BACE_47.smi:1
                    3D
 Structure written by MMmdl.
 91 94  0  0  1  0            999 V2000
   26.5024   44.4441  -12.9966 C   0  0  0  0  0  0
   25.3044   45.1924  -12.8800 O   0  0  0  0  0  0
   25.0685   45.6843  -11.5609 C   0  0  0  0  0  0
   24.7453   44.6096  -10.5356 C   0  0  0  0  0  0
   25.0810   44.7969   -9.1801 C   0  0  0  0  0  0
   24.7815   43.7732   -8.2583 C   0  0  0  0  0  0
   24.1555   42.6012   -8.7422 C   0  0  0  0  0  0
   23.8555   42.5138  -10.1177 C   0  0  0  0  0  0
   23.2933   41.3646  -10.6670 N   0  0  0  0  0  0
   21.9184   41.0996  -10.2803 C   0  0  0  0  0  0
   21.6254   39.5925  -10.2762 C   0  0  0  0  0  0
   20.1420   39.2513  -10.0539 C   0  0  0  0  0  0
   19.5809   39.7759   -8.7263 C   0  0  0  0  0  0
   20.2810   39.1749   -7.6486 O   0  0  0  0  0  0
   20.1245   39.8736   -6.4238 C   0  0  0  0  0  0
   21.4134   40.6597   -6.1349 C   0  0  0  0  0  0
   21.3490   41.6005   -4.9071 C   0  0  1  0  0  0
   21.0692   40.8158   -3.6106 C   0  0  0  0  0  0
   22.6612   42.4086   -4.7610 C   0  0  0  0  0  0
   22.9356   43.5190   -5.8112 C   0  0  2  0  0  0
   24.3814   43.7495   -5.8180 N   0  0  0  0  0  0
   25.2461   43.9004   -6.8343 C   0  0  0  0  0  0
   26.4235   44.1790   -6.6142 O   0  0  0  0  0  0
   22.1434   44.8277   -5.5142 C   0  0  2  0  0  0
   20.8343   44.6919   -6.0272 O   0  0  0  0  0  0
   22.6994   46.1396   -6.1104 C   0  0  0  0  0  0
   23.9013   46.5897   -5.4030 N   0  0  0  0  0  0
   24.3545   47.9389   -5.7109 C   0  0  0  0  0  0
   24.4973   48.3835   -7.1536 C   0  0  0  0  0  0
   25.7287   48.0658   -6.3361 C   0  0  0  0  0  0
   23.9203   48.8964   -4.6473 C   0  0  0  0  0  0
   24.7437   49.1477   -3.5267 C   0  0  0  0  0  0
   24.3287   50.0142   -2.4864 C   0  0  0  0  0  0
   23.0391   50.5920   -2.5817 C   0  0  0  0  0  0
   22.2208   50.3555   -3.6991 C   0  0  0  0  0  0
   22.6575   49.5078   -4.7290 C   0  0  0  0  0  0
   25.2308   50.3085   -1.2689 C   0  0  0  0  0  0
   24.8407   49.3688   -0.1160 C   0  0  0  0  0  0
   26.7324   50.1246   -1.5904 C   0  0  0  0  0  0
   25.0599   51.7661   -0.7977 C   0  0  0  0  0  0
   24.1332   43.4966  -10.9921 N   0  0  0  0  0  0
   20.5201   42.2944   -5.0451 H   0  0  0  0  0  0
   22.6311   43.1709   -6.7912 H   0  0  0  0  0  0
   22.0567   44.9607   -4.4390 H   0  0  0  0  0  0
   26.6357   44.1516  -14.0339 H   0  0  0  0  0  0
   26.4801   43.5316  -12.3994 H   0  0  0  0  0  0
   27.3679   45.0330  -12.6971 H   0  0  0  0  0  0
   24.2143   46.3618  -11.6032 H   0  0  0  0  0  0
   25.9195   46.2767  -11.2276 H   0  0  0  0  0  0
   25.5866   45.6950   -8.8564 H   0  0  0  0  0  0
   23.9576   41.7673   -8.0864 H   0  0  0  0  0  0
   23.4568   41.2858  -11.6686 H   0  0  0  0  0  0
   21.2651   41.6039  -10.9933 H   0  0  0  0  0  0
   21.7117   41.5313   -9.3020 H   0  0  0  0  0  0
   21.9279   39.1696  -11.2328 H   0  0  0  0  0  0
   22.2384   39.1005   -9.5193 H   0  0  0  0  0  0
   19.5526   39.6605  -10.8751 H   0  0  0  0  0  0
   20.0110   38.1698  -10.0996 H   0  0  0  0  0  0
   18.5213   39.5329   -8.6410 H   0  0  0  0  0  0
   19.6590   40.8627   -8.6928 H   0  0  0  0  0  0
   19.2602   40.5362   -6.4399 H   0  0  0  0  0  0
   19.9430   39.1390   -5.6445 H   0  0  0  0  0  0
   22.2392   39.9571   -6.0185 H   0  0  0  0  0  0
   21.6462   41.2439   -7.0226 H   0  0  0  0  0  0
   20.1019   40.3145   -3.6452 H   0  0  0  0  0  0
   21.0479   41.4768   -2.7453 H   0  0  0  0  0  0
   21.8318   40.0585   -3.4311 H   0  0  0  0  0  0
   22.7022   42.8549   -3.7653 H   0  0  0  0  0  0
   23.4807   41.6923   -4.7649 H   0  0  0  0  0  0
   24.7891   43.8979   -4.9045 H   0  0  0  0  0  0
   20.8859   44.4963   -6.9505 H   0  0  0  0  0  0
   21.9323   46.9125   -6.0225 H   0  0  0  0  0  0
   22.8913   46.0136   -7.1759 H   0  0  0  0  0  0
   23.7391   46.5224   -4.4052 H   0  0  0  0  0  0
   24.2609   47.6835   -7.9504 H   0  0  0  0  0  0
   24.3078   49.4290   -7.3798 H   0  0  0  0  0  0
   26.3545   48.9016   -6.0322 H   0  0  0  0  0  0
   26.2632   47.1520   -6.5882 H   0  0  0  0  0  0
   25.7016   48.6500   -3.4841 H   0  0  0  0  0  0
   22.6482   51.2294   -1.8082 H   0  0  0  0  0  0
   21.2517   50.8190   -3.7535 H   0  0  0  0  0  0
   22.0131   49.3128   -5.5726 H   0  0  0  0  0  0
   23.7966   49.5060    0.1622 H   0  0  0  0  0  0
   25.4439   49.5565    0.7705 H   0  0  0  0  0  0
   24.9726   48.3233   -0.3907 H   0  0  0  0  0  0
   27.0333   50.7210   -2.4513 H   0  0  0  0  0  0
   26.9882   49.0842   -1.7926 H   0  0  0  0  0  0
   27.3554   50.4371   -0.7512 H   0  0  0  0  0  0
   25.2597   52.4731   -1.6018 H   0  0  0  0  0  0
   25.7216   52.0024    0.0352 H   0  0  0  0  0  0
   24.0656   51.9679   -0.4400 H   0  0  0  0  0  0
  1  2  1  0  0  0
  1 45  1  0  0  0
  1 46  1  0  0  0
  1 47  1  0  0  0
  2  3  1  0  0  0
  3  4  1  0  0  0
  3 48  1  0  0  0
  3 49  1  0  0  0
  4 41  1  0  0  0
  4  5  2  0  0  0
  5  6  1  0  0  0
  5 50  1  0  0  0
  6 22  1  0  0  0
  6  7  2  0  0  0
  7  8  1  0  0  0
  7 51  1  0  0  0
  8  9  1  0  0  0
  8 41  2  0  0  0
  9 10  1  0  0  0
  9 52  1  0  0  0
 10 11  1  0  0  0
 10 53  1  0  0  0
 10 54  1  0  0  0
 11 12  1  0  0  0
 11 55  1  0  0  0
 11 56  1  0  0  0
 12 13  1  0  0  0
 12 57  1  0  0  0
 12 58  1  0  0  0
 13 14  1  0  0  0
 13 59  1  0  0  0
 13 60  1  0  0  0
 14 15  1  0  0  0
 15 16  1  0  0  0
 15 61  1  0  0  0
 15 62  1  0  0  0
 16 17  1  0  0  0
 16 63  1  0  0  0
 16 64  1  0  0  0
 17 42  1  0  0  0
 17 18  1  0  0  0
 17 19  1  0  0  0
 18 65  1  0  0  0
 18 66  1  0  0  0
 18 67  1  0  0  0
 19 20  1  0  0  0
 19 68  1  0  0  0
 19 69  1  0  0  0
 20 43  1  0  0  0
 20 21  1  0  0  0
 20 24  1  0  0  0
 21 22  1  0  0  0
 21 70  1  0  0  0
 22 23  2  0  0  0
 24 44  1  0  0  0
 24 25  1  0  0  0
 24 26  1  0  0  0
 25 71  1  0  0  0
 26 27  1  0  0  0
 26 72  1  0  0  0
 26 73  1  0  0  0
 27 28  1  0  0  0
 27 74  1  0  0  0
 28 30  1  0  0  0
 28 29  1  0  0  0
 28 31  1  0  0  0
 29 30  1  0  0  0
 29 75  1  0  0  0
 29 76  1  0  0  0
 30 77  1  0  0  0
 30 78  1  0  0  0
 31 36  1  0  0  0
 31 32  2  0  0  0
 32 33  1  0  0  0
 32 79  1  0  0  0
 33 34  2  0  0  0
 33 37  1  0  0  0
 34 35  1  0  0  0
 34 80  1  0  0  0
 35 36  2  0  0  0
 35 81  1  0  0  0
 36 82  1  0  0  0
 37 38  1  0  0  0
 37 39  1  0  0  0
 37 40  1  0  0  0
 38 83  1  0  0  0
 38 84  1  0  0  0
 38 85  1  0  0  0
 39 86  1  0  0  0
 39 87  1  0  0  0
 39 88  1  0  0  0
 40 89  1  0  0  0
 40 90  1  0  0  0
 40 91  1  0  0  0
M  END
> <s_m_source_file>
BACE_47.smi

> <i_m_source_file_index>
1

> <i_lp_mmshare_version>
42013

> <i_f3d_flags>
0

> <s_epik_input>
W0NIM11PW0NIMl1jKFtjSF1jMTIpbmMoW2NIXTEpW05IXVtDSDJdW0NIMl1bQ0gyXVtDSDJdT1tDSDJdW0NIMl1bQ0BASF0oW0NIM10pW0NIMl1bQ0BIXShbTkhdQzI9TylbQ0BIXShbT0hdKVtDSDJdW05IXUMzKFtDSDJdW0NIMl0zKWM0W2NIXWMoQyhbQ0gzXSkoW0NIM10pW0NIM10pW2NIXVtjSF1bY0hdNA==

> <s_epik_cmdline>
J2VwaWtfcHl0aG9uJywgJy1waCcsICc3LjAnLCAnLXRuJywgJzgnLCAnLW1hJywgJzIwMCcsICctaW1hZScsICc8aW5maWxlLm1hZT4nLCAnLW9tYWUnLCAnPG91dGZpbGUubWFlPic=

> <r_lp_tautomer_probability>
1

> <r_epik_Ionization_Penalty>
  0.3483

> <r_epik_Ionization_Penalty_Charging>
  0.0000

> <r_epik_Ionization_Penalty_Neutral>
  0.3483

> <r_epik_State_Penalty>
  0.3436

> <r_epik_Charging_Adjusted_Penalty>
0.343593

> <i_epik_Tot_Q>
0

> <i_epik_Tot_abs_Q>
0

> <s_lp_Force_Field>
OPLS_2005

> <r_lp_Energy>
54.4829

> <b_lp_Chiralities_Consistent>
1

> <s_lp_Variant>
BACE_47.smi:1-1

> <chiral flag>
1

> <version>
0

> <s_i_glide_gridfile>
second_dock_grid_2

> <i_i_glide_lignum>
88

> <i_i_glide_rotatable_bonds>
9

> <r_i_docking_score>
-4.27841

> <r_i_glide_ligand_efficiency>
-0.104351

> <r_i_glide_ligand_efficiency_sa>
-0.359826

> <r_i_glide_ligand_efficiency_ln>
-0.907679

> <r_glide_XP_GScore>
-4.62201

> <r_i_glide_gscore>
-4.62201

> <r_i_glide_evdw>
-38.2964

> <r_i_glide_ecoul>
-4.87528

> <r_i_glide_energy>
-43.1717

> <r_i_glide_einternal>
8.03648

> <r_i_glide_emodel>
-58.652

> <r_glide_XP_HBond>
-1.13711

> <i_i_glide_confnum>
1

> <i_i_glide_posenum>
2

> <r_i_glide_eff_state_penalty>
0.3436

> <i_glide_XP_PoseRank>
1

$$$$
BACE_47.smi:1
                    3D
 Structure written by MMmdl.
 92 95  0  0  1  0            999 V2000
   20.1030   44.0820   -5.1295 C   0  0  0  0  0  0
   19.6619   45.2816   -5.7436 O   0  0  0  0  0  0
   20.0056   45.3586   -7.1207 C   0  0  0  0  0  0
   19.2885   44.3262   -7.9770 C   0  0  0  0  0  0
   19.9781   43.6834   -9.0288 C   0  0  0  0  0  0
   19.2802   42.7398   -9.8133 C   0  0  0  0  0  0
   17.9250   42.4913   -9.5169 C   0  0  0  0  0  0
   17.3224   43.1605   -8.4253 C   0  0  0  0  0  0
   15.9953   42.9106   -8.0401 N   0  0  0  0  0  0
   15.5482   41.5210   -8.0359 C   0  0  0  0  0  0
   14.6529   41.1713   -9.2419 C   0  0  0  0  0  0
   14.3352   39.6673   -9.3766 C   0  0  0  0  0  0
   15.4517   38.8174  -10.0183 C   0  0  0  0  0  0
   16.5490   38.6692   -9.1291 O   0  0  0  0  0  0
   17.6119   37.8779   -9.6448 C   0  0  0  0  0  0
   18.7193   37.7701   -8.5799 C   0  0  0  0  0  0
   19.5430   39.0682   -8.3747 C   0  0  1  0  0  0
   19.9401   39.2162   -6.8918 C   0  0  0  0  0  0
   20.7878   39.1182   -9.3018 C   0  0  0  0  0  0
   21.4043   40.5317   -9.5470 C   0  0  2  0  0  0
   20.8658   41.1190  -10.7823 N   0  0  0  0  0  0
   19.9213   42.0593  -10.9869 C   0  0  0  0  0  0
   19.5573   42.3575  -12.1233 O   0  0  0  0  0  0
   22.9582   40.5472   -9.6601 C   0  0  2  0  0  0
   23.5428   40.1526   -8.4316 O   0  0  0  0  0  0
   23.5766   41.9080  -10.0528 C   0  0  0  0  0  0
   24.8211   41.7399  -10.8380 N   0  3  0  0  0  0
   25.8049   42.8278  -10.7270 C   0  0  0  0  0  0
   27.1092   42.5227  -10.0300 C   0  0  0  0  0  0
   27.0784   42.7036  -11.5289 C   0  0  0  0  0  0
   25.2184   44.2207  -10.5469 C   0  0  0  0  0  0
   25.0228   45.0600  -11.6673 C   0  0  0  0  0  0
   24.4751   46.3638  -11.5356 C   0  0  0  0  0  0
   24.1259   46.8049  -10.2353 C   0  0  0  0  0  0
   24.3159   45.9789   -9.1123 C   0  0  0  0  0  0
   24.8598   44.6922   -9.2671 C   0  0  0  0  0  0
   24.2520   47.3004  -12.7470 C   0  0  0  0  0  0
   24.5278   46.5324  -14.0606 C   0  0  0  0  0  0
   22.7925   47.8118  -12.7518 C   0  0  0  0  0  0
   25.1752   48.5444  -12.7390 C   0  0  0  0  0  0
   17.9915   44.0704   -7.6815 N   0  0  0  0  0  0
   18.8974   39.9113   -8.6123 H   0  0  0  0  0  0
   21.1502   41.1757   -8.7084 H   0  0  0  0  0  0
   23.2751   39.8153  -10.4054 H   0  0  0  0  0  0
   21.1889   43.9880   -5.1741 H   0  0  0  0  0  0
   19.6554   43.2058   -5.6005 H   0  0  0  0  0  0
   19.8111   44.0817   -4.0793 H   0  0  0  0  0  0
   21.0808   45.2162   -7.2404 H   0  0  0  0  0  0
   19.7635   46.3506   -7.5058 H   0  0  0  0  0  0
   21.0115   43.9230   -9.2357 H   0  0  0  0  0  0
   17.3719   41.7844  -10.1165 H   0  0  0  0  0  0
   15.6583   43.4592   -7.2620 H   0  0  0  0  0  0
   14.9898   41.3536   -7.1144 H   0  0  0  0  0  0
   16.4116   40.8607   -7.9775 H   0  0  0  0  0  0
   13.7146   41.7167   -9.1318 H   0  0  0  0  0  0
   15.0873   41.5317  -10.1741 H   0  0  0  0  0  0
   13.4521   39.5741  -10.0098 H   0  0  0  0  0  0
   14.0490   39.2498   -8.4105 H   0  0  0  0  0  0
   15.7779   39.2657  -10.9581 H   0  0  0  0  0  0
   15.0517   37.8309  -10.2579 H   0  0  0  0  0  0
   18.0012   38.3015  -10.5717 H   0  0  0  0  0  0
   17.2380   36.8794   -9.8765 H   0  0  0  0  0  0
   19.3901   36.9479   -8.8328 H   0  0  0  0  0  0
   18.2434   37.4694   -7.6455 H   0  0  0  0  0  0
   19.0601   39.2319   -6.2478 H   0  0  0  0  0  0
   20.4794   40.1442   -6.7063 H   0  0  0  0  0  0
   20.5742   38.3923   -6.5622 H   0  0  0  0  0  0
   21.5344   38.4449   -8.8802 H   0  0  0  0  0  0
   20.5414   38.6762  -10.2688 H   0  0  0  0  0  0
   21.2514   40.7172  -11.6249 H   0  0  0  0  0  0
   24.1000   39.4061   -8.5907 H   0  0  0  0  0  0
   23.8239   42.4540   -9.1417 H   0  0  0  0  0  0
   22.8654   42.5253  -10.6018 H   0  0  0  0  0  0
   24.5641   41.6486  -11.8105 H   0  0  0  0  0  0
   27.5613   43.3163   -9.4351 H   0  0  0  0  0  0
   27.2523   41.5126   -9.6463 H   0  0  0  0  0  0
   27.2008   41.8143  -12.1472 H   0  0  0  0  0  0
   27.5098   43.6180  -11.9360 H   0  0  0  0  0  0
   25.3089   44.6677  -12.6305 H   0  0  0  0  0  0
   23.7057   47.7871  -10.0791 H   0  0  0  0  0  0
   24.0436   46.3342   -8.1293 H   0  0  0  0  0  0
   25.0017   44.0690   -8.3962 H   0  0  0  0  0  0
   25.5474   46.1453  -14.0873 H   0  0  0  0  0  0
   24.4036   47.1750  -14.9333 H   0  0  0  0  0  0
   23.8551   45.6859  -14.1987 H   0  0  0  0  0  0
   22.5575   48.3496  -11.8323 H   0  0  0  0  0  0
   22.0672   47.0040  -12.8502 H   0  0  0  0  0  0
   22.6113   48.4964  -13.5815 H   0  0  0  0  0  0
   25.0150   49.1670  -11.8576 H   0  0  0  0  0  0
   24.9912   49.1813  -13.6055 H   0  0  0  0  0  0
   26.2306   48.2708  -12.7743 H   0  0  0  0  0  0
   25.2672   40.8823  -10.5455 H   0  0  0  0  0  0
  1  2  1  0  0  0
  1 45  1  0  0  0
  1 46  1  0  0  0
  1 47  1  0  0  0
  2  3  1  0  0  0
  3  4  1  0  0  0
  3 48  1  0  0  0
  3 49  1  0  0  0
  4 41  1  0  0  0
  4  5  2  0  0  0
  5  6  1  0  0  0
  5 50  1  0  0  0
  6 22  1  0  0  0
  6  7  2  0  0  0
  7  8  1  0  0  0
  7 51  1  0  0  0
  8  9  1  0  0  0
  8 41  2  0  0  0
  9 10  1  0  0  0
  9 52  1  0  0  0
 10 11  1  0  0  0
 10 53  1  0  0  0
 10 54  1  0  0  0
 11 12  1  0  0  0
 11 55  1  0  0  0
 11 56  1  0  0  0
 12 13  1  0  0  0
 12 57  1  0  0  0
 12 58  1  0  0  0
 13 14  1  0  0  0
 13 59  1  0  0  0
 13 60  1  0  0  0
 14 15  1  0  0  0
 15 16  1  0  0  0
 15 61  1  0  0  0
 15 62  1  0  0  0
 16 17  1  0  0  0
 16 63  1  0  0  0
 16 64  1  0  0  0
 17 42  1  0  0  0
 17 18  1  0  0  0
 17 19  1  0  0  0
 18 65  1  0  0  0
 18 66  1  0  0  0
 18 67  1  0  0  0
 19 20  1  0  0  0
 19 68  1  0  0  0
 19 69  1  0  0  0
 20 43  1  0  0  0
 20 21  1  0  0  0
 20 24  1  0  0  0
 21 22  1  0  0  0
 21 70  1  0  0  0
 22 23  2  0  0  0
 24 44  1  0  0  0
 24 25  1  0  0  0
 24 26  1  0  0  0
 25 71  1  0  0  0
 26 27  1  0  0  0
 26 72  1  0  0  0
 26 73  1  0  0  0
 27 28  1  0  0  0
 27 74  1  0  0  0
 27 92  1  0  0  0
 28 30  1  0  0  0
 28 29  1  0  0  0
 28 31  1  0  0  0
 29 30  1  0  0  0
 29 75  1  0  0  0
 29 76  1  0  0  0
 30 77  1  0  0  0
 30 78  1  0  0  0
 31 36  1  0  0  0
 31 32  2  0  0  0
 32 33  1  0  0  0
 32 79  1  0  0  0
 33 34  2  0  0  0
 33 37  1  0  0  0
 34 35  1  0  0  0
 34 80  1  0  0  0
 35 36  2  0  0  0
 35 81  1  0  0  0
 36 82  1  0  0  0
 37 38  1  0  0  0
 37 39  1  0  0  0
 37 40  1  0  0  0
 38 83  1  0  0  0
 38 84  1  0  0  0
 38 85  1  0  0  0
 39 86  1  0  0  0
 39 87  1  0  0  0
 39 88  1  0  0  0
 40 89  1  0  0  0
 40 90  1  0  0  0
 40 91  1  0  0  0
M  CHG  1  27   1
M  END
> <s_m_source_file>
BACE_47.smi

> <i_m_source_file_index>
1

> <i_lp_mmshare_version>
42013

> <i_f3d_flags>
0

> <s_epik_input>
W0NIM11PW0NIMl1jKFtjSF1jMTIpbmMoW2NIXTEpW05IXVtDSDJdW0NIMl1bQ0gyXVtDSDJdT1tDSDJdW0NIMl1bQ0BASF0oW0NIM10pW0NIMl1bQ0BIXShbTkhdQzI9TylbQ0BIXShbT0hdKVtDSDJdW05IXUMzKFtDSDJdW0NIMl0zKWM0W2NIXWMoQyhbQ0gzXSkoW0NIM10pW0NIM10pW2NIXVtjSF1bY0hdNA==

> <s_epik_cmdline>
J2VwaWtfcHl0aG9uJywgJy1waCcsICc3LjAnLCAnLXRuJywgJzgnLCAnLW1hJywgJzIwMCcsICctaW1hZScsICc8aW5maWxlLm1hZT4nLCAnLW9tYWUnLCAnPG91dGZpbGUubWFlPic=

> <r_lp_tautomer_probability>
1

> <r_epik_Ionization_Penalty>
  0.4818

> <r_epik_Ionization_Penalty_Charging>
  0.4813

> <r_epik_Ionization_Penalty_Neutral>
  0.0005

> <r_epik_State_Penalty>
  0.4863

> <r_epik_Charging_Adjusted_Penalty>
0.967681

> <i_epik_Tot_Q>
1

> <i_epik_Tot_abs_Q>
1

> <s_lp_Force_Field>
OPLS_2005

> <r_lp_Energy>
45.075

> <b_lp_Chiralities_Consistent>
1

> <s_lp_Variant>
BACE_47.smi:1-2

> <chiral flag>
1

> <version>
0

> <s_i_glide_gridfile>
second_dock_grid_2

> <i_i_glide_lignum>
89

> <i_i_glide_rotatable_bonds>
9

> <r_i_docking_score>
-5.05207

> <r_i_glide_ligand_efficiency>
-0.123221

> <r_i_glide_ligand_efficiency_sa>
-0.424893

> <r_i_glide_ligand_efficiency_ln>
-1.07181

> <r_glide_XP_GScore>
-5.53837

> <r_i_glide_gscore>
-5.53837

> <r_i_glide_evdw>
-33.4059

> <r_i_glide_ecoul>
-16.0663

> <r_i_glide_energy>
-49.4722

> <r_i_glide_einternal>
4.65387

> <r_i_glide_emodel>
-71.8551

> <r_glide_XP_HBond>
-1.77688

> <i_i_glide_confnum>
1

> <i_i_glide_posenum>
7

> <r_i_glide_eff_state_penalty>
0.4863

> <i_glide_XP_PoseRank>
1

$$$$
BACE_48.smi:1
                    3D
 Structure written by MMmdl.
 89 91  0  0  1  0            999 V2000
   23.1582   43.2672  -10.1652 C   0  0  0  0  0  0
   22.3013   44.0930  -11.1447 C   0  0  2  0  0  0
   23.0198   45.3964  -11.5633 C   0  0  0  0  0  0
   23.1216   46.4843  -10.4832 C   0  0  0  0  0  0
   21.8592   47.1147  -10.3735 O   0  0  0  0  0  0
   21.8013   48.1260   -9.3847 C   0  0  0  0  0  0
   20.3986   48.7368   -9.4607 C   0  0  0  0  0  0
   19.3039   47.7638   -8.9966 C   0  0  0  0  0  0
   17.9110   48.1732   -9.4985 C   0  0  0  0  0  0
   16.8594   47.2929   -9.0109 N   0  0  0  0  0  0
   16.6220   46.0221   -9.5461 C   0  0  0  0  0  0
   17.3693   45.4847  -10.6199 C   0  0  0  0  0  0
   17.0774   44.1743  -11.0497 C   0  0  0  0  0  0
   16.0069   43.4844  -10.4487 C   0  0  0  0  0  0
   15.3136   44.1089   -9.3962 C   0  0  0  0  0  0
   14.1732   43.4005   -8.6951 C   0  0  0  0  0  0
   15.6133   45.3494   -8.9528 N   0  0  0  0  0  0
   17.8663   43.5186  -12.1407 C   0  0  0  0  0  0
   17.3483   43.3500  -13.2399 O   0  0  0  0  0  0
   19.1139   43.0747  -11.9009 N   0  0  0  0  0  0
   19.9551   43.0669  -10.6984 C   0  0  1  0  0  0
   20.8637   44.3191  -10.6057 C   0  0  0  0  0  0
   19.2362   42.5920   -9.3982 C   0  0  2  0  0  0
   18.8276   43.6870   -8.6018 O   0  0  0  0  0  0
   20.1067   41.7470   -8.4627 C   0  0  0  0  0  0
   20.6669   40.5380   -9.1249 N   0  3  0  0  0  0
   20.8382   39.3302   -8.2855 C   0  0  0  0  0  0
   19.4853   38.5911   -8.2418 C   0  0  0  0  0  0
   21.8950   38.4189   -8.9336 C   0  0  0  0  0  0
   21.2755   39.7248   -6.8910 C   0  0  0  0  0  0
   20.4738   39.7635   -5.7220 C   0  0  0  0  0  0
   21.2526   40.4155   -4.8102 C   0  0  0  0  0  0
   21.0137   40.8761   -3.4105 C   0  0  0  0  0  0
   20.9763   42.4158   -3.1852 C   0  0  0  0  0  0
   20.3536   43.1857   -4.3746 C   0  0  0  0  0  0
   22.4157   42.9338   -2.9642 C   0  0  0  0  0  0
   20.1360   42.6902   -1.9206 C   0  0  0  0  0  0
   22.4599   40.7073   -5.3554 O   0  0  0  0  0  0
   22.4587   40.2853   -6.6893 N   0  0  0  0  0  0
   22.2222   43.5028  -12.0598 H   0  0  0  0  0  0
   20.6157   42.2478  -10.9727 H   0  0  0  0  0  0
   18.3569   42.0060   -9.6607 H   0  0  0  0  0  0
   23.2242   43.7410   -9.1853 H   0  0  0  0  0  0
   24.1755   43.1420  -10.5399 H   0  0  0  0  0  0
   22.7544   42.2679  -10.0174 H   0  0  0  0  0  0
   24.0281   45.1418  -11.8977 H   0  0  0  0  0  0
   22.5259   45.8167  -12.4402 H   0  0  0  0  0  0
   23.4385   46.0662   -9.5268 H   0  0  0  0  0  0
   23.8653   47.2251  -10.7785 H   0  0  0  0  0  0
   21.9932   47.7135   -8.3937 H   0  0  0  0  0  0
   22.5537   48.8906   -9.5848 H   0  0  0  0  0  0
   20.3511   49.6454   -8.8587 H   0  0  0  0  0  0
   20.2081   49.0460  -10.4897 H   0  0  0  0  0  0
   19.5337   46.7599   -9.3494 H   0  0  0  0  0  0
   19.3119   47.7023   -7.9077 H   0  0  0  0  0  0
   17.6863   49.1847   -9.1597 H   0  0  0  0  0  0
   17.8878   48.2031  -10.5886 H   0  0  0  0  0  0
   16.2741   47.6053   -8.2520 H   0  0  0  0  0  0
   18.1772   46.0310  -11.0794 H   0  0  0  0  0  0
   15.7476   42.4833  -10.7650 H   0  0  0  0  0  0
   13.9572   42.4369   -9.1629 H   0  0  0  0  0  0
   13.2626   44.0027   -8.7362 H   0  0  0  0  0  0
   14.4146   43.2127   -7.6468 H   0  0  0  0  0  0
   19.5448   42.6389  -12.7006 H   0  0  0  0  0  0
   20.9410   44.6687   -9.5750 H   0  0  0  0  0  0
   20.3969   45.1375  -11.1536 H   0  0  0  0  0  0
   18.1570   43.4024   -7.9967 H   0  0  0  0  0  0
   20.9332   42.3355   -8.0559 H   0  0  0  0  0  0
   19.4773   41.4646   -7.6203 H   0  0  0  0  0  0
   20.0842   40.2829   -9.9049 H   0  0  0  0  0  0
   19.5224   37.7496   -7.5538 H   0  0  0  0  0  0
   19.1965   38.2074   -9.2213 H   0  0  0  0  0  0
   18.6779   39.2359   -7.8963 H   0  0  0  0  0  0
   22.0606   37.5039   -8.3674 H   0  0  0  0  0  0
   22.8595   38.9232   -8.9680 H   0  0  0  0  0  0
   21.6263   38.1396   -9.9534 H   0  0  0  0  0  0
   19.4520   39.4305   -5.6076 H   0  0  0  0  0  0
   20.0624   40.4470   -3.0928 H   0  0  0  0  0  0
   21.7592   40.4243   -2.7611 H   0  0  0  0  0  0
   20.3899   44.2580   -4.2037 H   0  0  0  0  0  0
   19.3026   42.9415   -4.5233 H   0  0  0  0  0  0
   20.8809   43.0089   -5.3119 H   0  0  0  0  0  0
   23.0793   42.6469   -3.7803 H   0  0  0  0  0  0
   22.8425   42.5455   -2.0426 H   0  0  0  0  0  0
   22.4601   44.0188   -2.8934 H   0  0  0  0  0  0
   20.1105   43.7500   -1.6736 H   0  0  0  0  0  0
   20.5401   42.1625   -1.0589 H   0  0  0  0  0  0
   19.1025   42.3653   -2.0433 H   0  0  0  0  0  0
   21.5836   40.7899   -9.4673 H   0  0  0  0  0  0
  1  2  1  0  0  0
  1 43  1  0  0  0
  1 44  1  0  0  0
  1 45  1  0  0  0
  2 40  1  0  0  0
  2 22  1  0  0  0
  2  3  1  0  0  0
  3  4  1  0  0  0
  3 46  1  0  0  0
  3 47  1  0  0  0
  4  5  1  0  0  0
  4 48  1  0  0  0
  4 49  1  0  0  0
  5  6  1  0  0  0
  6  7  1  0  0  0
  6 50  1  0  0  0
  6 51  1  0  0  0
  7  8  1  0  0  0
  7 52  1  0  0  0
  7 53  1  0  0  0
  8  9  1  0  0  0
  8 54  1  0  0  0
  8 55  1  0  0  0
  9 10  1  0  0  0
  9 56  1  0  0  0
  9 57  1  0  0  0
 10 11  1  0  0  0
 10 58  1  0  0  0
 11 17  1  0  0  0
 11 12  2  0  0  0
 12 13  1  0  0  0
 12 59  1  0  0  0
 13 14  2  0  0  0
 13 18  1  0  0  0
 14 15  1  0  0  0
 14 60  1  0  0  0
 15 16  1  0  0  0
 15 17  2  0  0  0
 16 61  1  0  0  0
 16 62  1  0  0  0
 16 63  1  0  0  0
 18 19  2  0  0  0
 18 20  1  0  0  0
 20 21  1  0  0  0
 20 64  1  0  0  0
 21 41  1  0  0  0
 21 22  1  0  0  0
 21 23  1  0  0  0
 22 65  1  0  0  0
 22 66  1  0  0  0
 23 42  1  0  0  0
 23 24  1  0  0  0
 23 25  1  0  0  0
 24 67  1  0  0  0
 25 26  1  0  0  0
 25 68  1  0  0  0
 25 69  1  0  0  0
 26 27  1  0  0  0
 26 70  1  0  0  0
 26 89  1  0  0  0
 27 28  1  0  0  0
 27 29  1  0  0  0
 27 30  1  0  0  0
 28 71  1  0  0  0
 28 72  1  0  0  0
 28 73  1  0  0  0
 29 74  1  0  0  0
 29 75  1  0  0  0
 29 76  1  0  0  0
 30 39  2  0  0  0
 30 31  1  0  0  0
 31 32  2  0  0  0
 31 77  1  0  0  0
 32 33  1  0  0  0
 32 38  1  0  0  0
 33 34  1  0  0  0
 33 78  1  0  0  0
 33 79  1  0  0  0
 34 35  1  0  0  0
 34 36  1  0  0  0
 34 37  1  0  0  0
 35 80  1  0  0  0
 35 81  1  0  0  0
 35 82  1  0  0  0
 36 83  1  0  0  0
 36 84  1  0  0  0
 36 85  1  0  0  0
 37 86  1  0  0  0
 37 87  1  0  0  0
 37 88  1  0  0  0
 38 39  1  0  0  0
M  CHG  1  26   1
M  END
> <s_m_source_file>
BACE_48.smi

> <i_m_source_file_index>
1

> <i_lp_mmshare_version>
42013

> <i_f3d_flags>
0

> <s_epik_input>
W05IXTFbQ0gyXVtDSDJdW0NIMl1bQ0gyXU9bQ0gyXVtDSDJdW0NAQEhdKFtDSDNdKVtDSDJdW0NASF0oW05IXUMoPU8pYyhbY0hdYzEyKVtjSF1jKG4yKVtDSDNdKVtDQEhdKFtPSF0pW0NIMl1bTkhdQyhbQ0gzXSkoW0NIM10pYzNbY0hdYyhvbjMpW0NIMl1DKFtDSDNdKShbQ0gzXSlbQ0gzXQ==

> <s_epik_cmdline>
J2VwaWtfcHl0aG9uJywgJy1waCcsICc3LjAnLCAnLXRuJywgJzgnLCAnLW1hJywgJzIwMCcsICctaW1hZScsICc8aW5maWxlLm1hZT4nLCAnLW9tYWUnLCAnPG91dGZpbGUubWFlPic=

> <r_lp_tautomer_probability>
1

> <r_epik_Ionization_Penalty>
  0.2279

> <r_epik_Ionization_Penalty_Charging>
  0.2173

> <r_epik_Ionization_Penalty_Neutral>
  0.0105

> <r_epik_State_Penalty>
  0.2009

> <r_epik_Charging_Adjusted_Penalty>
0.418284

> <i_epik_Tot_Q>
1

> <i_epik_Tot_abs_Q>
1

> <s_lp_Force_Field>
OPLS_2005

> <r_lp_Energy>
30.832

> <b_lp_Chiralities_Consistent>
1

> <s_lp_Variant>
BACE_48.smi:1-1

> <chiral flag>
1

> <version>
0

> <s_i_glide_gridfile>
second_dock_grid_2

> <i_i_glide_lignum>
90

> <i_i_glide_rotatable_bonds>
8

> <r_i_docking_score>
-4.033

> <r_i_glide_ligand_efficiency>
-0.10341

> <r_i_glide_ligand_efficiency_sa>
-0.350686

> <r_i_glide_ligand_efficiency_ln>
-0.86479

> <r_glide_XP_GScore>
-4.2339

> <r_i_glide_gscore>
-4.2339

> <r_i_glide_evdw>
-35.5715

> <r_i_glide_ecoul>
-8.93953

> <r_i_glide_energy>
-44.5111

> <r_i_glide_einternal>
1.48598

> <r_i_glide_emodel>
-59.1724

> <r_glide_XP_HBond>
0

> <i_i_glide_confnum>
1

> <i_i_glide_posenum>
4

> <r_i_glide_eff_state_penalty>
0.2009

> <i_glide_XP_PoseRank>
1

$$$$
