BACE_7.smi:1
                    3D
 Structure written by MMmdl.
 99103  0  0  1  0            999 V2000
    0.5761    3.7524    0.0615 C   0  0  0  0  0  0
   -0.0603    3.2801    1.3803 C   0  0  2  0  0  0
    0.0698    4.3606    2.4828 C   0  0  0  0  0  0
   -1.0858    5.3831    2.4716 C   0  0  0  0  0  0
   -2.3633    4.8352    3.1343 C   0  0  0  0  0  0
   -3.6281    5.6605    2.8414 C   0  0  0  0  0  0
   -4.9230    5.0660    3.4476 C   0  0  0  0  0  0
   -5.2522    3.7218    2.9314 N   0  0  0  0  0  0
   -5.6580    3.5803    1.6421 C   0  0  0  0  0  0
   -6.1167    4.5029    0.9681 O   0  0  0  0  0  0
   -5.3704    2.2712    0.9685 C   0  0  0  0  0  0
   -6.4015    1.4895    0.4105 C   0  0  0  0  0  0
   -6.0964    0.2738   -0.2445 C   0  0  0  0  0  0
   -4.7492   -0.1468   -0.3493 C   0  0  0  0  0  0
   -3.7094    0.6357    0.1979 C   0  0  0  0  0  0
   -4.0359    1.8474    0.8419 C   0  0  0  0  0  0
   -2.2696    0.2357    0.0385 C   0  0  0  0  0  0
   -1.8849   -0.4047   -0.9397 O   0  0  0  0  0  0
   -1.4616    0.6404    1.0325 N   0  0  0  0  0  0
   -0.0025    0.6934    0.9988 C   0  0  1  0  0  0
    0.4973    1.9054    1.8320 C   0  0  0  0  0  0
    0.6053   -0.6749    1.4007 C   0  0  1  0  0  0
    2.0646   -0.8252    0.9346 C   0  0  0  0  0  0
    2.5526   -2.2066    1.1340 N   0  3  0  0  0  0
    3.9317   -2.4553    0.6648 C   0  0  0  0  0  0
    4.0033   -2.5377   -0.8493 C   0  0  0  0  0  0
    3.7009   -3.7496   -1.5040 C   0  0  0  0  0  0
    3.7510   -3.8245   -2.9087 C   0  0  0  0  0  0
    4.1008   -2.6886   -3.6634 C   0  0  0  0  0  0
    4.4091   -1.4710   -3.0178 C   0  0  0  0  0  0
    4.3634   -1.4044   -1.6085 C   0  0  0  0  0  0
    4.7775   -0.2335   -3.8267 C   0  0  0  0  0  0
    3.5947    0.2535   -4.6783 C   0  0  0  0  0  0
    6.0364   -0.4612   -4.6789 C   0  0  0  0  0  0
    0.5681   -0.8358    2.8064 O   0  0  0  0  0  0
   -7.1695   -0.5327   -0.8192 C   0  0  0  0  0  0
   -8.4860   -0.3279   -0.7568 N   0  0  0  0  0  0
   -9.0539   -1.3767   -1.4646 C   0  0  0  0  0  0
   -8.0405   -2.1738   -1.9264 C   0  0  0  0  0  0
   -6.8416   -1.6516   -1.5241 O   0  0  0  0  0  0
   -5.3266    2.6116    3.9150 C   0  0  2  0  0  0
   -6.5896    2.7475    4.7874 C   0  0  0  0  0  0
   -4.0431    2.3663    4.7122 C   0  0  0  0  0  0
   -3.7844    3.0309    5.9339 C   0  0  0  0  0  0
   -2.5889    2.7911    6.6386 C   0  0  0  0  0  0
   -1.6439    1.8776    6.1360 C   0  0  0  0  0  0
   -1.8995    1.1984    4.9311 C   0  0  0  0  0  0
   -3.0932    1.4405    4.2256 C   0  0  0  0  0  0
   -1.1220    3.1601    1.1833 H   0  0  0  0  0  0
    0.2793    0.8746   -0.0394 H   0  0  0  0  0  0
    0.0197   -1.4770    0.9486 H   0  0  0  0  0  0
   -5.4894    1.6703    3.3906 H   0  0  0  0  0  0
    1.6568    3.8600    0.1579 H   0  0  0  0  0  0
    0.1744    4.7181   -0.2463 H   0  0  0  0  0  0
    0.3825    3.0528   -0.7513 H   0  0  0  0  0  0
    0.1077    3.9042    3.4727 H   0  0  0  0  0  0
    1.0218    4.8807    2.3697 H   0  0  0  0  0  0
   -0.7785    6.2852    3.0015 H   0  0  0  0  0  0
   -1.2922    5.6916    1.4464 H   0  0  0  0  0  0
   -2.5265    3.8162    2.7982 H   0  0  0  0  0  0
   -2.2078    4.7720    4.2115 H   0  0  0  0  0  0
   -3.4891    6.6701    3.2293 H   0  0  0  0  0  0
   -3.7457    5.7711    1.7628 H   0  0  0  0  0  0
   -4.8365    5.0625    4.5315 H   0  0  0  0  0  0
   -5.7568    5.7395    3.2426 H   0  0  0  0  0  0
   -7.4262    1.8238    0.4888 H   0  0  0  0  0  0
   -4.5083   -1.0694   -0.8579 H   0  0  0  0  0  0
   -3.2562    2.4786    1.2345 H   0  0  0  0  0  0
   -1.9003    1.1074    1.8131 H   0  0  0  0  0  0
    1.5868    1.9430    1.8295 H   0  0  0  0  0  0
    0.2103    1.7420    2.8707 H   0  0  0  0  0  0
    2.1252   -0.5829   -0.1265 H   0  0  0  0  0  0
    2.7179   -0.1271    1.4595 H   0  0  0  0  0  0
    2.5148   -2.4024    2.1243 H   0  0  0  0  0  0
    4.6047   -1.6840    1.0421 H   0  0  0  0  0  0
    4.2741   -3.4013    1.0852 H   0  0  0  0  0  0
    3.4267   -4.6242   -0.9322 H   0  0  0  0  0  0
    3.5179   -4.7530   -3.4087 H   0  0  0  0  0  0
    4.1294   -2.7572   -4.7410 H   0  0  0  0  0  0
    4.5944   -0.4768   -1.1051 H   0  0  0  0  0  0
    5.0123    0.5644   -3.1209 H   0  0  0  0  0  0
    2.7251    0.4664   -4.0553 H   0  0  0  0  0  0
    3.2997   -0.4898   -5.4193 H   0  0  0  0  0  0
    3.8477    1.1693   -5.2132 H   0  0  0  0  0  0
    6.8809   -0.7610   -4.0575 H   0  0  0  0  0  0
    6.3230    0.4505   -5.2036 H   0  0  0  0  0  0
    5.8826   -1.2367   -5.4295 H   0  0  0  0  0  0
    1.0107   -0.1026    3.2068 H   0  0  0  0  0  0
  -10.1232   -1.4722   -1.5833 H   0  0  0  0  0  0
   -8.0053   -3.0807   -2.5119 H   0  0  0  0  0  0
   -6.7028    1.8863    5.4466 H   0  0  0  0  0  0
   -7.4853    2.8032    4.1681 H   0  0  0  0  0  0
   -6.5709    3.6418    5.4096 H   0  0  0  0  0  0
   -4.4936    3.7345    6.3420 H   0  0  0  0  0  0
   -2.3977    3.3083    7.5673 H   0  0  0  0  0  0
   -0.7284    1.6930    6.6783 H   0  0  0  0  0  0
   -1.1817    0.4884    4.5491 H   0  0  0  0  0  0
   -3.2770    0.9053    3.3069 H   0  0  0  0  0  0
    1.9315   -2.8452    0.6579 H   0  0  0  0  0  0
  1  2  1  0  0  0
  1 53  1  0  0  0
  1 54  1  0  0  0
  1 55  1  0  0  0
  2 49  1  0  0  0
  2 21  1  0  0  0
  2  3  1  0  0  0
  3  4  1  0  0  0
  3 56  1  0  0  0
  3 57  1  0  0  0
  4  5  1  0  0  0
  4 58  1  0  0  0
  4 59  1  0  0  0
  5  6  1  0  0  0
  5 60  1  0  0  0
  5 61  1  0  0  0
  6  7  1  0  0  0
  6 62  1  0  0  0
  6 63  1  0  0  0
  7  8  1  0  0  0
  7 64  1  0  0  0
  7 65  1  0  0  0
  8  9  1  0  0  0
  8 41  1  0  0  0
  9 10  2  0  0  0
  9 11  1  0  0  0
 11 16  1  0  0  0
 11 12  2  0  0  0
 12 13  1  0  0  0
 12 66  1  0  0  0
 13 14  2  0  0  0
 13 36  1  0  0  0
 14 15  1  0  0  0
 14 67  1  0  0  0
 15 16  2  0  0  0
 15 17  1  0  0  0
 16 68  1  0  0  0
 17 18  2  0  0  0
 17 19  1  0  0  0
 19 20  1  0  0  0
 19 69  1  0  0  0
 20 50  1  0  0  0
 20 21  1  0  0  0
 20 22  1  0  0  0
 21 70  1  0  0  0
 21 71  1  0  0  0
 22 51  1  0  0  0
 22 23  1  0  0  0
 22 35  1  0  0  0
 23 24  1  0  0  0
 23 72  1  0  0  0
 23 73  1  0  0  0
 24 25  1  0  0  0
 24 74  1  0  0  0
 24 99  1  0  0  0
 25 26  1  0  0  0
 25 75  1  0  0  0
 25 76  1  0  0  0
 26 31  1  0  0  0
 26 27  2  0  0  0
 27 28  1  0  0  0
 27 77  1  0  0  0
 28 29  2  0  0  0
 28 78  1  0  0  0
 29 30  1  0  0  0
 29 79  1  0  0  0
 30 31  2  0  0  0
 30 32  1  0  0  0
 31 80  1  0  0  0
 32 33  1  0  0  0
 32 34  1  0  0  0
 32 81  1  0  0  0
 33 82  1  0  0  0
 33 83  1  0  0  0
 33 84  1  0  0  0
 34 85  1  0  0  0
 34 86  1  0  0  0
 34 87  1  0  0  0
 35 88  1  0  0  0
 36 40  1  0  0  0
 36 37  2  0  0  0
 37 38  1  0  0  0
 38 39  2  0  0  0
 38 89  1  0  0  0
 39 40  1  0  0  0
 39 90  1  0  0  0
 41 52  1  0  0  0
 41 42  1  0  0  0
 41 43  1  0  0  0
 42 91  1  0  0  0
 42 92  1  0  0  0
 42 93  1  0  0  0
 43 48  1  0  0  0
 43 44  2  0  0  0
 44 45  1  0  0  0
 44 94  1  0  0  0
 45 46  2  0  0  0
 45 95  1  0  0  0
 46 47  1  0  0  0
 46 96  1  0  0  0
 47 48  2  0  0  0
 47 97  1  0  0  0
 48 98  1  0  0  0
M  CHG  1  24   1
M  END
> <i_f3d_flags>
0

> <chiral flag>
1

> <version>
0

> <s_i_glide_gridfile>
base1a_gride_6

> <i_i_glide_lignum>
15

> <i_i_glide_rotatable_bonds>
10

> <r_i_docking_score>
-0.952859090809743

> <r_i_glide_ligand_efficiency>
-0.0198512310585363

> <r_i_glide_ligand_efficiency_sa>
-0.0721441614059757

> <r_i_glide_ligand_efficiency_ln>
-0.195610710515957

> <r_glide_XP_GScore>
-3.22045909080974

> <r_i_glide_gscore>
-3.22045909080974

> <r_i_glide_evdw>
-32.0943374633789

> <r_i_glide_ecoul>
-9.40149211883545

> <r_i_glide_energy>
-41.4958295822144

> <r_i_glide_einternal>
0.890993469994779

> <r_i_glide_emodel>
-58.0939559936523

> <r_glide_XP_HBond>
-0.646725394493072

> <i_i_glide_confnum>
1

> <i_i_glide_posenum>
42

> <r_i_glide_eff_state_penalty>
2.2676

> <i_glide_XP_PoseRank>
1

> <s_m_source_file>
glide-dock_pose_2-0008_raw.maegz

> <i_m_source_file_index>
1

> <i_lp_mmshare_version>
42013

> <s_epik_input>
W2NIXTFbY0hdW2NIXVtjSF1bY0hdYzFbQ0BASF0oW0NIM10pTihDMj1PKVtDSDJdW0NIMl1bQ0gyXVtDSDJdW0NIMl1bQ0BASF0oW0NIM10pW0NIMl1bQ0BIXShbTkhdQyg9TyljKFtjSF0zKVtjSF1jKFtjSF1jMjMpLWM0bltjSF1bY0hdbzQpW0NASF0oW09IXSlbQ0gyXVtOSF1bQ0gyXWM1W2NIXVtjSF1bY0hdYyhbY0hdNSlbQ0hdKFtDSDNdKVtDSDNd

> <s_epik_cmdline>
J2VwaWtfcHl0aG9uJywgJy1waCcsICc3LjAnLCAnLXRuJywgJzgnLCAnLW1hJywgJzIwMCcsICctaW1hZScsICc8aW5maWxlLm1hZT4nLCAnLW9tYWUnLCAnPG91dGZpbGUubWFlPic=

> <r_epik_Ionization_Penalty>
0.0165162

> <r_epik_Ionization_Penalty_Charging>
0.0165153

> <r_epik_Ionization_Penalty_Neutral>
9.01175e-07

> <r_epik_State_Penalty>
0.0130399

> <r_epik_Charging_Adjusted_Penalty>
0.0295552

> <i_epik_Tot_Q>
1

> <i_epik_Tot_abs_Q>
1

> <i_f3d_flags>
0

> <s_lp_Force_Field>
OPLS_2005

> <r_lp_Energy>
54.1327

> <b_lp_Chiralities_Consistent>
1

> <s_lp_Variant>
BACE_7.smi:1-1

$$$$
BACE_7.smi:1
                    3D
 Structure written by MMmdl.
 98102  0  0  1  0            999 V2000
    0.0420    4.4734    0.2528 C   0  0  0  0  0  0
   -0.4687    3.7759    1.5256 C   0  0  2  0  0  0
   -0.3557    4.7085    2.7572 C   0  0  0  0  0  0
   -1.5899    5.6148    2.9488 C   0  0  0  0  0  0
   -2.7705    4.8708    3.5999 C   0  0  0  0  0  0
   -4.1152    5.6114    3.5008 C   0  0  0  0  0  0
   -5.3119    4.8280    4.0941 C   0  0  0  0  0  0
   -5.5640    3.5386    3.4191 N   0  0  0  0  0  0
   -6.0474    3.5306    2.1491 C   0  0  0  0  0  0
   -6.6300    4.4866    1.6370 O   0  0  0  0  0  0
   -5.6988    2.3541    1.2866 C   0  0  0  0  0  0
   -6.6978    1.5524    0.6991 C   0  0  0  0  0  0
   -6.3391    0.4638   -0.1295 C   0  0  0  0  0  0
   -4.9724    0.1931   -0.3784 C   0  0  0  0  0  0
   -3.9657    0.9990    0.1964 C   0  0  0  0  0  0
   -4.3460    2.0817    1.0164 C   0  0  0  0  0  0
   -2.5128    0.7646   -0.1090 C   0  0  0  0  0  0
   -2.1497    0.3094   -1.1933 O   0  0  0  0  0  0
   -1.6731    1.0985    0.8846 N   0  0  0  0  0  0
   -0.2262    1.2770    0.7880 C   0  0  1  0  0  0
    0.2247    2.4073    1.7538 C   0  0  0  0  0  0
    0.5055   -0.0743    0.9862 C   0  0  1  0  0  0
    2.0038    0.0189    0.6442 C   0  0  0  0  0  0
    2.5581   -1.2928    0.3153 N   0  0  0  0  0  0
    3.9976   -1.2882    0.0653 C   0  0  0  0  0  0
    4.3704   -0.6342   -1.2519 C   0  0  0  0  0  0
    4.8933    0.6749   -1.2680 C   0  0  0  0  0  0
    5.2330    1.2833   -2.4908 C   0  0  0  0  0  0
    5.0549    0.5840   -3.6997 C   0  0  0  0  0  0
    4.5325   -0.7283   -3.6944 C   0  0  0  0  0  0
    4.1891   -1.3309   -2.4647 C   0  0  0  0  0  0
    4.3449   -1.4947   -4.9979 C   0  0  0  0  0  0
    5.6895   -1.7678   -5.6896 C   0  0  0  0  0  0
    3.3558   -0.7882   -5.9381 C   0  0  0  0  0  0
    0.3942   -0.4855    2.3357 O   0  0  0  0  0  0
   -7.3784   -0.3710   -0.7262 C   0  0  0  0  0  0
   -8.7025   -0.2570   -0.6125 N   0  0  0  0  0  0
   -9.2257   -1.2968   -1.3665 C   0  0  0  0  0  0
   -8.1797   -1.9976   -1.9052 C   0  0  0  0  0  0
   -7.0039   -1.4222   -1.5082 O   0  0  0  0  0  0
   -5.4787    2.3075    4.2451 C   0  0  2  0  0  0
   -6.6996    2.2017    5.1793 C   0  0  0  0  0  0
   -4.1357    2.0924    4.9470 C   0  0  0  0  0  0
   -3.8807    2.5979    6.2435 C   0  0  0  0  0  0
   -2.6299    2.3930    6.8572 C   0  0  0  0  0  0
   -1.6244    1.6721    6.1870 C   0  0  0  0  0  0
   -1.8741    1.1502    4.9048 C   0  0  0  0  0  0
   -3.1231    1.3579    4.2903 C   0  0  0  0  0  0
   -1.5278    3.5902    1.3701 H   0  0  0  0  0  0
   -0.0104    1.6088   -0.2286 H   0  0  0  0  0  0
    0.0367   -0.8268    0.3498 H   0  0  0  0  0  0
   -5.5779    1.4309    3.6053 H   0  0  0  0  0  0
    1.1145    4.6624    0.3069 H   0  0  0  0  0  0
   -0.4554    5.4316    0.1017 H   0  0  0  0  0  0
   -0.1450    3.8720   -0.6364 H   0  0  0  0  0  0
   -0.2148    4.1301    3.6711 H   0  0  0  0  0  0
    0.5408    5.3228    2.6644 H   0  0  0  0  0  0
   -1.3239    6.4643    3.5784 H   0  0  0  0  0  0
   -1.8890    6.0336    1.9874 H   0  0  0  0  0  0
   -2.8743    3.8970    3.1320 H   0  0  0  0  0  0
   -2.5359    4.6745    4.6462 H   0  0  0  0  0  0
   -4.0304    6.5685    4.0162 H   0  0  0  0  0  0
   -4.3175    5.8538    2.4571 H   0  0  0  0  0  0
   -5.1512    4.6907    5.1608 H   0  0  0  0  0  0
   -6.2103    5.4441    4.0316 H   0  0  0  0  0  0
   -7.7386    1.7716    0.8911 H   0  0  0  0  0  0
   -4.6911   -0.6310   -1.0183 H   0  0  0  0  0  0
   -3.5955    2.7306    1.4363 H   0  0  0  0  0  0
   -2.0934    1.4035    1.7502 H   0  0  0  0  0  0
    1.3052    2.5417    1.7001 H   0  0  0  0  0  0
    0.0203    2.0806    2.7731 H   0  0  0  0  0  0
    2.1336    0.6800   -0.2131 H   0  0  0  0  0  0
    2.5540    0.4753    1.4684 H   0  0  0  0  0  0
    2.3368   -1.9563    1.0512 H   0  0  0  0  0  0
    4.5274   -0.8043    0.8867 H   0  0  0  0  0  0
    4.3608   -2.3160    0.0359 H   0  0  0  0  0  0
    5.0319    1.2162   -0.3436 H   0  0  0  0  0  0
    5.6324    2.2868   -2.5014 H   0  0  0  0  0  0
    5.3227    1.0599   -4.6313 H   0  0  0  0  0  0
    3.7858   -2.3330   -2.4462 H   0  0  0  0  0  0
    3.9109   -2.4646   -4.7511 H   0  0  0  0  0  0
    6.3618   -2.3202   -5.0325 H   0  0  0  0  0  0
    6.1902   -0.8427   -5.9771 H   0  0  0  0  0  0
    5.5516   -2.3626   -6.5930 H   0  0  0  0  0  0
    2.3881   -0.6499   -5.4553 H   0  0  0  0  0  0
    3.1906   -1.3736   -6.8430 H   0  0  0  0  0  0
    3.7193    0.1932   -6.2437 H   0  0  0  0  0  0
    0.8215    0.1577    2.8802 H   0  0  0  0  0  0
  -10.2901   -1.4557   -1.4588 H   0  0  0  0  0  0
   -8.1062   -2.8651   -2.5442 H   0  0  0  0  0  0
   -6.6907    1.2602    5.7291 H   0  0  0  0  0  0
   -7.6286    2.2361    4.6090 H   0  0  0  0  0  0
   -6.7370    3.0119    5.9070 H   0  0  0  0  0  0
   -4.6357    3.1527    6.7794 H   0  0  0  0  0  0
   -2.4428    2.7886    7.8446 H   0  0  0  0  0  0
   -0.6657    1.5143    6.6585 H   0  0  0  0  0  0
   -1.1078    0.5882    4.3929 H   0  0  0  0  0  0
   -3.2995    0.9462    3.3085 H   0  0  0  0  0  0
  1  2  1  0  0  0
  1 53  1  0  0  0
  1 54  1  0  0  0
  1 55  1  0  0  0
  2 49  1  0  0  0
  2 21  1  0  0  0
  2  3  1  0  0  0
  3  4  1  0  0  0
  3 56  1  0  0  0
  3 57  1  0  0  0
  4  5  1  0  0  0
  4 58  1  0  0  0
  4 59  1  0  0  0
  5  6  1  0  0  0
  5 60  1  0  0  0
  5 61  1  0  0  0
  6  7  1  0  0  0
  6 62  1  0  0  0
  6 63  1  0  0  0
  7  8  1  0  0  0
  7 64  1  0  0  0
  7 65  1  0  0  0
  8  9  1  0  0  0
  8 41  1  0  0  0
  9 10  2  0  0  0
  9 11  1  0  0  0
 11 16  1  0  0  0
 11 12  2  0  0  0
 12 13  1  0  0  0
 12 66  1  0  0  0
 13 14  2  0  0  0
 13 36  1  0  0  0
 14 15  1  0  0  0
 14 67  1  0  0  0
 15 16  2  0  0  0
 15 17  1  0  0  0
 16 68  1  0  0  0
 17 18  2  0  0  0
 17 19  1  0  0  0
 19 20  1  0  0  0
 19 69  1  0  0  0
 20 50  1  0  0  0
 20 21  1  0  0  0
 20 22  1  0  0  0
 21 70  1  0  0  0
 21 71  1  0  0  0
 22 51  1  0  0  0
 22 23  1  0  0  0
 22 35  1  0  0  0
 23 24  1  0  0  0
 23 72  1  0  0  0
 23 73  1  0  0  0
 24 25  1  0  0  0
 24 74  1  0  0  0
 25 26  1  0  0  0
 25 75  1  0  0  0
 25 76  1  0  0  0
 26 31  1  0  0  0
 26 27  2  0  0  0
 27 28  1  0  0  0
 27 77  1  0  0  0
 28 29  2  0  0  0
 28 78  1  0  0  0
 29 30  1  0  0  0
 29 79  1  0  0  0
 30 31  2  0  0  0
 30 32  1  0  0  0
 31 80  1  0  0  0
 32 33  1  0  0  0
 32 34  1  0  0  0
 32 81  1  0  0  0
 33 82  1  0  0  0
 33 83  1  0  0  0
 33 84  1  0  0  0
 34 85  1  0  0  0
 34 86  1  0  0  0
 34 87  1  0  0  0
 35 88  1  0  0  0
 36 40  1  0  0  0
 36 37  2  0  0  0
 37 38  1  0  0  0
 38 39  2  0  0  0
 38 89  1  0  0  0
 39 40  1  0  0  0
 39 90  1  0  0  0
 41 52  1  0  0  0
 41 42  1  0  0  0
 41 43  1  0  0  0
 42 91  1  0  0  0
 42 92  1  0  0  0
 42 93  1  0  0  0
 43 48  1  0  0  0
 43 44  2  0  0  0
 44 45  1  0  0  0
 44 94  1  0  0  0
 45 46  2  0  0  0
 45 95  1  0  0  0
 46 47  1  0  0  0
 46 96  1  0  0  0
 47 48  2  0  0  0
 47 97  1  0  0  0
 48 98  1  0  0  0
M  END
> <i_f3d_flags>
0

> <chiral flag>
1

> <version>
0

> <s_i_glide_gridfile>
base1a_gride_6

> <i_i_glide_lignum>
15

> <i_i_glide_rotatable_bonds>
10

> <r_i_docking_score>
-0.952859090809743

> <r_i_glide_ligand_efficiency>
-0.0198512310585363

> <r_i_glide_ligand_efficiency_sa>
-0.0721441614059757

> <r_i_glide_ligand_efficiency_ln>
-0.195610710515957

> <r_glide_XP_GScore>
-3.22045909080974

> <r_i_glide_gscore>
-3.22045909080974

> <r_i_glide_evdw>
-32.0943374633789

> <r_i_glide_ecoul>
-9.40149211883545

> <r_i_glide_energy>
-41.4958295822144

> <r_i_glide_einternal>
0.890993469994779

> <r_i_glide_emodel>
-58.0939559936523

> <r_glide_XP_HBond>
-0.646725394493072

> <i_i_glide_confnum>
1

> <i_i_glide_posenum>
42

> <r_i_glide_eff_state_penalty>
2.2676

> <i_glide_XP_PoseRank>
1

> <s_m_source_file>
glide-dock_pose_2-0008_raw.maegz

> <i_m_source_file_index>
1

> <i_lp_mmshare_version>
42013

> <s_epik_input>
W2NIXTFbY0hdW2NIXVtjSF1bY0hdYzFbQ0BASF0oW0NIM10pTihDMj1PKVtDSDJdW0NIMl1bQ0gyXVtDSDJdW0NIMl1bQ0BASF0oW0NIM10pW0NIMl1bQ0BIXShbTkhdQyg9TyljKFtjSF0zKVtjSF1jKFtjSF1jMjMpLWM0bltjSF1bY0hdbzQpW0NASF0oW09IXSlbQ0gyXVtOSF1bQ0gyXWM1W2NIXVtjSF1bY0hdYyhbY0hdNSlbQ0hdKFtDSDNdKVtDSDNd

> <s_epik_cmdline>
J2VwaWtfcHl0aG9uJywgJy1waCcsICc3LjAnLCAnLXRuJywgJzgnLCAnLW1hJywgJzIwMCcsICctaW1hZScsICc8aW5maWxlLm1hZT4nLCAnLW9tYWUnLCAnPG91dGZpbGUubWFlPic=

> <r_epik_Ionization_Penalty>
2.12936

> <r_epik_Ionization_Penalty_Charging>
0

> <r_epik_Ionization_Penalty_Neutral>
2.12936

> <r_epik_State_Penalty>
2.26762

> <r_epik_Charging_Adjusted_Penalty>
2.26762

> <i_epik_Tot_Q>
0

> <i_epik_Tot_abs_Q>
0

> <i_f3d_flags>
0

> <s_lp_Force_Field>
OPLS_2005

> <r_lp_Energy>
63.2316

> <b_lp_Chiralities_Consistent>
1

> <s_lp_Variant>
BACE_7.smi:1-2

$$$$
BACE_8.smi:1
                    3D
 Structure written by MMmdl.
 78 80  0  0  1  0            999 V2000
   -1.2958    2.4878    3.1219 C   0  0  0  0  0  0
   -2.6115    1.7299    2.8684 C   0  0  2  0  0  0
   -3.2560    1.2716    4.1979 C   0  0  0  0  0  0
   -3.9858    2.3933    4.9546 C   0  0  0  0  0  0
   -5.1354    2.7625    4.2114 O   0  0  0  0  0  0
   -5.8199    3.8841    4.7432 C   0  0  0  0  0  0
   -7.0695    4.1840    3.8979 C   0  0  0  0  0  0
   -6.7824    4.7742    2.5038 C   0  0  0  0  0  0
   -6.1283    3.7801    1.5333 C   0  0  0  0  0  0
   -5.9530    4.3449    0.2052 N   0  0  0  0  0  0
   -5.2484    3.6465   -0.7850 C   0  0  0  0  0  0
   -4.7417    2.3394   -0.5871 C   0  0  0  0  0  0
   -4.0356    1.7165   -1.6397 C   0  0  0  0  0  0
   -3.8951    2.4132   -2.8567 C   0  0  0  0  0  0
   -4.4336    3.7102   -2.9633 C   0  0  0  0  0  0
   -5.0893    4.3130   -1.9482 N   0  0  0  0  0  0
   -4.2534    4.5684   -4.4485 Cl  0  0  0  0  0  0
   -3.5067    0.3174   -1.5087 C   0  0  0  0  0  0
   -3.8196   -0.5300   -2.3420 O   0  0  0  0  0  0
   -2.6870    0.0148   -0.4844 N   0  0  0  0  0  0
   -2.0069    0.9101    0.4585 C   0  0  1  0  0  0
   -2.4521    0.5373    1.8956 C   0  0  0  0  0  0
   -0.4654    0.8111    0.2700 C   0  0  1  0  0  0
    0.0714   -0.5787   -0.1327 C   0  0  0  0  0  0
    1.5440   -0.6320   -0.0480 N   0  3  0  0  0  0
    2.1176   -1.9356   -0.4305 C   0  0  0  0  0  0
    3.6300   -1.8915   -0.3592 C   0  0  0  0  0  0
    4.2939   -2.2444    0.8334 C   0  0  0  0  0  0
    5.6991   -2.1969    0.8979 C   0  0  0  0  0  0
    6.4445   -1.7969   -0.2276 C   0  0  0  0  0  0
    5.7897   -1.4426   -1.4267 C   0  0  0  0  0  0
    4.3793   -1.4917   -1.4854 C   0  0  0  0  0  0
    6.6040   -1.0148   -2.6413 C   0  0  0  0  0  0
    6.2953    0.4335   -3.0513 C   0  0  0  0  0  0
    6.4205   -1.9874   -3.8169 C   0  0  0  0  0  0
   -0.0692    1.7616   -0.6992 O   0  0  0  0  0  0
   -3.2986    2.4269    2.3920 H   0  0  0  0  0  0
   -2.3004    1.9449    0.2868 H   0  0  0  0  0  0
    0.0253    1.1050    1.1967 H   0  0  0  0  0  0
   -0.5269    1.8264    3.5221 H   0  0  0  0  0  0
   -1.4325    3.3013    3.8336 H   0  0  0  0  0  0
   -0.9141    2.9400    2.2070 H   0  0  0  0  0  0
   -3.9783    0.4755    4.0130 H   0  0  0  0  0  0
   -2.4916    0.8314    4.8394 H   0  0  0  0  0  0
   -4.2933    2.0388    5.9393 H   0  0  0  0  0  0
   -3.3306    3.2508    5.1094 H   0  0  0  0  0  0
   -6.1197    3.6672    5.7695 H   0  0  0  0  0  0
   -5.1636    4.7551    4.7727 H   0  0  0  0  0  0
   -7.6786    3.2839    3.8050 H   0  0  0  0  0  0
   -7.6812    4.9015    4.4456 H   0  0  0  0  0  0
   -7.7261    5.1128    2.0741 H   0  0  0  0  0  0
   -6.1580    5.6631    2.6026 H   0  0  0  0  0  0
   -5.1486    3.4961    1.9083 H   0  0  0  0  0  0
   -6.7320    2.8749    1.4602 H   0  0  0  0  0  0
   -6.2778    5.2836    0.0220 H   0  0  0  0  0  0
   -4.8884    1.8117    0.3439 H   0  0  0  0  0  0
   -3.3825    1.9650   -3.6958 H   0  0  0  0  0  0
   -2.4146   -0.9551   -0.4220 H   0  0  0  0  0  0
   -1.7814   -0.2107    2.3202 H   0  0  0  0  0  0
   -3.4253    0.0465    1.8366 H   0  0  0  0  0  0
   -0.3373   -1.3400    0.5330 H   0  0  0  0  0  0
   -0.2374   -0.8364   -1.1472 H   0  0  0  0  0  0
    1.7389   -2.7146    0.2326 H   0  0  0  0  0  0
    1.8063   -2.1949   -1.4435 H   0  0  0  0  0  0
    3.7293   -2.5520    1.7017 H   0  0  0  0  0  0
    6.2070   -2.4679    1.8117 H   0  0  0  0  0  0
    7.5225   -1.7651   -0.1646 H   0  0  0  0  0  0
    3.8689   -1.2212   -2.3984 H   0  0  0  0  0  0
    7.6576   -1.0493   -2.3608 H   0  0  0  0  0  0
    6.4707    1.1212   -2.2234 H   0  0  0  0  0  0
    5.2590    0.5512   -3.3689 H   0  0  0  0  0  0
    6.9309    0.7482   -3.8794 H   0  0  0  0  0  0
    6.6924   -3.0035   -3.5301 H   0  0  0  0  0  0
    7.0509   -1.7048   -4.6607 H   0  0  0  0  0  0
    5.3888   -2.0051   -4.1689 H   0  0  0  0  0  0
   -0.3698    2.6157   -0.4260 H   0  0  0  0  0  0
    1.9217    0.0761   -0.6617 H   0  0  0  0  0  0
    1.8250   -0.4208    0.8986 H   0  0  0  0  0  0
  1  2  1  0  0  0
  1 40  1  0  0  0
  1 41  1  0  0  0
  1 42  1  0  0  0
  2 37  1  0  0  0
  2 22  1  0  0  0
  2  3  1  0  0  0
  3  4  1  0  0  0
  3 43  1  0  0  0
  3 44  1  0  0  0
  4  5  1  0  0  0
  4 45  1  0  0  0
  4 46  1  0  0  0
  5  6  1  0  0  0
  6  7  1  0  0  0
  6 47  1  0  0  0
  6 48  1  0  0  0
  7  8  1  0  0  0
  7 49  1  0  0  0
  7 50  1  0  0  0
  8  9  1  0  0  0
  8 51  1  0  0  0
  8 52  1  0  0  0
  9 10  1  0  0  0
  9 53  1  0  0  0
  9 54  1  0  0  0
 10 11  1  0  0  0
 10 55  1  0  0  0
 11 16  1  0  0  0
 11 12  2  0  0  0
 12 13  1  0  0  0
 12 56  1  0  0  0
 13 14  2  0  0  0
 13 18  1  0  0  0
 14 15  1  0  0  0
 14 57  1  0  0  0
 15 16  2  0  0  0
 15 17  1  0  0  0
 18 19  2  0  0  0
 18 20  1  0  0  0
 20 21  1  0  0  0
 20 58  1  0  0  0
 21 38  1  0  0  0
 21 22  1  0  0  0
 21 23  1  0  0  0
 22 59  1  0  0  0
 22 60  1  0  0  0
 23 39  1  0  0  0
 23 24  1  0  0  0
 23 36  1  0  0  0
 24 25  1  0  0  0
 24 61  1  0  0  0
 24 62  1  0  0  0
 25 26  1  0  0  0
 25 77  1  0  0  0
 25 78  1  0  0  0
 26 27  1  0  0  0
 26 63  1  0  0  0
 26 64  1  0  0  0
 27 32  1  0  0  0
 27 28  2  0  0  0
 28 29  1  0  0  0
 28 65  1  0  0  0
 29 30  2  0  0  0
 29 66  1  0  0  0
 30 31  1  0  0  0
 30 67  1  0  0  0
 31 32  2  0  0  0
 31 33  1  0  0  0
 32 68  1  0  0  0
 33 34  1  0  0  0
 33 35  1  0  0  0
 33 69  1  0  0  0
 34 70  1  0  0  0
 34 71  1  0  0  0
 34 72  1  0  0  0
 35 73  1  0  0  0
 35 74  1  0  0  0
 35 75  1  0  0  0
 36 76  1  0  0  0
M  CHG  1  25   1
M  END
> <i_f3d_flags>
0

> <chiral flag>
1

> <version>
0

> <s_i_glide_gridfile>
base1a_gride_6

> <i_i_glide_lignum>
16

> <i_i_glide_rotatable_bonds>
7

> <r_i_docking_score>
-1.58239911378822

> <r_i_glide_ligand_efficiency>
-0.0439555309385617

> <r_i_glide_ligand_efficiency_sa>
-0.145137965172299

> <r_i_glide_ligand_efficiency_ln>
-0.345236735145078

> <r_glide_XP_GScore>
-1.59629911378822

> <r_i_glide_gscore>
-1.59629911378822

> <r_i_glide_evdw>
-29.1512298583984

> <r_i_glide_ecoul>
-12.1896867752075

> <r_i_glide_energy>
-41.340916633606

> <r_i_glide_einternal>
2.76045250892639

> <r_i_glide_emodel>
-51.7300551148238

> <r_glide_XP_HBond>
-0.656932858009828

> <i_i_glide_confnum>
1

> <i_i_glide_posenum>
1

> <r_i_glide_eff_state_penalty>
0.0139

> <i_glide_XP_PoseRank>
1

> <s_m_source_file>
glide-dock_pose_2-0008_raw.maegz

> <i_m_source_file_index>
2

> <i_lp_mmshare_version>
42013

> <s_epik_input>
W05IXTFbQ0gyXVtDSDJdW0NIMl1bQ0gyXU9bQ0gyXVtDSDJdW0NAQEhdKFtDSDNdKVtDSDJdW0NASF0oW05IXUMoPU8pYyhbY0hdYzEyKVtjSF1jKG4yKUNsKVtDQEhdKFtPSF0pW0NIMl1bTkhdW0NIMl1jM1tjSF1bY0hdW2NIXWMoW2NIXTMpW0NIXShbQ0gzXSlbQ0gzXQ==

> <s_epik_cmdline>
J2VwaWtfcHl0aG9uJywgJy1waCcsICc3LjAnLCAnLXRuJywgJzgnLCAnLW1hJywgJzIwMCcsICctaW1hZScsICc8aW5maWxlLm1hZT4nLCAnLW9tYWUnLCAnPG91dGZpbGUubWFlPic=

> <r_lp_tautomer_probability>
1

> <r_epik_Ionization_Penalty>
0.0175543

> <r_epik_Ionization_Penalty_Charging>
0.0175505

> <r_epik_Ionization_Penalty_Neutral>
3.77069e-06

> <r_epik_State_Penalty>
0.0139167

> <r_epik_Charging_Adjusted_Penalty>
0.0314671

> <i_epik_Tot_Q>
1

> <i_epik_Tot_abs_Q>
1

> <i_f3d_flags>
0

> <s_lp_Force_Field>
OPLS_2005

> <r_lp_Energy>
27.9011

> <b_lp_Chiralities_Consistent>
1

> <s_lp_Variant>
BACE_8.smi:1-1

$$$$
BACE_8.smi:1
                    3D
 Structure written by MMmdl.
 77 79  0  0  1  0            999 V2000
   -1.2454    2.7578    2.9218 C   0  0  0  0  0  0
   -2.4431    1.8479    2.5934 C   0  0  2  0  0  0
   -2.9248    1.0855    3.8503 C   0  0  0  0  0  0
   -3.7661    1.9401    4.8127 C   0  0  0  0  0  0
   -5.0036    2.2358    4.1868 O   0  0  0  0  0  0
   -5.8119    3.1378    4.9230 C   0  0  0  0  0  0
   -7.1444    3.3628    4.1885 C   0  0  0  0  0  0
   -7.0410    4.2008    2.8996 C   0  0  0  0  0  0
   -6.3061    3.4902    1.7535 C   0  0  0  0  0  0
   -6.3108    4.2754    0.5301 N   0  0  0  0  0  0
   -5.5676    3.8696   -0.5868 C   0  0  0  0  0  0
   -4.8575    2.6459   -0.6307 C   0  0  0  0  0  0
   -4.1289    2.3234   -1.7968 C   0  0  0  0  0  0
   -4.1668    3.2231   -2.8809 C   0  0  0  0  0  0
   -4.8998    4.4181   -2.7468 C   0  0  0  0  0  0
   -5.5806    4.7340   -1.6241 N   0  0  0  0  0  0
   -4.9368    5.5260   -4.0681 Cl  0  0  0  0  0  0
   -3.3883    1.0235   -1.9235 C   0  0  0  0  0  0
   -3.6271    0.2806   -2.8732 O   0  0  0  0  0  0
   -2.4672    0.6972   -0.9977 N   0  0  0  0  0  0
   -1.8766    1.5294    0.0573 C   0  0  1  0  0  0
   -2.1651    0.8674    1.4290 C   0  0  0  0  0  0
   -0.3564    1.7075   -0.2081 C   0  0  1  0  0  0
    0.3623    0.4532   -0.7612 C   0  0  0  0  0  0
    1.8005    0.4586   -0.4930 N   0  0  0  0  0  0
    2.1694    0.1453    0.8863 C   0  0  0  0  0  0
    3.6666    0.2310    1.0947 C   0  0  0  0  0  0
    4.4870   -0.8791    0.8091 C   0  0  0  0  0  0
    5.8801   -0.7908    0.9920 C   0  0  0  0  0  0
    6.4564    0.4063    1.4588 C   0  0  0  0  0  0
    5.6433    1.5242    1.7452 C   0  0  0  0  0  0
    4.2463    1.4291    1.5598 C   0  0  0  0  0  0
    6.2724    2.8163    2.2505 C   0  0  0  0  0  0
    5.8016    3.1539    3.6738 C   0  0  0  0  0  0
    6.0314    3.9838    1.2806 C   0  0  0  0  0  0
   -0.1991    2.7699   -1.1273 O   0  0  0  0  0  0
   -3.2572    2.4922    2.2669 H   0  0  0  0  0  0
   -2.3311    2.5193    0.0707 H   0  0  0  0  0  0
    0.1226    2.0352    0.7105 H   0  0  0  0  0  0
   -0.3552    2.1740    3.1579 H   0  0  0  0  0  0
   -1.4523    3.4028    3.7750 H   0  0  0  0  0  0
   -1.0085    3.4184    2.0882 H   0  0  0  0  0  0
   -3.5290    0.2246    3.5613 H   0  0  0  0  0  0
   -2.0632    0.6756    4.3789 H   0  0  0  0  0  0
   -3.9532    1.3874    5.7343 H   0  0  0  0  0  0
   -3.2394    2.8547    5.0857 H   0  0  0  0  0  0
   -6.0081    2.7188    5.9112 H   0  0  0  0  0  0
   -5.2931    4.0865    5.0689 H   0  0  0  0  0  0
   -7.6156    2.4028    3.9745 H   0  0  0  0  0  0
   -7.8204    3.8804    4.8699 H   0  0  0  0  0  0
   -8.0510    4.4456    2.5688 H   0  0  0  0  0  0
   -6.5547    5.1522    3.1187 H   0  0  0  0  0  0
   -5.2711    3.3167    2.0365 H   0  0  0  0  0  0
   -6.7641    2.5200    1.5582 H   0  0  0  0  0  0
   -6.7840    5.1675    0.5196 H   0  0  0  0  0  0
   -4.8657    1.9572    0.2013 H   0  0  0  0  0  0
   -3.6405    3.0057   -3.7992 H   0  0  0  0  0  0
   -2.0354   -0.2077   -1.1148 H   0  0  0  0  0  0
   -1.3601    0.1817    1.6971 H   0  0  0  0  0  0
   -3.0517    0.2394    1.3256 H   0  0  0  0  0  0
   -0.0711   -0.4468   -0.3235 H   0  0  0  0  0  0
    0.1872    0.3744   -1.8348 H   0  0  0  0  0  0
    1.6872    0.8259    1.5874 H   0  0  0  0  0  0
    1.8312   -0.8580    1.1478 H   0  0  0  0  0  0
    4.0500   -1.7983    0.4475 H   0  0  0  0  0  0
    6.5080   -1.6418    0.7724 H   0  0  0  0  0  0
    7.5266    0.4608    1.5949 H   0  0  0  0  0  0
    3.6144    2.2787    1.7739 H   0  0  0  0  0  0
    7.3510    2.6613    2.2996 H   0  0  0  0  0  0
    6.0278    2.3399    4.3632 H   0  0  0  0  0  0
    4.7267    3.3329    3.7112 H   0  0  0  0  0  0
    6.2983    4.0491    4.0488 H   0  0  0  0  0  0
    6.4180    3.7532    0.2873 H   0  0  0  0  0  0
    6.5323    4.8886    1.6260 H   0  0  0  0  0  0
    4.9703    4.2134    1.1803 H   0  0  0  0  0  0
    0.7246    2.9156   -1.2627 H   0  0  0  0  0  0
    2.1910    1.3597   -0.7499 H   0  0  0  0  0  0
  1  2  1  0  0  0
  1 40  1  0  0  0
  1 41  1  0  0  0
  1 42  1  0  0  0
  2 37  1  0  0  0
  2 22  1  0  0  0
  2  3  1  0  0  0
  3  4  1  0  0  0
  3 43  1  0  0  0
  3 44  1  0  0  0
  4  5  1  0  0  0
  4 45  1  0  0  0
  4 46  1  0  0  0
  5  6  1  0  0  0
  6  7  1  0  0  0
  6 47  1  0  0  0
  6 48  1  0  0  0
  7  8  1  0  0  0
  7 49  1  0  0  0
  7 50  1  0  0  0
  8  9  1  0  0  0
  8 51  1  0  0  0
  8 52  1  0  0  0
  9 10  1  0  0  0
  9 53  1  0  0  0
  9 54  1  0  0  0
 10 11  1  0  0  0
 10 55  1  0  0  0
 11 16  1  0  0  0
 11 12  2  0  0  0
 12 13  1  0  0  0
 12 56  1  0  0  0
 13 14  2  0  0  0
 13 18  1  0  0  0
 14 15  1  0  0  0
 14 57  1  0  0  0
 15 16  2  0  0  0
 15 17  1  0  0  0
 18 19  2  0  0  0
 18 20  1  0  0  0
 20 21  1  0  0  0
 20 58  1  0  0  0
 21 38  1  0  0  0
 21 22  1  0  0  0
 21 23  1  0  0  0
 22 59  1  0  0  0
 22 60  1  0  0  0
 23 39  1  0  0  0
 23 24  1  0  0  0
 23 36  1  0  0  0
 24 25  1  0  0  0
 24 61  1  0  0  0
 24 62  1  0  0  0
 25 26  1  0  0  0
 25 77  1  0  0  0
 26 27  1  0  0  0
 26 63  1  0  0  0
 26 64  1  0  0  0
 27 32  1  0  0  0
 27 28  2  0  0  0
 28 29  1  0  0  0
 28 65  1  0  0  0
 29 30  2  0  0  0
 29 66  1  0  0  0
 30 31  1  0  0  0
 30 67  1  0  0  0
 31 32  2  0  0  0
 31 33  1  0  0  0
 32 68  1  0  0  0
 33 34  1  0  0  0
 33 35  1  0  0  0
 33 69  1  0  0  0
 34 70  1  0  0  0
 34 71  1  0  0  0
 34 72  1  0  0  0
 35 73  1  0  0  0
 35 74  1  0  0  0
 35 75  1  0  0  0
 36 76  1  0  0  0
M  END
> <i_f3d_flags>
0

> <chiral flag>
1

> <version>
0

> <s_i_glide_gridfile>
base1a_gride_6

> <i_i_glide_lignum>
16

> <i_i_glide_rotatable_bonds>
7

> <r_i_docking_score>
-1.58239911378822

> <r_i_glide_ligand_efficiency>
-0.0439555309385617

> <r_i_glide_ligand_efficiency_sa>
-0.145137965172299

> <r_i_glide_ligand_efficiency_ln>
-0.345236735145078

> <r_glide_XP_GScore>
-1.59629911378822

> <r_i_glide_gscore>
-1.59629911378822

> <r_i_glide_evdw>
-29.1512298583984

> <r_i_glide_ecoul>
-12.1896867752075

> <r_i_glide_energy>
-41.340916633606

> <r_i_glide_einternal>
2.76045250892639

> <r_i_glide_emodel>
-51.7300551148238

> <r_glide_XP_HBond>
-0.656932858009828

> <i_i_glide_confnum>
1

> <i_i_glide_posenum>
1

> <r_i_glide_eff_state_penalty>
0.0139

> <i_glide_XP_PoseRank>
1

> <s_m_source_file>
glide-dock_pose_2-0008_raw.maegz

> <i_m_source_file_index>
2

> <i_lp_mmshare_version>
42013

> <s_epik_input>
W05IXTFbQ0gyXVtDSDJdW0NIMl1bQ0gyXU9bQ0gyXVtDSDJdW0NAQEhdKFtDSDNdKVtDSDJdW0NASF0oW05IXUMoPU8pYyhbY0hdYzEyKVtjSF1jKG4yKUNsKVtDQEhdKFtPSF0pW0NIMl1bTkhdW0NIMl1jM1tjSF1bY0hdW2NIXWMoW2NIXTMpW0NIXShbQ0gzXSlbQ0gzXQ==

> <s_epik_cmdline>
J2VwaWtfcHl0aG9uJywgJy1waCcsICc3LjAnLCAnLXRuJywgJzgnLCAnLW1hJywgJzIwMCcsICctaW1hZScsICc8aW5maWxlLm1hZT4nLCAnLW9tYWUnLCAnPG91dGZpbGUubWFlPic=

> <r_lp_tautomer_probability>
1

> <r_epik_Ionization_Penalty>
2.09386

> <r_epik_Ionization_Penalty_Charging>
0

> <r_epik_Ionization_Penalty_Neutral>
2.09386

> <r_epik_State_Penalty>
2.2295

> <r_epik_Charging_Adjusted_Penalty>
2.2295

> <i_epik_Tot_Q>
0

> <i_epik_Tot_abs_Q>
0

> <i_f3d_flags>
0

> <s_lp_Force_Field>
OPLS_2005

> <r_lp_Energy>
36.7598

> <b_lp_Chiralities_Consistent>
1

> <s_lp_Variant>
BACE_8.smi:1-2

$$$$
