BACE_14.smi:1
                    3D
 Structure written by MMmdl.
 85 89  0  0  1  0            999 V2000
    3.7375    4.5314    1.4876 C   0  0  0  0  0  0
    2.4303    5.0190    2.1279 C   0  0  0  0  0  0
    1.8199    6.1894    1.3417 C   0  0  0  0  0  0
    1.4323    3.8821    2.3060 C   0  0  0  0  0  0
    0.9871    3.5283    3.5971 C   0  0  0  0  0  0
    0.0559    2.4865    3.7633 C   0  0  0  0  0  0
   -0.4352    1.7936    2.6409 C   0  0  0  0  0  0
    0.0023    2.1319    1.3430 C   0  0  0  0  0  0
    0.9397    3.1757    1.1868 C   0  0  0  0  0  0
   -0.5090    1.3729    0.1514 C   0  0  0  0  0  0
   -0.8344    2.0756   -1.1499 C   0  0  0  0  0  0
   -1.9483    1.5553   -0.2695 C   0  0  0  0  0  0
    0.0290    0.0150    0.0991 N   0  0  0  0  0  0
    1.3962   -0.0544   -0.4138 C   0  0  0  0  0  0
    1.9500   -1.4920   -0.3114 C   0  0  2  0  0  0
    3.4895   -1.5556   -0.1365 C   0  0  2  0  0  0
    4.0439   -3.0050   -0.0776 C   0  0  0  0  0  0
    3.6473   -3.7740    1.1739 C   0  0  0  0  0  0
    2.4875   -4.5754    1.1811 C   0  0  0  0  0  0
    2.1029   -5.2483    2.3563 C   0  0  0  0  0  0
    2.8687   -5.1149    3.5307 C   0  0  0  0  0  0
    4.0364   -4.3143    3.5319 C   0  0  0  0  0  0
    4.4293   -3.6729    2.3424 C   0  0  0  0  0  0
    4.8232   -4.1125    4.6409 O   0  0  0  0  0  0
    4.1980   -4.2268    5.9113 C   0  0  0  0  0  0
    5.0242   -3.4363    6.9357 C   0  0  0  0  0  0
    5.2394   -1.9579    6.5609 C   0  0  0  0  0  0
    3.9350   -1.1519    6.4166 C   0  0  0  0  0  0
    4.1816    0.2654    6.1863 N   0  0  0  0  0  0
    4.7485    0.7115    4.9824 C   0  0  0  0  0  0
    4.6036    0.0188    3.7578 C   0  0  0  0  0  0
    5.1974    0.5198    2.5759 C   0  0  0  0  0  0
    5.9640    1.7037    2.6350 C   0  0  0  0  0  0
    6.1088    2.4146    3.8486 C   0  0  0  0  0  0
    5.4900    1.9091    5.0129 C   0  0  0  0  0  0
    6.8908    3.6814    3.9275 C   0  0  0  0  0  0
    7.0395    4.3247    4.9661 O   0  0  0  0  0  0
    7.5351    4.2033    2.6443 C   0  0  0  0  0  0
    5.0568   -0.2063    1.2678 C   0  0  0  0  0  0
    5.9619   -0.1865    0.4335 O   0  0  0  0  0  0
    3.8758   -0.8120    1.0653 N   0  0  0  0  0  0
    1.5951   -2.1521   -1.5106 O   0  0  0  0  0  0
    1.4779   -2.0084    0.5255 H   0  0  0  0  0  0
    3.9322   -1.0633   -1.0048 H   0  0  0  0  0  0
    4.1776    3.7318    2.0800 H   0  0  0  0  0  0
    4.4692    5.3374    1.4263 H   0  0  0  0  0  0
    3.5792    4.1499    0.4787 H   0  0  0  0  0  0
    2.6829    5.3959    3.1200 H   0  0  0  0  0  0
    0.9210    6.5647    1.8315 H   0  0  0  0  0  0
    1.5486    5.8949    0.3275 H   0  0  0  0  0  0
    2.5237    7.0186    1.2665 H   0  0  0  0  0  0
    1.3550    4.0549    4.4655 H   0  0  0  0  0  0
   -0.2839    2.2191    4.7529 H   0  0  0  0  0  0
   -1.1498    0.9950    2.7776 H   0  0  0  0  0  0
    1.2845    3.4355    0.1969 H   0  0  0  0  0  0
   -0.7099    3.1554   -1.2021 H   0  0  0  0  0  0
   -0.6632    1.5423   -2.0830 H   0  0  0  0  0  0
   -2.4943    0.6875   -0.6347 H   0  0  0  0  0  0
   -2.5461    2.2933    0.2617 H   0  0  0  0  0  0
    1.4494    0.3104   -1.4405 H   0  0  0  0  0  0
    2.0167    0.6243    0.1702 H   0  0  0  0  0  0
    3.7384   -3.5707   -0.9583 H   0  0  0  0  0  0
    5.1333   -2.9744   -0.1233 H   0  0  0  0  0  0
    1.8842   -4.6663    0.2896 H   0  0  0  0  0  0
    1.2128   -5.8599    2.3599 H   0  0  0  0  0  0
    2.5497   -5.6358    4.4209 H   0  0  0  0  0  0
    5.3202   -3.0618    2.3418 H   0  0  0  0  0  0
    3.1776   -3.8406    5.8919 H   0  0  0  0  0  0
    4.1447   -5.2767    6.2012 H   0  0  0  0  0  0
    4.5411   -3.4984    7.9114 H   0  0  0  0  0  0
    5.9975   -3.9145    7.0499 H   0  0  0  0  0  0
    5.8608   -1.4955    7.3288 H   0  0  0  0  0  0
    5.8158   -1.8994    5.6370 H   0  0  0  0  0  0
    3.3039   -1.5550    5.6256 H   0  0  0  0  0  0
    3.3562   -1.2381    7.3363 H   0  0  0  0  0  0
    4.3543    0.8277    7.0074 H   0  0  0  0  0  0
    4.0355   -0.8983    3.7168 H   0  0  0  0  0  0
    6.4231    2.0686    1.7279 H   0  0  0  0  0  0
    5.5909    2.4366    5.9511 H   0  0  0  0  0  0
    8.2481    3.4777    2.2526 H   0  0  0  0  0  0
    8.0682    5.1346    2.8368 H   0  0  0  0  0  0
    6.7765    4.3959    1.8857 H   0  0  0  0  0  0
    3.1884   -0.7559    1.8028 H   0  0  0  0  0  0
    0.6552   -2.1141   -1.6032 H   0  0  0  0  0  0
    0.0359   -0.3618    1.0417 H   0  0  0  0  0  0
  1  2  1  0  0  0
  1 45  1  0  0  0
  1 46  1  0  0  0
  1 47  1  0  0  0
  2  3  1  0  0  0
  2  4  1  0  0  0
  2 48  1  0  0  0
  3 49  1  0  0  0
  3 50  1  0  0  0
  3 51  1  0  0  0
  4  9  1  0  0  0
  4  5  2  0  0  0
  5  6  1  0  0  0
  5 52  1  0  0  0
  6  7  2  0  0  0
  6 53  1  0  0  0
  7  8  1  0  0  0
  7 54  1  0  0  0
  8  9  2  0  0  0
  8 10  1  0  0  0
  9 55  1  0  0  0
 10 12  1  0  0  0
 10 11  1  0  0  0
 10 13  1  0  0  0
 11 12  1  0  0  0
 11 56  1  0  0  0
 11 57  1  0  0  0
 12 58  1  0  0  0
 12 59  1  0  0  0
 13 14  1  0  0  0
 13 85  1  0  0  0
 14 15  1  0  0  0
 14 60  1  0  0  0
 14 61  1  0  0  0
 15 43  1  0  0  0
 15 16  1  0  0  0
 15 42  1  0  0  0
 16 44  1  0  0  0
 16 41  1  0  0  0
 16 17  1  0  0  0
 17 18  1  0  0  0
 17 62  1  0  0  0
 17 63  1  0  0  0
 18 23  1  0  0  0
 18 19  2  0  0  0
 19 20  1  0  0  0
 19 64  1  0  0  0
 20 21  2  0  0  0
 20 65  1  0  0  0
 21 22  1  0  0  0
 21 66  1  0  0  0
 22 23  2  0  0  0
 22 24  1  0  0  0
 23 67  1  0  0  0
 24 25  1  0  0  0
 25 26  1  0  0  0
 25 68  1  0  0  0
 25 69  1  0  0  0
 26 27  1  0  0  0
 26 70  1  0  0  0
 26 71  1  0  0  0
 27 28  1  0  0  0
 27 72  1  0  0  0
 27 73  1  0  0  0
 28 29  1  0  0  0
 28 74  1  0  0  0
 28 75  1  0  0  0
 29 30  1  0  0  0
 29 76  1  0  0  0
 30 35  1  0  0  0
 30 31  2  0  0  0
 31 32  1  0  0  0
 31 77  1  0  0  0
 32 33  2  0  0  0
 32 39  1  0  0  0
 33 34  1  0  0  0
 33 78  1  0  0  0
 34 35  2  0  0  0
 34 36  1  0  0  0
 35 79  1  0  0  0
 36 37  2  0  0  0
 36 38  1  0  0  0
 38 80  1  0  0  0
 38 81  1  0  0  0
 38 82  1  0  0  0
 39 40  2  0  0  0
 39 41  1  0  0  0
 41 83  1  0  0  0
 42 84  1  0  0  0
M  END
> <i_f3d_flags>
0

> <chiral flag>
1

> <version>
0

> <s_i_glide_gridfile>
base1a_gride_6

> <i_i_glide_lignum>
29

> <i_i_glide_rotatable_bonds>
8

> <r_i_docking_score>
-1.72380760282206

> <r_i_glide_ligand_efficiency>
-0.0410430381624299

> <r_i_glide_ligand_efficiency_sa>
-0.142666694061951

> <r_i_glide_ligand_efficiency_ln>
-0.363851374559684

> <r_glide_XP_GScore>
-2.24500760282206

> <r_i_glide_gscore>
-2.24500760282206

> <r_i_glide_evdw>
-29.8351631164551

> <r_i_glide_ecoul>
-11.5857725143433

> <r_i_glide_energy>
-41.4209356307983

> <r_i_glide_einternal>
8.84827613830566

> <r_i_glide_emodel>
-51.0571012357071

> <r_glide_XP_HBond>
-0.7

> <i_i_glide_confnum>
1

> <i_i_glide_posenum>
5

> <r_i_glide_eff_state_penalty>
0.5212

> <i_glide_XP_PoseRank>
1

> <s_m_source_file>
glide-dock_pose_2-0015_raw.maegz

> <i_m_source_file_index>
1

> <i_lp_mmshare_version>
42013

> <s_epik_input>
W0NIM11bQ0hdKFtDSDNdKWMxW2NIXVtjSF1bY0hdYyhbY0hdMSlDMihbQ0gyXVtDSDJdMilbTkhdW0NIMl1bQ0BASF0oW09IXSlbQ0BIXShbQ0gyXTMpW05IXUMoPU8pYyhbY0hdYyhbY0hdNClDKD1PKVtDSDNdKVtjSF1jNFtOSF1bQ0gyXVtDSDJdW0NIMl1bQ0gyXU9jKFtjSF01KVtjSF1bY0hdW2NIXWMzNQ==

> <s_epik_cmdline>
J2VwaWtfcHl0aG9uJywgJy1waCcsICc3LjAnLCAnLXRuJywgJzgnLCAnLW1hJywgJzIwMCcsICctaW1hZScsICc8aW5maWxlLm1hZT4nLCAnLW9tYWUnLCAnPG91dGZpbGUubWFlPic=

> <r_lp_tautomer_probability>
0.99995

> <r_epik_Ionization_Penalty>
0.322992

> <r_epik_Ionization_Penalty_Charging>
0

> <r_epik_Ionization_Penalty_Neutral>
0.322992

> <r_epik_State_Penalty>
0.317604

> <r_epik_Charging_Adjusted_Penalty>
0.317604

> <i_epik_Tot_Q>
0

> <i_epik_Tot_abs_Q>
0

> <i_f3d_flags>
0

> <s_lp_Force_Field>
OPLS_2005

> <r_lp_Energy>
51.0694

> <b_lp_Chiralities_Consistent>
1

> <s_lp_Variant>
BACE_14.smi:1-1

$$$$
BACE_14.smi:1
                    3D
 Structure written by MMmdl.
 86 90  0  0  1  0            999 V2000
   -0.1216    5.1375    4.0599 C   0  0  0  0  0  0
    0.5564    3.8668    3.5236 C   0  0  0  0  0  0
    1.5922    3.3143    4.5150 C   0  0  0  0  0  0
   -0.4630    2.8047    3.1314 C   0  0  0  0  0  0
   -1.3470    2.2655    4.0909 C   0  0  0  0  0  0
   -2.2814    1.2812    3.7193 C   0  0  0  0  0  0
   -2.3351    0.8276    2.3882 C   0  0  0  0  0  0
   -1.4569    1.3545    1.4184 C   0  0  0  0  0  0
   -0.5264    2.3453    1.7985 C   0  0  0  0  0  0
   -1.5052    0.8572    0.0041 C   0  0  0  0  0  0
   -1.5599    1.7779   -1.1931 C   0  0  0  0  0  0
   -2.7671    0.9419   -0.8211 C   0  0  0  0  0  0
   -0.7487   -0.3903   -0.2377 N   0  3  0  0  0  0
    0.7111   -0.2812   -0.0321 C   0  0  0  0  0  0
    1.4291   -1.5908   -0.4012 C   0  0  2  0  0  0
    2.9166   -1.5907    0.0373 C   0  0  2  0  0  0
    3.7907   -0.5110   -0.6530 C   0  0  0  0  0  0
    5.2825   -0.7575   -0.5060 C   0  0  0  0  0  0
    5.9343   -0.4540    0.7051 C   0  0  0  0  0  0
    7.3035   -0.7385    0.8531 C   0  0  0  0  0  0
    8.0150   -1.3418   -0.2012 C   0  0  0  0  0  0
    7.3760   -1.6619   -1.4169 C   0  0  0  0  0  0
    6.0056   -1.3359   -1.5696 C   0  0  0  0  0  0
    8.1495   -2.2879   -2.3721 O   0  0  0  0  0  0
    7.5382   -2.8974   -3.5070 C   0  0  0  0  0  0
    8.1645   -4.2804   -3.7386 C   0  0  0  0  0  0
    7.5987   -5.3761   -2.8163 C   0  0  0  0  0  0
    8.0652   -5.2760   -1.3542 C   0  0  0  0  0  0
    7.5173   -6.3471   -0.5346 N   0  0  0  0  0  0
    6.1737   -6.3330   -0.1275 C   0  0  0  0  0  0
    5.4279   -5.1436    0.0533 C   0  0  0  0  0  0
    4.0868   -5.2001    0.5000 C   0  0  0  0  0  0
    3.4951   -6.4551    0.7599 C   0  0  0  0  0  0
    4.2223   -7.6525    0.5726 C   0  0  0  0  0  0
    5.5618   -7.5750    0.1327 C   0  0  0  0  0  0
    3.6162   -8.9885    0.8364 C   0  0  0  0  0  0
    4.2211  -10.0498    0.6875 O   0  0  0  0  0  0
    2.1659   -9.0333    1.3149 C   0  0  0  0  0  0
    3.3054   -3.9462    0.7719 C   0  0  0  0  0  0
    2.5044   -3.8960    1.7058 O   0  0  0  0  0  0
    3.5064   -2.9291   -0.0822 N   0  0  0  0  0  0
    1.3357   -1.7721   -1.8015 O   0  0  0  0  0  0
    0.9077   -2.4178    0.0824 H   0  0  0  0  0  0
    2.9461   -1.3559    1.1035 H   0  0  0  0  0  0
   -0.8200    5.5470    3.3292 H   0  0  0  0  0  0
    0.6157    5.9109    4.2782 H   0  0  0  0  0  0
   -0.6760    4.9435    4.9788 H   0  0  0  0  0  0
    1.0991    4.1539    2.6216 H   0  0  0  0  0  0
    2.1082    2.4481    4.0996 H   0  0  0  0  0  0
    1.1277    3.0076    5.4525 H   0  0  0  0  0  0
    2.3473    4.0646    4.7510 H   0  0  0  0  0  0
   -1.3119    2.6035    5.1163 H   0  0  0  0  0  0
   -2.9560    0.8724    4.4571 H   0  0  0  0  0  0
   -3.0538    0.0695    2.1128 H   0  0  0  0  0  0
    0.1494    2.7494    1.0586 H   0  0  0  0  0  0
   -1.6261    2.8489   -1.0116 H   0  0  0  0  0  0
   -1.0243    1.4907   -2.0962 H   0  0  0  0  0  0
   -3.0141    0.1145   -1.4840 H   0  0  0  0  0  0
   -3.6194    1.4705   -0.3986 H   0  0  0  0  0  0
    1.1019    0.5524   -0.6173 H   0  0  0  0  0  0
    0.8986   -0.0514    1.0172 H   0  0  0  0  0  0
    3.5631   -0.4582   -1.7178 H   0  0  0  0  0  0
    3.5544    0.4748   -0.2510 H   0  0  0  0  0  0
    5.3848   -0.0135    1.5243 H   0  0  0  0  0  0
    7.8056   -0.5085    1.7811 H   0  0  0  0  0  0
    9.0615   -1.5750   -0.0703 H   0  0  0  0  0  0
    5.4727   -1.5321   -2.4857 H   0  0  0  0  0  0
    6.4622   -3.0386   -3.4400 H   0  0  0  0  0  0
    7.7219   -2.2555   -4.3689 H   0  0  0  0  0  0
    7.9539   -4.5742   -4.7674 H   0  0  0  0  0  0
    9.2510   -4.2286   -3.6587 H   0  0  0  0  0  0
    6.5090   -5.3627   -2.8638 H   0  0  0  0  0  0
    7.9020   -6.3473   -3.2093 H   0  0  0  0  0  0
    9.1518   -5.3547   -1.3180 H   0  0  0  0  0  0
    7.8245   -4.3100   -0.9189 H   0  0  0  0  0  0
    7.9564   -7.2519   -0.6292 H   0  0  0  0  0  0
    5.8852   -4.1805   -0.1157 H   0  0  0  0  0  0
    2.4736   -6.4833    1.1102 H   0  0  0  0  0  0
    6.1372   -8.4795   -0.0070 H   0  0  0  0  0  0
    1.5055   -8.5784    0.5766 H   0  0  0  0  0  0
    2.0581   -8.5003    2.2596 H   0  0  0  0  0  0
    1.8466  -10.0644    1.4678 H   0  0  0  0  0  0
    4.1694   -3.0684   -0.8313 H   0  0  0  0  0  0
    1.7585   -2.5873   -2.0273 H   0  0  0  0  0  0
   -1.1078   -1.1093    0.3738 H   0  0  0  0  0  0
   -0.9070   -0.6738   -1.1943 H   0  0  0  0  0  0
  1  2  1  0  0  0
  1 45  1  0  0  0
  1 46  1  0  0  0
  1 47  1  0  0  0
  2  3  1  0  0  0
  2  4  1  0  0  0
  2 48  1  0  0  0
  3 49  1  0  0  0
  3 50  1  0  0  0
  3 51  1  0  0  0
  4  9  1  0  0  0
  4  5  2  0  0  0
  5  6  1  0  0  0
  5 52  1  0  0  0
  6  7  2  0  0  0
  6 53  1  0  0  0
  7  8  1  0  0  0
  7 54  1  0  0  0
  8  9  2  0  0  0
  8 10  1  0  0  0
  9 55  1  0  0  0
 10 12  1  0  0  0
 10 11  1  0  0  0
 10 13  1  0  0  0
 11 12  1  0  0  0
 11 56  1  0  0  0
 11 57  1  0  0  0
 12 58  1  0  0  0
 12 59  1  0  0  0
 13 14  1  0  0  0
 13 85  1  0  0  0
 13 86  1  0  0  0
 14 15  1  0  0  0
 14 60  1  0  0  0
 14 61  1  0  0  0
 15 43  1  0  0  0
 15 16  1  0  0  0
 15 42  1  0  0  0
 16 44  1  0  0  0
 16 41  1  0  0  0
 16 17  1  0  0  0
 17 18  1  0  0  0
 17 62  1  0  0  0
 17 63  1  0  0  0
 18 23  1  0  0  0
 18 19  2  0  0  0
 19 20  1  0  0  0
 19 64  1  0  0  0
 20 21  2  0  0  0
 20 65  1  0  0  0
 21 22  1  0  0  0
 21 66  1  0  0  0
 22 23  2  0  0  0
 22 24  1  0  0  0
 23 67  1  0  0  0
 24 25  1  0  0  0
 25 26  1  0  0  0
 25 68  1  0  0  0
 25 69  1  0  0  0
 26 27  1  0  0  0
 26 70  1  0  0  0
 26 71  1  0  0  0
 27 28  1  0  0  0
 27 72  1  0  0  0
 27 73  1  0  0  0
 28 29  1  0  0  0
 28 74  1  0  0  0
 28 75  1  0  0  0
 29 30  1  0  0  0
 29 76  1  0  0  0
 30 35  1  0  0  0
 30 31  2  0  0  0
 31 32  1  0  0  0
 31 77  1  0  0  0
 32 33  2  0  0  0
 32 39  1  0  0  0
 33 34  1  0  0  0
 33 78  1  0  0  0
 34 35  2  0  0  0
 34 36  1  0  0  0
 35 79  1  0  0  0
 36 37  2  0  0  0
 36 38  1  0  0  0
 38 80  1  0  0  0
 38 81  1  0  0  0
 38 82  1  0  0  0
 39 40  2  0  0  0
 39 41  1  0  0  0
 41 83  1  0  0  0
 42 84  1  0  0  0
M  CHG  1  13   1
M  END
> <i_f3d_flags>
0

> <chiral flag>
1

> <version>
0

> <s_i_glide_gridfile>
base1a_gride_6

> <i_i_glide_lignum>
29

> <i_i_glide_rotatable_bonds>
8

> <r_i_docking_score>
-1.72380760282206

> <r_i_glide_ligand_efficiency>
-0.0410430381624299

> <r_i_glide_ligand_efficiency_sa>
-0.142666694061951

> <r_i_glide_ligand_efficiency_ln>
-0.363851374559684

> <r_glide_XP_GScore>
-2.24500760282206

> <r_i_glide_gscore>
-2.24500760282206

> <r_i_glide_evdw>
-29.8351631164551

> <r_i_glide_ecoul>
-11.5857725143433

> <r_i_glide_energy>
-41.4209356307983

> <r_i_glide_einternal>
8.84827613830566

> <r_i_glide_emodel>
-51.0571012357071

> <r_glide_XP_HBond>
-0.7

> <i_i_glide_confnum>
1

> <i_i_glide_posenum>
5

> <r_i_glide_eff_state_penalty>
0.5212

> <i_glide_XP_PoseRank>
1

> <s_m_source_file>
glide-dock_pose_2-0015_raw.maegz

> <i_m_source_file_index>
1

> <i_lp_mmshare_version>
42013

> <s_epik_input>
W0NIM11bQ0hdKFtDSDNdKWMxW2NIXVtjSF1bY0hdYyhbY0hdMSlDMihbQ0gyXVtDSDJdMilbTkhdW0NIMl1bQ0BASF0oW09IXSlbQ0BIXShbQ0gyXTMpW05IXUMoPU8pYyhbY0hdYyhbY0hdNClDKD1PKVtDSDNdKVtjSF1jNFtOSF1bQ0gyXVtDSDJdW0NIMl1bQ0gyXU9jKFtjSF01KVtjSF1bY0hdW2NIXWMzNQ==

> <s_epik_cmdline>
J2VwaWtfcHl0aG9uJywgJy1waCcsICc3LjAnLCAnLXRuJywgJzgnLCAnLW1hJywgJzIwMCcsICctaW1hZScsICc8aW5maWxlLm1hZT4nLCAnLW9tYWUnLCAnPG91dGZpbGUubWFlPic=

> <r_lp_tautomer_probability>
0.99995

> <r_epik_Ionization_Penalty>
0.51374

> <r_epik_Ionization_Penalty_Charging>
0.513699

> <r_epik_Ionization_Penalty_Neutral>
4.03684e-05

> <r_epik_State_Penalty>
0.521152

> <r_epik_Charging_Adjusted_Penalty>
1.03485

> <i_epik_Tot_Q>
1

> <i_epik_Tot_abs_Q>
1

> <i_f3d_flags>
0

> <s_lp_Force_Field>
OPLS_2005

> <r_lp_Energy>
45.3655

> <b_lp_Chiralities_Consistent>
1

> <s_lp_Variant>
BACE_14.smi:1-2

$$$$
BACE_15.smi:1
                    3D
 Structure written by MMmdl.
 83 86  0  0  1  0            999 V2000
   -2.4813    2.5526   -5.1622 C   0  0  0  0  0  0
   -0.9588    2.3452   -5.1918 C   0  0  0  0  0  0
   -0.5838    0.9761   -5.7817 C   0  0  0  0  0  0
   -0.3353    2.5538   -3.8174 C   0  0  0  0  0  0
    0.5946    3.5962   -3.6148 C   0  0  0  0  0  0
    1.1786    3.7913   -2.3487 C   0  0  0  0  0  0
    0.8379    2.9454   -1.2766 C   0  0  0  0  0  0
   -0.0899    1.9005   -1.4683 C   0  0  0  0  0  0
   -0.6756    1.7101   -2.7369 C   0  0  0  0  0  0
   -0.4546    0.9784   -0.3188 C   0  0  0  0  0  0
    0.2273   -0.3296   -0.4163 N   0  3  0  0  0  0
    1.6954   -0.2843   -0.2466 C   0  0  0  0  0  0
    2.3106   -1.6987   -0.2911 C   0  0  2  0  0  0
    3.8372   -1.7245   -0.0105 C   0  0  2  0  0  0
    4.4356   -3.1581   -0.0044 C   0  0  0  0  0  0
    5.8913   -3.2057    0.4360 C   0  0  0  0  0  0
    6.8992   -2.7433   -0.4331 C   0  0  0  0  0  0
    8.2392   -2.7242   -0.0079 C   0  0  0  0  0  0
    8.5707   -3.1535    1.2906 C   0  0  0  0  0  0
    7.5771   -3.6217    2.1748 C   0  0  0  0  0  0
    6.2331   -3.6677    1.7263 C   0  0  0  0  0  0
    8.0009   -3.9827    3.4360 O   0  0  0  0  0  0
    7.0645   -4.4650    4.3942 C   0  0  0  0  0  0
    7.6731   -4.2460    5.7879 C   0  0  0  0  0  0
    7.6517   -2.7644    6.2076 C   0  0  0  0  0  0
    6.3552   -2.3491    6.9310 C   0  0  0  0  0  0
    6.1651   -0.9370    6.8686 O   0  0  0  0  0  0
    5.6813   -0.3755    5.7028 C   0  0  0  0  0  0
    5.8624    1.0122    5.5343 C   0  0  0  0  0  0
    5.4190    1.6669    4.3663 C   0  0  0  0  0  0
    4.7616    0.9300    3.3598 C   0  0  0  0  0  0
    4.5610   -0.4582    3.5128 C   0  0  0  0  0  0
    5.0124   -1.0996    4.6850 C   0  0  0  0  0  0
    3.8567   -1.2580    2.4587 C   0  0  0  0  0  0
    3.0807   -2.1632    2.7652 O   0  0  0  0  0  0
    4.2093   -0.9714    1.1936 N   0  0  0  0  0  0
    5.6223    3.1630    4.2135 C   0  0  0  0  0  0
    5.8182    3.5430    2.8601 O   0  0  0  0  0  0
    6.0157    4.9378    2.7091 C   0  0  0  0  0  0
    2.0927   -2.2076   -1.5935 O   0  0  0  0  0  0
    1.7927   -2.3441    0.4195 H   0  0  0  0  0  0
    4.3267   -1.1789   -0.8187 H   0  0  0  0  0  0
   -2.7330    3.5466   -4.7911 H   0  0  0  0  0  0
   -2.9763    1.8221   -4.5218 H   0  0  0  0  0  0
   -2.9085    2.4573   -6.1607 H   0  0  0  0  0  0
   -0.5474    3.1035   -5.8596 H   0  0  0  0  0  0
    0.4986    0.8627   -5.8476 H   0  0  0  0  0  0
   -0.9878    0.8592   -6.7876 H   0  0  0  0  0  0
   -0.9683    0.1556   -5.1755 H   0  0  0  0  0  0
    0.8658    4.2514   -4.4297 H   0  0  0  0  0  0
    1.8899    4.5905   -2.2006 H   0  0  0  0  0  0
    1.2936    3.1000   -0.3095 H   0  0  0  0  0  0
   -1.3857    0.9090   -2.8817 H   0  0  0  0  0  0
   -0.2200    1.4484    0.6373 H   0  0  0  0  0  0
   -1.5321    0.8107   -0.3290 H   0  0  0  0  0  0
    2.1464    0.3426   -1.0169 H   0  0  0  0  0  0
    1.8993    0.1938    0.7116 H   0  0  0  0  0  0
    3.8480   -3.8034    0.6500 H   0  0  0  0  0  0
    4.3629   -3.5988   -0.9992 H   0  0  0  0  0  0
    6.6450   -2.3894   -1.4216 H   0  0  0  0  0  0
    9.0118   -2.3651   -0.6716 H   0  0  0  0  0  0
    9.6002   -3.1164    1.6155 H   0  0  0  0  0  0
    5.4389   -4.0223    2.3637 H   0  0  0  0  0  0
    6.1037   -3.9568    4.3550 H   0  0  0  0  0  0
    6.8887   -5.5259    4.2139 H   0  0  0  0  0  0
    7.1443   -4.8463    6.5291 H   0  0  0  0  0  0
    8.7008   -4.6116    5.7839 H   0  0  0  0  0  0
    8.4934   -2.5606    6.8702 H   0  0  0  0  0  0
    7.8172   -2.1401    5.3289 H   0  0  0  0  0  0
    5.4849   -2.9030    6.5840 H   0  0  0  0  0  0
    6.4450   -2.6206    7.9830 H   0  0  0  0  0  0
    6.3596    1.5778    6.3091 H   0  0  0  0  0  0
    4.4062    1.4353    2.4733 H   0  0  0  0  0  0
    4.8306   -2.1572    4.7761 H   0  0  0  0  0  0
    4.8710   -0.2197    1.0614 H   0  0  0  0  0  0
    4.7474    3.6723    4.6201 H   0  0  0  0  0  0
    6.4846    3.4709    4.8072 H   0  0  0  0  0  0
    6.1530    5.1759    1.6545 H   0  0  0  0  0  0
    6.9038    5.2705    3.2477 H   0  0  0  0  0  0
    5.1545    5.5003    3.0721 H   0  0  0  0  0  0
    2.4400   -3.0860   -1.6364 H   0  0  0  0  0  0
   -0.1500   -0.9347    0.2987 H   0  0  0  0  0  0
    0.0231   -0.7342   -1.3193 H   0  0  0  0  0  0
  1  2  1  0  0  0
  1 43  1  0  0  0
  1 44  1  0  0  0
  1 45  1  0  0  0
  2  3  1  0  0  0
  2  4  1  0  0  0
  2 46  1  0  0  0
  3 47  1  0  0  0
  3 48  1  0  0  0
  3 49  1  0  0  0
  4  9  1  0  0  0
  4  5  2  0  0  0
  5  6  1  0  0  0
  5 50  1  0  0  0
  6  7  2  0  0  0
  6 51  1  0  0  0
  7  8  1  0  0  0
  7 52  1  0  0  0
  8  9  2  0  0  0
  8 10  1  0  0  0
  9 53  1  0  0  0
 10 11  1  0  0  0
 10 54  1  0  0  0
 10 55  1  0  0  0
 11 12  1  0  0  0
 11 82  1  0  0  0
 11 83  1  0  0  0
 12 13  1  0  0  0
 12 56  1  0  0  0
 12 57  1  0  0  0
 13 41  1  0  0  0
 13 14  1  0  0  0
 13 40  1  0  0  0
 14 42  1  0  0  0
 14 36  1  0  0  0
 14 15  1  0  0  0
 15 16  1  0  0  0
 15 58  1  0  0  0
 15 59  1  0  0  0
 16 21  1  0  0  0
 16 17  2  0  0  0
 17 18  1  0  0  0
 17 60  1  0  0  0
 18 19  2  0  0  0
 18 61  1  0  0  0
 19 20  1  0  0  0
 19 62  1  0  0  0
 20 21  2  0  0  0
 20 22  1  0  0  0
 21 63  1  0  0  0
 22 23  1  0  0  0
 23 24  1  0  0  0
 23 64  1  0  0  0
 23 65  1  0  0  0
 24 25  1  0  0  0
 24 66  1  0  0  0
 24 67  1  0  0  0
 25 26  1  0  0  0
 25 68  1  0  0  0
 25 69  1  0  0  0
 26 27  1  0  0  0
 26 70  1  0  0  0
 26 71  1  0  0  0
 27 28  1  0  0  0
 28 33  1  0  0  0
 28 29  2  0  0  0
 29 30  1  0  0  0
 29 72  1  0  0  0
 30 31  2  0  0  0
 30 37  1  0  0  0
 31 32  1  0  0  0
 31 73  1  0  0  0
 32 33  2  0  0  0
 32 34  1  0  0  0
 33 74  1  0  0  0
 34 35  2  0  0  0
 34 36  1  0  0  0
 36 75  1  0  0  0
 37 38  1  0  0  0
 37 76  1  0  0  0
 37 77  1  0  0  0
 38 39  1  0  0  0
 39 78  1  0  0  0
 39 79  1  0  0  0
 39 80  1  0  0  0
 40 81  1  0  0  0
M  CHG  1  11   1
M  END
> <i_f3d_flags>
0

> <chiral flag>
1

> <version>
0

> <s_i_glide_gridfile>
base1a_gride_6

> <i_i_glide_lignum>
30

> <i_i_glide_rotatable_bonds>
9

> <r_i_docking_score>
-1.82883737171655

> <r_i_glide_ligand_efficiency>
-0.0457209342929138

> <r_i_glide_ligand_efficiency_sa>
-0.156363395608668

> <r_i_glide_ligand_efficiency_ln>
-0.390037191105855

> <r_glide_XP_GScore>
-1.84413737171655

> <r_i_glide_gscore>
-1.84413737171655

> <r_i_glide_evdw>
-30.7034301757812

> <r_i_glide_ecoul>
-8.5932092666626

> <r_i_glide_energy>
-39.2966394424438

> <r_i_glide_einternal>
2.24868249893188

> <r_i_glide_emodel>
-49.2329580125513

> <r_glide_XP_HBond>
-0.694755762244397

> <i_i_glide_confnum>
1

> <i_i_glide_posenum>
13

> <r_i_glide_eff_state_penalty>
0.0153

> <i_glide_XP_PoseRank>
1

> <s_m_source_file>
glide-dock_pose_2-0015_raw.maegz

> <i_m_source_file_index>
2

> <i_lp_mmshare_version>
42013

> <s_epik_input>
W0NIM11bQ0hdKFtDSDNdKWMxW2NIXVtjSF1bY0hdYyhbY0hdMSlbQ0gyXVtOSF1bQ0gyXVtDQEBIXShbT0hdKVtDQEhdKFtDSDJdMilbTkhdQyg9TyljKFtjSF0zKVtjSF1jKFtDSDJdT1tDSDNdKVtjSF1jM09bQ0gyXVtDSDJdW0NIMl1bQ0gyXU9jKFtjSF00KVtjSF1bY0hdW2NIXWMyNA==

> <s_epik_cmdline>
J2VwaWtfcHl0aG9uJywgJy1waCcsICc3LjAnLCAnLXRuJywgJzgnLCAnLW1hJywgJzIwMCcsICctaW1hZScsICc8aW5maWxlLm1hZT4nLCAnLW9tYWUnLCAnPG91dGZpbGUubWFlPic=

> <r_lp_tautomer_probability>
1

> <r_epik_Ionization_Penalty>
0.0191203

> <r_epik_Ionization_Penalty_Charging>
0.0191194

> <r_epik_Ionization_Penalty_Neutral>
8.76464e-07

> <r_epik_State_Penalty>
0.0152524

> <r_epik_Charging_Adjusted_Penalty>
0.0343718

> <i_epik_Tot_Q>
1

> <i_epik_Tot_abs_Q>
1

> <i_f3d_flags>
0

> <s_lp_Force_Field>
OPLS_2005

> <r_lp_Energy>
33.7913

> <b_lp_Chiralities_Consistent>
1

> <s_lp_Variant>
BACE_15.smi:1-1

$$$$
BACE_15.smi:1
                    3D
 Structure written by MMmdl.
 82 85  0  0  1  0            999 V2000
    0.6687    1.8773   -6.0273 C   0  0  0  0  0  0
   -0.5645    1.9649   -5.1146 C   0  0  0  0  0  0
   -1.7062    2.7530   -5.7747 C   0  0  0  0  0  0
   -0.2110    2.5299   -3.7447 C   0  0  0  0  0  0
    0.3031    3.8388   -3.6153 C   0  0  0  0  0  0
    0.6310    4.3508   -2.3456 C   0  0  0  0  0  0
    0.4502    3.5576   -1.1971 C   0  0  0  0  0  0
   -0.0595    2.2482   -1.3141 C   0  0  0  0  0  0
   -0.3949    1.7418   -2.5884 C   0  0  0  0  0  0
   -0.2506    1.3968   -0.0697 C   0  0  0  0  0  0
    0.2961    0.0464   -0.1948 N   0  0  0  0  0  0
    1.7566   -0.0017   -0.2383 C   0  0  0  0  0  0
    2.2664   -1.4554   -0.3268 C   0  0  2  0  0  0
    3.7875   -1.6023   -0.0558 C   0  0  2  0  0  0
    4.2739   -3.0777   -0.0850 C   0  0  0  0  0  0
    5.7306   -3.2477    0.3216 C   0  0  0  0  0  0
    6.7529   -2.8783   -0.5747 C   0  0  0  0  0  0
    8.0998   -2.9803   -0.1846 C   0  0  0  0  0  0
    8.4250   -3.4363    1.1064 C   0  0  0  0  0  0
    7.4171   -3.8118    2.0182 C   0  0  0  0  0  0
    6.0632   -3.7375    1.6043 C   0  0  0  0  0  0
    7.8421   -4.2070    3.2691 O   0  0  0  0  0  0
    6.8980   -4.6146    4.2547 C   0  0  0  0  0  0
    7.5456   -4.4028    5.6323 C   0  0  0  0  0  0
    7.6100   -2.9152    6.0266 C   0  0  0  0  0  0
    6.3804   -2.4372    6.8245 C   0  0  0  0  0  0
    6.2637   -1.0161    6.7856 O   0  0  0  0  0  0
    5.7508   -0.4154    5.6521 C   0  0  0  0  0  0
    5.9194    0.9790    5.5280 C   0  0  0  0  0  0
    5.4424    1.6707    4.3946 C   0  0  0  0  0  0
    4.7717    0.9636    3.3757 C   0  0  0  0  0  0
    4.5848   -0.4303    3.4851 C   0  0  0  0  0  0
    5.0643   -1.1078    4.6243 C   0  0  0  0  0  0
    3.8606   -1.1994    2.4226 C   0  0  0  0  0  0
    3.0633   -2.0884    2.7215 O   0  0  0  0  0  0
    4.2170   -0.9031    1.1611 N   0  0  0  0  0  0
    5.6164    3.1745    4.2937 C   0  0  0  0  0  0
    5.8276    3.6009    2.9568 O   0  0  0  0  0  0
    5.9538    5.0077    2.8472 C   0  0  0  0  0  0
    2.0203   -1.8911   -1.6496 O   0  0  0  0  0  0
    1.7071   -2.0885    0.3633 H   0  0  0  0  0  0
    4.3127   -1.0774   -0.8554 H   0  0  0  0  0  0
    1.4514    1.2718   -5.5694 H   0  0  0  0  0  0
    1.0873    2.8622   -6.2357 H   0  0  0  0  0  0
    0.4161    1.4180   -6.9832 H   0  0  0  0  0  0
   -0.9241    0.9455   -4.9686 H   0  0  0  0  0  0
   -2.5930    2.7604   -5.1403 H   0  0  0  0  0  0
   -1.9885    2.3073   -6.7287 H   0  0  0  0  0  0
   -1.4238    3.7887   -5.9652 H   0  0  0  0  0  0
    0.4481    4.4559   -4.4895 H   0  0  0  0  0  0
    1.0234    5.3529   -2.2530 H   0  0  0  0  0  0
    0.7064    3.9576   -0.2269 H   0  0  0  0  0  0
   -0.7891    0.7399   -2.6768 H   0  0  0  0  0  0
    0.1822    1.8990    0.7964 H   0  0  0  0  0  0
   -1.3226    1.3350    0.1186 H   0  0  0  0  0  0
    2.1421    0.5832   -1.0745 H   0  0  0  0  0  0
    2.1375    0.4733    0.6653 H   0  0  0  0  0  0
    3.6514   -3.6887    0.5696 H   0  0  0  0  0  0
    4.1461   -3.4932   -1.0852 H   0  0  0  0  0  0
    6.5053   -2.5051   -1.5577 H   0  0  0  0  0  0
    8.8839   -2.6944   -0.8700 H   0  0  0  0  0  0
    9.4620   -3.4928    1.4034 H   0  0  0  0  0  0
    5.2561   -4.0201    2.2612 H   0  0  0  0  0  0
    5.9653   -4.0570    4.2259 H   0  0  0  0  0  0
    6.6607   -5.6675    4.1001 H   0  0  0  0  0  0
    7.0018   -4.9627    6.3941 H   0  0  0  0  0  0
    8.5523   -4.8220    5.6157 H   0  0  0  0  0  0
    8.5005   -2.7354    6.6298 H   0  0  0  0  0  0
    7.7429   -2.3108    5.1286 H   0  0  0  0  0  0
    5.4617   -2.9355    6.5186 H   0  0  0  0  0  0
    6.5108   -2.7263    7.8676 H   0  0  0  0  0  0
    6.4284    1.5212    6.3116 H   0  0  0  0  0  0
    4.3908    1.4955    2.5155 H   0  0  0  0  0  0
    4.8929   -2.1693    4.6803 H   0  0  0  0  0  0
    4.8957   -0.1662    1.0348 H   0  0  0  0  0  0
    4.7210    3.6485    4.6988 H   0  0  0  0  0  0
    6.4591    3.4852    4.9136 H   0  0  0  0  0  0
    6.1173    5.2808    1.8048 H   0  0  0  0  0  0
    6.8007    5.3746    3.4287 H   0  0  0  0  0  0
    5.0490    5.5122    3.1888 H   0  0  0  0  0  0
    1.1008   -1.7718   -1.8335 H   0  0  0  0  0  0
   -0.0482   -0.5357    0.5623 H   0  0  0  0  0  0
  1  2  1  0  0  0
  1 43  1  0  0  0
  1 44  1  0  0  0
  1 45  1  0  0  0
  2  3  1  0  0  0
  2  4  1  0  0  0
  2 46  1  0  0  0
  3 47  1  0  0  0
  3 48  1  0  0  0
  3 49  1  0  0  0
  4  9  1  0  0  0
  4  5  2  0  0  0
  5  6  1  0  0  0
  5 50  1  0  0  0
  6  7  2  0  0  0
  6 51  1  0  0  0
  7  8  1  0  0  0
  7 52  1  0  0  0
  8  9  2  0  0  0
  8 10  1  0  0  0
  9 53  1  0  0  0
 10 11  1  0  0  0
 10 54  1  0  0  0
 10 55  1  0  0  0
 11 12  1  0  0  0
 11 82  1  0  0  0
 12 13  1  0  0  0
 12 56  1  0  0  0
 12 57  1  0  0  0
 13 41  1  0  0  0
 13 14  1  0  0  0
 13 40  1  0  0  0
 14 42  1  0  0  0
 14 36  1  0  0  0
 14 15  1  0  0  0
 15 16  1  0  0  0
 15 58  1  0  0  0
 15 59  1  0  0  0
 16 21  1  0  0  0
 16 17  2  0  0  0
 17 18  1  0  0  0
 17 60  1  0  0  0
 18 19  2  0  0  0
 18 61  1  0  0  0
 19 20  1  0  0  0
 19 62  1  0  0  0
 20 21  2  0  0  0
 20 22  1  0  0  0
 21 63  1  0  0  0
 22 23  1  0  0  0
 23 24  1  0  0  0
 23 64  1  0  0  0
 23 65  1  0  0  0
 24 25  1  0  0  0
 24 66  1  0  0  0
 24 67  1  0  0  0
 25 26  1  0  0  0
 25 68  1  0  0  0
 25 69  1  0  0  0
 26 27  1  0  0  0
 26 70  1  0  0  0
 26 71  1  0  0  0
 27 28  1  0  0  0
 28 33  1  0  0  0
 28 29  2  0  0  0
 29 30  1  0  0  0
 29 72  1  0  0  0
 30 31  2  0  0  0
 30 37  1  0  0  0
 31 32  1  0  0  0
 31 73  1  0  0  0
 32 33  2  0  0  0
 32 34  1  0  0  0
 33 74  1  0  0  0
 34 35  2  0  0  0
 34 36  1  0  0  0
 36 75  1  0  0  0
 37 38  1  0  0  0
 37 76  1  0  0  0
 37 77  1  0  0  0
 38 39  1  0  0  0
 39 78  1  0  0  0
 39 79  1  0  0  0
 39 80  1  0  0  0
 40 81  1  0  0  0
M  END
> <i_f3d_flags>
0

> <chiral flag>
1

> <version>
0

> <s_i_glide_gridfile>
base1a_gride_6

> <i_i_glide_lignum>
30

> <i_i_glide_rotatable_bonds>
9

> <r_i_docking_score>
-1.82883737171655

> <r_i_glide_ligand_efficiency>
-0.0457209342929138

> <r_i_glide_ligand_efficiency_sa>
-0.156363395608668

> <r_i_glide_ligand_efficiency_ln>
-0.390037191105855

> <r_glide_XP_GScore>
-1.84413737171655

> <r_i_glide_gscore>
-1.84413737171655

> <r_i_glide_evdw>
-30.7034301757812

> <r_i_glide_ecoul>
-8.5932092666626

> <r_i_glide_energy>
-39.2966394424438

> <r_i_glide_einternal>
2.24868249893188

> <r_i_glide_emodel>
-49.2329580125513

> <r_glide_XP_HBond>
-0.694755762244397

> <i_i_glide_confnum>
1

> <i_i_glide_posenum>
13

> <r_i_glide_eff_state_penalty>
0.0153

> <i_glide_XP_PoseRank>
1

> <s_m_source_file>
glide-dock_pose_2-0015_raw.maegz

> <i_m_source_file_index>
2

> <i_lp_mmshare_version>
42013

> <s_epik_input>
W0NIM11bQ0hdKFtDSDNdKWMxW2NIXVtjSF1bY0hdYyhbY0hdMSlbQ0gyXVtOSF1bQ0gyXVtDQEBIXShbT0hdKVtDQEhdKFtDSDJdMilbTkhdQyg9TyljKFtjSF0zKVtjSF1jKFtDSDJdT1tDSDNdKVtjSF1jM09bQ0gyXVtDSDJdW0NIMl1bQ0gyXU9jKFtjSF00KVtjSF1bY0hdW2NIXWMyNA==

> <s_epik_cmdline>
J2VwaWtfcHl0aG9uJywgJy1waCcsICc3LjAnLCAnLXRuJywgJzgnLCAnLW1hJywgJzIwMCcsICctaW1hZScsICc8aW5maWxlLm1hZT4nLCAnLW9tYWUnLCAnPG91dGZpbGUubWFlPic=

> <r_lp_tautomer_probability>
1

> <r_epik_Ionization_Penalty>
2.04391

> <r_epik_Ionization_Penalty_Charging>
0

> <r_epik_Ionization_Penalty_Neutral>
2.04391

> <r_epik_State_Penalty>
2.17586

> <r_epik_Charging_Adjusted_Penalty>
2.17586

> <i_epik_Tot_Q>
0

> <i_epik_Tot_abs_Q>
0

> <i_f3d_flags>
0

> <s_lp_Force_Field>
OPLS_2005

> <r_lp_Energy>
41.685

> <b_lp_Chiralities_Consistent>
1

> <s_lp_Variant>
BACE_15.smi:1-2

$$$$
