BACE_4.smi:1
                    3D
 Structure written by MMmdl.
 89 91  0  0  1  0            999 V2000
   -2.5689    3.6375    2.1848 C   0  0  0  0  0  0
   -1.0461    3.6414    1.9459 C   0  0  2  0  0  0
   -0.5977    4.4755    0.7214 C   0  0  0  0  0  0
   -1.2063    5.8905    0.6379 C   0  0  0  0  0  0
   -2.3607    5.9638   -0.3781 C   0  0  0  0  0  0
   -3.2517    7.2105   -0.2487 C   0  0  0  0  0  0
   -4.3076    7.1391    0.8735 C   0  0  0  0  0  0
   -5.5390    6.2721    0.5471 C   0  0  0  0  0  0
   -5.2156    4.8926    0.6074 O   0  0  0  0  0  0
   -6.3151    4.0408    0.3207 C   0  0  0  0  0  0
   -5.8525    2.5824    0.4613 C   0  0  0  0  0  0
   -6.2303    1.9590    1.4538 O   0  0  0  0  0  0
   -5.0189    2.0487   -0.4696 N   0  0  0  0  0  0
   -4.4147    0.7073   -0.2899 C   0  0  2  0  0  0
   -2.8824    0.7213   -0.4324 C   0  0  0  0  0  0
   -2.3453    0.4850   -1.5149 O   0  0  0  0  0  0
   -2.1968    1.0256    0.6812 N   0  0  0  0  0  0
   -0.7584    1.2629    0.7779 C   0  0  1  0  0  0
   -0.4227    2.2197    1.9596 C   0  0  0  0  0  0
    0.0146   -0.0823    0.8133 C   0  0  1  0  0  0
    1.5148    0.1112    0.5281 C   0  0  0  0  0  0
    2.1558   -1.1434    0.1365 N   0  0  0  0  0  0
    3.5424   -1.0003   -0.3055 C   0  0  0  0  0  0
    4.0031   -1.9084   -1.4224 C   0  0  0  0  0  0
    3.7996   -0.4331   -1.6843 C   0  0  0  0  0  0
    4.4784   -0.7045    0.8306 C   0  0  0  0  0  0
    4.9850   -1.7462    1.6323 C   0  0  0  0  0  0
    5.8476   -1.4584    2.7046 C   0  0  0  0  0  0
    6.2043   -0.1269    2.9900 C   0  0  0  0  0  0
    5.7034    0.9394    2.2030 C   0  0  0  0  0  0
    4.8438    0.6262    1.1238 C   0  0  0  0  0  0
    6.0536    2.4124    2.4859 C   0  0  0  0  0  0
    6.7464    3.0272    1.2517 C   0  0  0  0  0  0
    7.0043    2.5854    3.6917 C   0  0  0  0  0  0
    4.7621    3.2000    2.7918 C   0  0  0  0  0  0
   -0.1177   -0.6747    2.0917 O   0  0  0  0  0  0
   -5.1329   -0.3323   -1.1698 C   0  0  0  0  0  0
   -4.7258    2.7594   -1.7233 C   0  0  0  0  0  0
   -0.6273    4.1440    2.8190 H   0  0  0  0  0  0
   -4.5771    0.3618    0.7325 H   0  0  0  0  0  0
   -0.4644    1.7640   -0.1445 H   0  0  0  0  0  0
   -0.4012   -0.7621    0.0679 H   0  0  0  0  0  0
   -3.1169    3.3647    1.2865 H   0  0  0  0  0  0
   -2.9292    4.6180    2.4933 H   0  0  0  0  0  0
   -2.8457    2.9374    2.9732 H   0  0  0  0  0  0
    0.4883    4.5680    0.7588 H   0  0  0  0  0  0
   -0.8091    3.9445   -0.2062 H   0  0  0  0  0  0
   -1.5246    6.2255    1.6248 H   0  0  0  0  0  0
   -0.4352    6.5968    0.3285 H   0  0  0  0  0  0
   -1.9315    5.9390   -1.3803 H   0  0  0  0  0  0
   -2.9705    5.0695   -0.3072 H   0  0  0  0  0  0
   -2.6152    8.0825   -0.0941 H   0  0  0  0  0  0
   -3.7618    7.3853   -1.1965 H   0  0  0  0  0  0
   -3.8553    6.8175    1.8117 H   0  0  0  0  0  0
   -4.6626    8.1546    1.0521 H   0  0  0  0  0  0
   -6.3261    6.4818    1.2728 H   0  0  0  0  0  0
   -5.9333    6.5283   -0.4375 H   0  0  0  0  0  0
   -7.1197    4.2302    1.0333 H   0  0  0  0  0  0
   -6.7216    4.2366   -0.6716 H   0  0  0  0  0  0
   -2.7311    1.1904    1.5221 H   0  0  0  0  0  0
    0.6597    2.3405    2.0072 H   0  0  0  0  0  0
   -0.6961    1.7413    2.9008 H   0  0  0  0  0  0
    1.6266    0.8286   -0.2857 H   0  0  0  0  0  0
    2.0159    0.5480    1.3925 H   0  0  0  0  0  0
    5.0287   -2.2716   -1.3964 H   0  0  0  0  0  0
    3.2793   -2.5877   -1.8684 H   0  0  0  0  0  0
    2.9429   -0.1596   -2.2974 H   0  0  0  0  0  0
    4.6902    0.1750   -1.8301 H   0  0  0  0  0  0
    4.7103   -2.7701    1.4255 H   0  0  0  0  0  0
    6.2338   -2.2615    3.3146 H   0  0  0  0  0  0
    6.8639    0.0464    3.8255 H   0  0  0  0  0  0
    4.4421    1.4174    0.5085 H   0  0  0  0  0  0
    7.0291    4.0650    1.4315 H   0  0  0  0  0  0
    6.1026    3.0208    0.3721 H   0  0  0  0  0  0
    7.6550    2.4804    0.9972 H   0  0  0  0  0  0
    7.9559    2.0768    3.5319 H   0  0  0  0  0  0
    6.5636    2.1998    4.6122 H   0  0  0  0  0  0
    7.2320    3.6377    3.8662 H   0  0  0  0  0  0
    4.9787    4.2453    3.0153 H   0  0  0  0  0  0
    4.2417    2.7820    3.6543 H   0  0  0  0  0  0
    4.0650    3.1915    1.9537 H   0  0  0  0  0  0
   -1.0342   -0.8404    2.2508 H   0  0  0  0  0  0
   -4.7122   -1.3278   -1.0237 H   0  0  0  0  0  0
   -5.0517   -0.0930   -2.2305 H   0  0  0  0  0  0
   -6.1935   -0.3861   -0.9228 H   0  0  0  0  0  0
   -4.1498    3.6640   -1.5415 H   0  0  0  0  0  0
   -5.6455    3.0345   -2.2400 H   0  0  0  0  0  0
   -4.1596    2.1526   -2.4285 H   0  0  0  0  0  0
    1.6084   -1.6178   -0.5742 H   0  0  0  0  0  0
  1  2  1  0  0  0
  1 43  1  0  0  0
  1 44  1  0  0  0
  1 45  1  0  0  0
  2 39  1  0  0  0
  2 19  1  0  0  0
  2  3  1  0  0  0
  3  4  1  0  0  0
  3 46  1  0  0  0
  3 47  1  0  0  0
  4  5  1  0  0  0
  4 48  1  0  0  0
  4 49  1  0  0  0
  5  6  1  0  0  0
  5 50  1  0  0  0
  5 51  1  0  0  0
  6  7  1  0  0  0
  6 52  1  0  0  0
  6 53  1  0  0  0
  7  8  1  0  0  0
  7 54  1  0  0  0
  7 55  1  0  0  0
  8  9  1  0  0  0
  8 56  1  0  0  0
  8 57  1  0  0  0
  9 10  1  0  0  0
 10 11  1  0  0  0
 10 58  1  0  0  0
 10 59  1  0  0  0
 11 12  2  0  0  0
 11 13  1  0  0  0
 13 14  1  0  0  0
 13 38  1  0  0  0
 14 40  1  0  0  0
 14 15  1  0  0  0
 14 37  1  0  0  0
 15 16  2  0  0  0
 15 17  1  0  0  0
 17 18  1  0  0  0
 17 60  1  0  0  0
 18 41  1  0  0  0
 18 19  1  0  0  0
 18 20  1  0  0  0
 19 61  1  0  0  0
 19 62  1  0  0  0
 20 42  1  0  0  0
 20 21  1  0  0  0
 20 36  1  0  0  0
 21 22  1  0  0  0
 21 63  1  0  0  0
 21 64  1  0  0  0
 22 23  1  0  0  0
 22 89  1  0  0  0
 23 25  1  0  0  0
 23 24  1  0  0  0
 23 26  1  0  0  0
 24 25  1  0  0  0
 24 65  1  0  0  0
 24 66  1  0  0  0
 25 67  1  0  0  0
 25 68  1  0  0  0
 26 31  1  0  0  0
 26 27  2  0  0  0
 27 28  1  0  0  0
 27 69  1  0  0  0
 28 29  2  0  0  0
 28 70  1  0  0  0
 29 30  1  0  0  0
 29 71  1  0  0  0
 30 31  2  0  0  0
 30 32  1  0  0  0
 31 72  1  0  0  0
 32 33  1  0  0  0
 32 34  1  0  0  0
 32 35  1  0  0  0
 33 73  1  0  0  0
 33 74  1  0  0  0
 33 75  1  0  0  0
 34 76  1  0  0  0
 34 77  1  0  0  0
 34 78  1  0  0  0
 35 79  1  0  0  0
 35 80  1  0  0  0
 35 81  1  0  0  0
 36 82  1  0  0  0
 37 83  1  0  0  0
 37 84  1  0  0  0
 37 85  1  0  0  0
 38 86  1  0  0  0
 38 87  1  0  0  0
 38 88  1  0  0  0
M  END
> <i_f3d_flags>
0

> <chiral flag>
1

> <version>
0

> <s_i_glide_gridfile>
base1a_gride_6

> <i_i_glide_lignum>
7

> <i_i_glide_rotatable_bonds>
7

> <r_i_docking_score>
-2.19155822176495

> <r_i_glide_ligand_efficiency>
-0.0576725847832883

> <r_i_glide_ligand_efficiency_sa>
-0.193893811452841

> <r_i_glide_ligand_efficiency_ln>
-0.472564421723704

> <r_glide_XP_GScore>
-2.69025822176495

> <r_i_glide_gscore>
-2.69025822176495

> <r_i_glide_evdw>
-20.7534103393555

> <r_i_glide_ecoul>
-10.6745576858521

> <r_i_glide_energy>
-31.4279680252075

> <r_i_glide_einternal>
4.79486799240112

> <r_i_glide_emodel>
-42.2417894201266

> <r_glide_XP_HBond>
-0.00981151982548828

> <i_i_glide_confnum>
1

> <i_i_glide_posenum>
1

> <r_i_glide_eff_state_penalty>
0.4987

> <i_glide_XP_PoseRank>
1

> <s_m_source_file>
glide-dock_pose_2-0004_raw.maegz

> <i_m_source_file_index>
1

> <i_lp_mmshare_version>
42013

> <s_epik_input>
W0NIM11bQ0BASF0xW0NIMl1bQ0gyXVtDSDJdW0NIMl1bQ0gyXVtDSDJdT1tDSDJdQyg9TylOKFtDSDNdKVtDQEBIXShbQ0gzXSlDKD1PKVtOSF1bQ0BASF0oW0NIMl0xKVtDQEhdKFtPSF0pW0NIMl1bTkhdQzIoW0NIMl1bQ0gyXTIpYzNbY0hdW2NIXVtjSF1jKFtjSF0zKUMoW0NIM10pKFtDSDNdKVtDSDNd

> <s_epik_cmdline>
J2VwaWtfcHl0aG9uJywgJy1waCcsICc3LjAnLCAnLXRuJywgJzgnLCAnLW1hJywgJzIwMCcsICctaW1hZScsICc8aW5maWxlLm1hZT4nLCAnLW9tYWUnLCAnPG91dGZpbGUubWFlPic=

> <r_epik_Ionization_Penalty>
0.338543

> <r_epik_Ionization_Penalty_Charging>
0

> <r_epik_Ionization_Penalty_Neutral>
0.338543

> <r_epik_State_Penalty>
0.334061

> <r_epik_Charging_Adjusted_Penalty>
0.334061

> <i_epik_Tot_Q>
0

> <i_epik_Tot_abs_Q>
0

> <i_f3d_flags>
0

> <s_lp_Force_Field>
OPLS_2005

> <r_lp_Energy>
57.6854

> <b_lp_Chiralities_Consistent>
1

> <s_lp_Variant>
BACE_4.smi:1-1

$$$$
BACE_4.smi:1
                    3D
 Structure written by MMmdl.
 90 92  0  0  1  0            999 V2000
   -2.5964    3.6439    2.2118 C   0  0  0  0  0  0
   -1.0663    3.6323    2.0239 C   0  0  2  0  0  0
   -0.5667    4.5098    0.8506 C   0  0  0  0  0  0
   -1.1438    5.9403    0.8147 C   0  0  0  0  0  0
   -2.2615    6.0875   -0.2337 C   0  0  0  0  0  0
   -3.1411    7.3376   -0.0635 C   0  0  0  0  0  0
   -4.2444    7.2130    1.0077 C   0  0  0  0  0  0
   -5.4692    6.3807    0.5806 C   0  0  0  0  0  0
   -5.1635    4.9957    0.5758 O   0  0  0  0  0  0
   -6.2558    4.1769    0.1843 C   0  0  0  0  0  0
   -5.8201    2.7065    0.2729 C   0  0  0  0  0  0
   -6.2582    2.0387    1.2101 O   0  0  0  0  0  0
   -4.9450    2.2083   -0.6395 N   0  0  0  0  0  0
   -4.3708    0.8496   -0.5007 C   0  0  2  0  0  0
   -2.8334    0.8412   -0.5688 C   0  0  0  0  0  0
   -2.2465    0.6104   -1.6264 O   0  0  0  0  0  0
   -2.1987    1.1163    0.5820 N   0  0  0  0  0  0
   -0.7612    1.3042    0.7622 C   0  0  1  0  0  0
   -0.4643    2.2009    1.9998 C   0  0  0  0  0  0
   -0.0379   -0.0694    0.7818 C   0  0  1  0  0  0
    1.4829    0.0550    0.5791 C   0  0  0  0  0  0
    2.1003   -1.2682    0.3495 N   0  3  0  0  0  0
    3.5507   -1.2397    0.0628 C   0  0  0  0  0  0
    3.9953   -2.4038   -0.7906 C   0  0  0  0  0  0
    3.8795   -1.0201   -1.3964 C   0  0  0  0  0  0
    4.4012   -0.7196    1.1840 C   0  0  0  0  0  0
    4.8460    0.6175    1.1830 C   0  0  0  0  0  0
    5.6346    1.1013    2.2409 C   0  0  0  0  0  0
    5.9824    0.2508    3.3063 C   0  0  0  0  0  0
    5.5476   -1.0952    3.3346 C   0  0  0  0  0  0
    4.7551   -1.5650    2.2571 C   0  0  0  0  0  0
    5.9455   -1.9950    4.5209 C   0  0  0  0  0  0
    5.3705   -3.4256    4.4132 C   0  0  0  0  0  0
    5.4244   -1.3816    5.8377 C   0  0  0  0  0  0
    7.4822   -2.1123    4.5884 C   0  0  0  0  0  0
   -0.2655   -0.7228    2.0164 O   0  0  0  0  0  0
   -5.0661   -0.1326   -1.4614 C   0  0  0  0  0  0
   -4.5792    2.9750   -1.8397 C   0  0  0  0  0  0
   -0.6702    4.0918    2.9306 H   0  0  0  0  0  0
   -4.5861    0.4580    0.4951 H   0  0  0  0  0  0
   -0.4021    1.8325   -0.1214 H   0  0  0  0  0  0
   -0.4357   -0.7002   -0.0143 H   0  0  0  0  0  0
   -3.1191    3.4188    1.2855 H   0  0  0  0  0  0
   -2.9519    4.6167    2.5488 H   0  0  0  0  0  0
   -2.9109    2.9172    2.9613 H   0  0  0  0  0  0
    0.5197    4.5775    0.9203 H   0  0  0  0  0  0
   -0.7641    4.0242   -0.1047 H   0  0  0  0  0  0
   -1.4890    6.2361    1.8054 H   0  0  0  0  0  0
   -0.3489    6.6443    0.5659 H   0  0  0  0  0  0
   -1.7991    6.1125   -1.2212 H   0  0  0  0  0  0
   -2.8844    5.1994   -0.2338 H   0  0  0  0  0  0
   -2.5006    8.1884    0.1721 H   0  0  0  0  0  0
   -3.6081    7.5794   -1.0190 H   0  0  0  0  0  0
   -3.8351    6.8324    1.9434 H   0  0  0  0  0  0
   -4.5974    8.2202    1.2308 H   0  0  0  0  0  0
   -6.2846    6.5584    1.2832 H   0  0  0  0  0  0
   -5.8188    6.6969   -0.4033 H   0  0  0  0  0  0
   -7.0971    4.3411    0.8599 H   0  0  0  0  0  0
   -6.6033    4.4304   -0.8174 H   0  0  0  0  0  0
   -2.7740    1.2872    1.3946 H   0  0  0  0  0  0
    0.6160    2.3029    2.1013 H   0  0  0  0  0  0
   -0.7871    1.6859    2.9054 H   0  0  0  0  0  0
    1.6899    0.6820   -0.2889 H   0  0  0  0  0  0
    1.9469    0.5364    1.4401 H   0  0  0  0  0  0
    5.0013   -2.7918   -0.6416 H   0  0  0  0  0  0
    3.2537   -3.1384   -1.0993 H   0  0  0  0  0  0
    3.0611   -0.8577   -2.0956 H   0  0  0  0  0  0
    4.8089   -0.5093   -1.6408 H   0  0  0  0  0  0
    4.5799    1.2776    0.3704 H   0  0  0  0  0  0
    5.9735    2.1267    2.2366 H   0  0  0  0  0  0
    6.5898    0.6463    4.1067 H   0  0  0  0  0  0
    4.3981   -2.5825    2.2285 H   0  0  0  0  0  0
    5.6664   -4.0349    5.2682 H   0  0  0  0  0  0
    5.7290   -3.9388    3.5200 H   0  0  0  0  0  0
    4.2801   -3.4216    4.3886 H   0  0  0  0  0  0
    4.3398   -1.2685    5.8186 H   0  0  0  0  0  0
    5.8534   -0.3988    6.0332 H   0  0  0  0  0  0
    5.6722   -2.0111    6.6932 H   0  0  0  0  0  0
    7.7949   -2.7576    5.4102 H   0  0  0  0  0  0
    7.9620   -1.1457    4.7424 H   0  0  0  0  0  0
    7.8858   -2.5365    3.6683 H   0  0  0  0  0  0
   -1.1987   -0.8088    2.1426 H   0  0  0  0  0  0
   -4.6729   -1.1428   -1.3441 H   0  0  0  0  0  0
   -4.9307    0.1549   -2.5045 H   0  0  0  0  0  0
   -6.1380   -0.1750   -1.2667 H   0  0  0  0  0  0
   -4.0078    3.8641   -1.5834 H   0  0  0  0  0  0
   -5.4679    3.2839   -2.3905 H   0  0  0  0  0  0
   -3.9800    2.3972   -2.5422 H   0  0  0  0  0  0
    1.9458   -1.8348    1.1715 H   0  0  0  0  0  0
    1.6323   -1.7034   -0.4324 H   0  0  0  0  0  0
  1  2  1  0  0  0
  1 43  1  0  0  0
  1 44  1  0  0  0
  1 45  1  0  0  0
  2 39  1  0  0  0
  2 19  1  0  0  0
  2  3  1  0  0  0
  3  4  1  0  0  0
  3 46  1  0  0  0
  3 47  1  0  0  0
  4  5  1  0  0  0
  4 48  1  0  0  0
  4 49  1  0  0  0
  5  6  1  0  0  0
  5 50  1  0  0  0
  5 51  1  0  0  0
  6  7  1  0  0  0
  6 52  1  0  0  0
  6 53  1  0  0  0
  7  8  1  0  0  0
  7 54  1  0  0  0
  7 55  1  0  0  0
  8  9  1  0  0  0
  8 56  1  0  0  0
  8 57  1  0  0  0
  9 10  1  0  0  0
 10 11  1  0  0  0
 10 58  1  0  0  0
 10 59  1  0  0  0
 11 12  2  0  0  0
 11 13  1  0  0  0
 13 14  1  0  0  0
 13 38  1  0  0  0
 14 40  1  0  0  0
 14 15  1  0  0  0
 14 37  1  0  0  0
 15 16  2  0  0  0
 15 17  1  0  0  0
 17 18  1  0  0  0
 17 60  1  0  0  0
 18 41  1  0  0  0
 18 19  1  0  0  0
 18 20  1  0  0  0
 19 61  1  0  0  0
 19 62  1  0  0  0
 20 42  1  0  0  0
 20 21  1  0  0  0
 20 36  1  0  0  0
 21 22  1  0  0  0
 21 63  1  0  0  0
 21 64  1  0  0  0
 22 23  1  0  0  0
 22 89  1  0  0  0
 22 90  1  0  0  0
 23 25  1  0  0  0
 23 24  1  0  0  0
 23 26  1  0  0  0
 24 25  1  0  0  0
 24 65  1  0  0  0
 24 66  1  0  0  0
 25 67  1  0  0  0
 25 68  1  0  0  0
 26 31  1  0  0  0
 26 27  2  0  0  0
 27 28  1  0  0  0
 27 69  1  0  0  0
 28 29  2  0  0  0
 28 70  1  0  0  0
 29 30  1  0  0  0
 29 71  1  0  0  0
 30 31  2  0  0  0
 30 32  1  0  0  0
 31 72  1  0  0  0
 32 33  1  0  0  0
 32 34  1  0  0  0
 32 35  1  0  0  0
 33 73  1  0  0  0
 33 74  1  0  0  0
 33 75  1  0  0  0
 34 76  1  0  0  0
 34 77  1  0  0  0
 34 78  1  0  0  0
 35 79  1  0  0  0
 35 80  1  0  0  0
 35 81  1  0  0  0
 36 82  1  0  0  0
 37 83  1  0  0  0
 37 84  1  0  0  0
 37 85  1  0  0  0
 38 86  1  0  0  0
 38 87  1  0  0  0
 38 88  1  0  0  0
M  CHG  1  22   1
M  END
> <i_f3d_flags>
0

> <chiral flag>
1

> <version>
0

> <s_i_glide_gridfile>
base1a_gride_6

> <i_i_glide_lignum>
7

> <i_i_glide_rotatable_bonds>
7

> <r_i_docking_score>
-2.19155822176495

> <r_i_glide_ligand_efficiency>
-0.0576725847832883

> <r_i_glide_ligand_efficiency_sa>
-0.193893811452841

> <r_i_glide_ligand_efficiency_ln>
-0.472564421723704

> <r_glide_XP_GScore>
-2.69025822176495

> <r_i_glide_gscore>
-2.69025822176495

> <r_i_glide_evdw>
-20.7534103393555

> <r_i_glide_ecoul>
-10.6745576858521

> <r_i_glide_energy>
-31.4279680252075

> <r_i_glide_einternal>
4.79486799240112

> <r_i_glide_emodel>
-42.2417894201266

> <r_glide_XP_HBond>
-0.00981151982548828

> <i_i_glide_confnum>
1

> <i_i_glide_posenum>
1

> <r_i_glide_eff_state_penalty>
0.4987

> <i_glide_XP_PoseRank>
1

> <s_m_source_file>
glide-dock_pose_2-0004_raw.maegz

> <i_m_source_file_index>
1

> <i_lp_mmshare_version>
42013

> <s_epik_input>
W0NIM11bQ0BASF0xW0NIMl1bQ0gyXVtDSDJdW0NIMl1bQ0gyXVtDSDJdT1tDSDJdQyg9TylOKFtDSDNdKVtDQEBIXShbQ0gzXSlDKD1PKVtOSF1bQ0BASF0oW0NIMl0xKVtDQEhdKFtPSF0pW0NIMl1bTkhdQzIoW0NIMl1bQ0gyXTIpYzNbY0hdW2NIXVtjSF1jKFtjSF0zKUMoW0NIM10pKFtDSDNdKVtDSDNd

> <s_epik_cmdline>
J2VwaWtfcHl0aG9uJywgJy1waCcsICc3LjAnLCAnLXRuJywgJzgnLCAnLW1hJywgJzIwMCcsICctaW1hZScsICc8aW5maWxlLm1hZT4nLCAnLW9tYWUnLCAnPG91dGZpbGUubWFlPic=

> <r_epik_Ionization_Penalty>
0.492833

> <r_epik_Ionization_Penalty_Charging>
0.492833

> <r_epik_Ionization_Penalty_Neutral>
2.58841e-07

> <r_epik_State_Penalty>
0.4987

> <r_epik_Charging_Adjusted_Penalty>
0.991533

> <i_epik_Tot_Q>
1

> <i_epik_Tot_abs_Q>
1

> <i_f3d_flags>
0

> <s_lp_Force_Field>
OPLS_2005

> <r_lp_Energy>
51.5241

> <b_lp_Chiralities_Consistent>
1

> <s_lp_Variant>
BACE_4.smi:1-2

$$$$
BACE_5.smi:1
                    3D
 Structure written by MMmdl.
 80 81  0  0  1  0            999 V2000
    2.9705    3.1573   -4.1643 C   0  0  0  0  0  0
    1.8822    4.1628   -4.5670 C   0  0  0  0  0  0
    1.2084    4.8558   -3.3709 C   0  0  0  0  0  0
    0.5207    3.9120   -2.4396 C   0  0  0  0  0  0
    0.8673    3.4587   -1.1984 C   0  0  0  0  0  0
   -0.1707    2.5432   -0.8560 C   0  0  0  0  0  0
   -1.0980    2.4531   -1.7981 N   0  0  0  0  0  0
   -0.6662    3.2926   -2.7575 N   0  0  0  0  0  0
   -0.2835    1.6920    0.3781 C   0  0  0  0  0  0
    0.1226    0.2970    0.1064 N   0  3  0  0  0  0
    1.5584    0.1138   -0.1987 C   0  0  0  0  0  0
    1.8865   -1.3614   -0.4917 C   0  0  2  0  0  0
    3.4134   -1.6299   -0.5741 C   0  0  2  0  0  0
    4.1097   -1.0000   -1.8165 C   0  0  0  0  0  0
    5.6536   -1.1285   -1.9287 C   0  0  1  0  0  0
    6.3940   -0.4510   -0.7502 C   0  0  0  0  0  0
    7.9321   -0.5644   -0.7929 C   0  0  0  0  0  0
    8.4595   -1.6313    0.1834 C   0  0  0  0  0  0
    9.9139   -2.0658   -0.0638 C   0  0  0  0  0  0
   10.1009   -3.0876   -1.2042 C   0  0  0  0  0  0
    9.7049   -4.5336   -0.8472 C   0  0  0  0  0  0
    8.2944   -4.6738   -0.8034 O   0  0  0  0  0  0
    7.8652   -5.9889   -0.4829 C   0  0  0  0  0  0
    6.3294   -6.0181   -0.5034 C   0  0  0  0  0  0
    5.7834   -6.5700   -1.4593 O   0  0  0  0  0  0
    5.6326   -5.4055    0.4896 N   0  0  0  0  0  0
    4.1581   -5.2710    0.4332 C   0  0  2  0  0  0
    3.6846   -3.8181    0.6149 C   0  0  0  0  0  0
    3.3517   -3.3931    1.7215 O   0  0  0  0  0  0
    3.6802   -3.0640   -0.4958 N   0  0  0  0  0  0
    3.4870   -6.2890    1.3736 C   0  0  0  0  0  0
    6.3096   -4.9058    1.6956 C   0  0  0  0  0  0
    6.1246   -2.5665   -2.2241 C   0  0  0  0  0  0
    1.2648   -1.7155   -1.7128 O   0  0  0  0  0  0
   -1.1795    3.4251   -3.6179 H   0  0  0  0  0  0
    1.4520   -1.9717    0.3014 H   0  0  0  0  0  0
    3.8550   -1.1798    0.3153 H   0  0  0  0  0  0
    5.9233   -0.5582   -2.8190 H   0  0  0  0  0  0
    3.7995   -5.5378   -0.5626 H   0  0  0  0  0  0
    3.4439    2.7272   -5.0470 H   0  0  0  0  0  0
    2.5606    2.3342   -3.5785 H   0  0  0  0  0  0
    3.7492    3.6370   -3.5711 H   0  0  0  0  0  0
    2.3229    4.9214   -5.2146 H   0  0  0  0  0  0
    1.1272    3.6534   -5.1669 H   0  0  0  0  0  0
    1.9540    5.4288   -2.8187 H   0  0  0  0  0  0
    0.4863    5.5852   -3.7395 H   0  0  0  0  0  0
    1.7476    3.7214   -0.6305 H   0  0  0  0  0  0
    0.3251    2.0986    1.1867 H   0  0  0  0  0  0
   -1.3131    1.6861    0.7377 H   0  0  0  0  0  0
    1.8423    0.7379   -1.0461 H   0  0  0  0  0  0
    2.1357    0.4593    0.6598 H   0  0  0  0  0  0
    3.6701   -1.4130   -2.7251 H   0  0  0  0  0  0
    3.8728    0.0634   -1.8452 H   0  0  0  0  0  0
    6.1252    0.6059   -0.7477 H   0  0  0  0  0  0
    6.0376   -0.8406    0.2029 H   0  0  0  0  0  0
    8.2725   -0.7553   -1.8102 H   0  0  0  0  0  0
    8.3721    0.3950   -0.5185 H   0  0  0  0  0  0
    8.3782   -1.2334    1.1955 H   0  0  0  0  0  0
    7.8094   -2.4996    0.1654 H   0  0  0  0  0  0
   10.5158   -1.1795   -0.2680 H   0  0  0  0  0  0
   10.3211   -2.4902    0.8545 H   0  0  0  0  0  0
    9.5802   -2.7634   -2.1052 H   0  0  0  0  0  0
   11.1598   -3.0955   -1.4640 H   0  0  0  0  0  0
   10.1029   -5.2107   -1.6044 H   0  0  0  0  0  0
   10.1464   -4.8236    0.1075 H   0  0  0  0  0  0
    8.2464   -6.6906   -1.2270 H   0  0  0  0  0  0
    8.2565   -6.3106    0.4823 H   0  0  0  0  0  0
    3.9640   -3.5103   -1.3564 H   0  0  0  0  0  0
    2.4002   -6.2186    1.3182 H   0  0  0  0  0  0
    3.7743   -6.1327    2.4137 H   0  0  0  0  0  0
    3.7623   -7.3090    1.1044 H   0  0  0  0  0  0
    6.9862   -4.0870    1.4618 H   0  0  0  0  0  0
    6.8831   -5.6998    2.1748 H   0  0  0  0  0  0
    5.6139   -4.5431    2.4511 H   0  0  0  0  0  0
    6.1209   -3.1839   -1.3296 H   0  0  0  0  0  0
    7.1403   -2.5834   -2.6175 H   0  0  0  0  0  0
    5.4906   -3.0479   -2.9688 H   0  0  0  0  0  0
    1.4478   -2.6262   -1.8895 H   0  0  0  0  0  0
   -0.1025   -0.2638    0.9152 H   0  0  0  0  0  0
   -0.4150   -0.0410   -0.6795 H   0  0  0  0  0  0
  1  2  1  0  0  0
  1 40  1  0  0  0
  1 41  1  0  0  0
  1 42  1  0  0  0
  2  3  1  0  0  0
  2 43  1  0  0  0
  2 44  1  0  0  0
  3  4  1  0  0  0
  3 45  1  0  0  0
  3 46  1  0  0  0
  4  8  1  0  0  0
  4  5  2  0  0  0
  5  6  1  0  0  0
  5 47  1  0  0  0
  6  7  2  0  0  0
  6  9  1  0  0  0
  7  8  1  0  0  0
  8 35  1  0  0  0
  9 10  1  0  0  0
  9 48  1  0  0  0
  9 49  1  0  0  0
 10 11  1  0  0  0
 10 79  1  0  0  0
 10 80  1  0  0  0
 11 12  1  0  0  0
 11 50  1  0  0  0
 11 51  1  0  0  0
 12 36  1  0  0  0
 12 13  1  0  0  0
 12 34  1  0  0  0
 13 37  1  0  0  0
 13 30  1  0  0  0
 13 14  1  0  0  0
 14 15  1  0  0  0
 14 52  1  0  0  0
 14 53  1  0  0  0
 15 38  1  0  0  0
 15 16  1  0  0  0
 15 33  1  0  0  0
 16 17  1  0  0  0
 16 54  1  0  0  0
 16 55  1  0  0  0
 17 18  1  0  0  0
 17 56  1  0  0  0
 17 57  1  0  0  0
 18 19  1  0  0  0
 18 58  1  0  0  0
 18 59  1  0  0  0
 19 20  1  0  0  0
 19 60  1  0  0  0
 19 61  1  0  0  0
 20 21  1  0  0  0
 20 62  1  0  0  0
 20 63  1  0  0  0
 21 22  1  0  0  0
 21 64  1  0  0  0
 21 65  1  0  0  0
 22 23  1  0  0  0
 23 24  1  0  0  0
 23 66  1  0  0  0
 23 67  1  0  0  0
 24 25  2  0  0  0
 24 26  1  0  0  0
 26 27  1  0  0  0
 26 32  1  0  0  0
 27 39  1  0  0  0
 27 28  1  0  0  0
 27 31  1  0  0  0
 28 29  2  0  0  0
 28 30  1  0  0  0
 30 68  1  0  0  0
 31 69  1  0  0  0
 31 70  1  0  0  0
 31 71  1  0  0  0
 32 72  1  0  0  0
 32 73  1  0  0  0
 32 74  1  0  0  0
 33 75  1  0  0  0
 33 76  1  0  0  0
 33 77  1  0  0  0
 34 78  1  0  0  0
M  CHG  1  10   1
M  END
> <i_f3d_flags>
0

> <chiral flag>
1

> <version>
0

> <s_i_glide_gridfile>
base1a_gride_6

> <i_i_glide_lignum>
8

> <i_i_glide_rotatable_bonds>
8

> <r_i_docking_score>
-4.51188558549201

> <r_i_glide_ligand_efficiency>
-0.132702517220353

> <r_i_glide_ligand_efficiency_sa>
-0.429904640340952

> <r_i_glide_ligand_efficiency_ln>
-0.996802079939186

> <r_glide_XP_GScore>
-4.93468558549201

> <r_i_glide_gscore>
-4.93468558549201

> <r_i_glide_evdw>
-23.9302310943604

> <r_i_glide_ecoul>
-18.4606628417969

> <r_i_glide_energy>
-42.3908939361572

> <r_i_glide_einternal>
2.69208717346191

> <r_i_glide_emodel>
-48.2893590735125

> <r_glide_XP_HBond>
-0.693927336611975

> <i_i_glide_confnum>
1

> <i_i_glide_posenum>
1

> <r_i_glide_eff_state_penalty>
0.4228

> <i_glide_XP_PoseRank>
1

> <s_m_source_file>
glide-dock_pose_2-0004_raw.maegz

> <i_m_source_file_index>
2

> <i_lp_mmshare_version>
42013

> <s_epik_input>
W0NIM11bQ0gyXVtDSDJdYzFbY0hdYyhuW25IXTEpW0NIMl1bTkhdW0NIMl1bQ0BASF0oW09IXSlbQ0BASF0yW0NIMl1bQ0BIXShbQ0gzXSlbQ0gyXVtDSDJdW0NIMl1bQ0gyXVtDSDJdW0NIMl1PW0NIMl1DKD1PKU4oW0NIM10pW0NAQEhdKFtDSDNdKUMoPU8pW05IXTI=

> <s_epik_cmdline>
J2VwaWtfcHl0aG9uJywgJy1waCcsICc3LjAnLCAnLXRuJywgJzgnLCAnLW1hJywgJzIwMCcsICctaW1hZScsICc8aW5maWxlLm1hZT4nLCAnLW9tYWUnLCAnPG91dGZpbGUubWFlPic=

> <r_lp_tautomer_probability>
0.5

> <r_epik_Ionization_Penalty>
0.0566359

> <r_epik_Ionization_Penalty_Charging>
0.0566351

> <r_epik_Ionization_Penalty_Neutral>
8.45617e-07

> <r_epik_State_Penalty>
0.422753

> <r_epik_Charging_Adjusted_Penalty>
0.479388

> <i_epik_Tot_Q>
1

> <i_epik_Tot_abs_Q>
1

> <i_f3d_flags>
0

> <s_lp_Force_Field>
OPLS_2005

> <r_lp_Energy>
33.4296

> <b_lp_Chiralities_Consistent>
1

> <s_lp_Variant>
BACE_5.smi:1-1

$$$$
BACE_5.smi:1
                    3D
 Structure written by MMmdl.
 80 81  0  0  1  0            999 V2000
   -2.9824    2.1938   -6.0920 C   0  0  0  0  0  0
   -2.2224    1.9789   -4.7784 C   0  0  0  0  0  0
   -2.9927    2.5075   -3.5592 C   0  0  0  0  0  0
   -2.2538    2.2604   -2.2736 C   0  0  0  0  0  0
   -2.5058    1.2523   -1.2973 C   0  0  0  0  0  0
   -1.5526    1.4620   -0.3406 C   0  0  0  0  0  0
   -0.8130    2.5423   -0.7654 N   0  0  0  0  0  0
   -1.2305    3.0361   -1.9452 N   0  0  0  0  0  0
   -1.2665    0.7442    0.9382 C   0  0  0  0  0  0
   -0.6641   -0.5856    0.7122 N   0  3  0  0  0  0
    0.6988   -0.5650    0.1391 C   0  0  0  0  0  0
    1.2531   -1.9917   -0.0264 C   0  0  2  0  0  0
    2.7654   -2.0100   -0.3767 C   0  0  2  0  0  0
    3.0973   -1.5176   -1.8158 C   0  0  0  0  0  0
    4.5933   -1.3980   -2.2163 C   0  0  1  0  0  0
    5.3685   -0.3907   -1.3327 C   0  0  0  0  0  0
    6.8648   -0.2396   -1.6768 C   0  0  0  0  0  0
    7.7661   -0.9944   -0.6829 C   0  0  0  0  0  0
    9.2097   -1.2141   -1.1657 C   0  0  0  0  0  0
    9.3948   -2.3944   -2.1415 C   0  0  0  0  0  0
    9.3757   -3.7870   -1.4813 C   0  0  0  0  0  0
    8.0550   -4.1538   -1.1172 O   0  0  0  0  0  0
    7.9717   -5.4301   -0.5003 C   0  0  0  0  0  0
    6.4947   -5.7318   -0.2039 C   0  0  0  0  0  0
    5.9244   -6.5484   -0.9281 O   0  0  0  0  0  0
    5.8608   -5.0674    0.7977 N   0  0  0  0  0  0
    4.4018   -5.2048    1.0170 C   0  0  2  0  0  0
    3.6751   -3.8489    1.0597 C   0  0  0  0  0  0
    3.4535   -3.2817    2.1298 O   0  0  0  0  0  0
    3.3268   -3.3362   -0.1314 N   0  0  0  0  0  0
    4.1201   -6.1243    2.2196 C   0  0  0  0  0  0
    6.6101   -4.2307    1.7471 C   0  0  0  0  0  0
    5.2911   -2.7640   -2.3721 C   0  0  0  0  0  0
    0.5081   -2.6368   -1.0421 O   0  0  0  0  0  0
   -0.0329    2.9498   -0.2691 H   0  0  0  0  0  0
    1.0900   -2.5298    0.9084 H   0  0  0  0  0  0
    3.2535   -1.3317    0.3234 H   0  0  0  0  0  0
    4.5860   -0.9714   -3.2206 H   0  0  0  0  0  0
    3.9466   -5.7160    0.1668 H   0  0  0  0  0  0
   -2.4068    1.8202   -6.9390 H   0  0  0  0  0  0
   -3.1789    3.2522   -6.2645 H   0  0  0  0  0  0
   -3.9393    1.6713   -6.0838 H   0  0  0  0  0  0
   -2.0215    0.9145   -4.6516 H   0  0  0  0  0  0
   -1.2513    2.4716   -4.8411 H   0  0  0  0  0  0
   -3.1826    3.5749   -3.6796 H   0  0  0  0  0  0
   -3.9725    2.0307   -3.5148 H   0  0  0  0  0  0
   -3.2697    0.4887   -1.3040 H   0  0  0  0  0  0
   -2.1967    0.6063    1.4898 H   0  0  0  0  0  0
   -0.6121    1.3385    1.5773 H   0  0  0  0  0  0
    0.6934   -0.0425   -0.8179 H   0  0  0  0  0  0
    1.3413    0.0053    0.8111 H   0  0  0  0  0  0
    2.6054   -2.1657   -2.5420 H   0  0  0  0  0  0
    2.6445   -0.5365   -1.9587 H   0  0  0  0  0  0
    4.8902    0.5843   -1.4357 H   0  0  0  0  0  0
    5.2721   -0.6487   -0.2784 H   0  0  0  0  0  0
    7.0533   -0.5572   -2.7021 H   0  0  0  0  0  0
    7.1366    0.8163   -1.6492 H   0  0  0  0  0  0
    7.7889   -0.4299    0.2499 H   0  0  0  0  0  0
    7.3153   -1.9478   -0.4280 H   0  0  0  0  0  0
    9.5669   -0.2966   -1.6342 H   0  0  0  0  0  0
    9.8559   -1.3717   -0.3016 H   0  0  0  0  0  0
    8.6647   -2.3479   -2.9494 H   0  0  0  0  0  0
   10.3678   -2.2735   -2.6186 H   0  0  0  0  0  0
    9.7634   -4.5230   -2.1869 H   0  0  0  0  0  0
   10.0303   -3.8029   -0.6086 H   0  0  0  0  0  0
    8.3627   -6.1908   -1.1782 H   0  0  0  0  0  0
    8.5777   -5.4740    0.4048 H   0  0  0  0  0  0
    3.5467   -3.8846   -0.9507 H   0  0  0  0  0  0
    3.0482   -6.2626    2.3660 H   0  0  0  0  0  0
    4.5297   -5.7199    3.1455 H   0  0  0  0  0  0
    4.5585   -7.1111    2.0671 H   0  0  0  0  0  0
    7.0474   -3.3653    1.2543 H   0  0  0  0  0  0
    7.4116   -4.8009    2.2174 H   0  0  0  0  0  0
    5.9912   -3.8596    2.5630 H   0  0  0  0  0  0
    5.5656   -3.1891   -1.4100 H   0  0  0  0  0  0
    6.2071   -2.6828   -2.9560 H   0  0  0  0  0  0
    4.6518   -3.4810   -2.8874 H   0  0  0  0  0  0
    0.8340   -3.5193   -1.1385 H   0  0  0  0  0  0
   -0.6230   -1.0688    1.5981 H   0  0  0  0  0  0
   -1.2633   -1.1085    0.0889 H   0  0  0  0  0  0
  1  2  1  0  0  0
  1 40  1  0  0  0
  1 41  1  0  0  0
  1 42  1  0  0  0
  2  3  1  0  0  0
  2 43  1  0  0  0
  2 44  1  0  0  0
  3 45  1  0  0  0
  3 46  1  0  0  0
  3  4  1  0  0  0
  4  8  2  0  0  0
  4  5  1  0  0  0
  5  6  2  0  0  0
  5 47  1  0  0  0
  6  7  1  0  0  0
  6  9  1  0  0  0
  7  8  1  0  0  0
  7 35  1  0  0  0
  9 10  1  0  0  0
  9 48  1  0  0  0
  9 49  1  0  0  0
 10 11  1  0  0  0
 10 79  1  0  0  0
 10 80  1  0  0  0
 11 12  1  0  0  0
 11 50  1  0  0  0
 11 51  1  0  0  0
 12 36  1  0  0  0
 12 13  1  0  0  0
 12 34  1  0  0  0
 13 37  1  0  0  0
 13 30  1  0  0  0
 13 14  1  0  0  0
 14 15  1  0  0  0
 14 52  1  0  0  0
 14 53  1  0  0  0
 15 38  1  0  0  0
 15 16  1  0  0  0
 15 33  1  0  0  0
 16 17  1  0  0  0
 16 54  1  0  0  0
 16 55  1  0  0  0
 17 18  1  0  0  0
 17 56  1  0  0  0
 17 57  1  0  0  0
 18 19  1  0  0  0
 18 58  1  0  0  0
 18 59  1  0  0  0
 19 20  1  0  0  0
 19 60  1  0  0  0
 19 61  1  0  0  0
 20 21  1  0  0  0
 20 62  1  0  0  0
 20 63  1  0  0  0
 21 22  1  0  0  0
 21 64  1  0  0  0
 21 65  1  0  0  0
 22 23  1  0  0  0
 23 24  1  0  0  0
 23 66  1  0  0  0
 23 67  1  0  0  0
 24 25  2  0  0  0
 24 26  1  0  0  0
 26 27  1  0  0  0
 26 32  1  0  0  0
 27 39  1  0  0  0
 27 28  1  0  0  0
 27 31  1  0  0  0
 28 29  2  0  0  0
 28 30  1  0  0  0
 30 68  1  0  0  0
 31 69  1  0  0  0
 31 70  1  0  0  0
 31 71  1  0  0  0
 32 72  1  0  0  0
 32 73  1  0  0  0
 32 74  1  0  0  0
 33 75  1  0  0  0
 33 76  1  0  0  0
 33 77  1  0  0  0
 34 78  1  0  0  0
M  CHG  1  10   1
M  END
> <i_f3d_flags>
0

> <chiral flag>
1

> <version>
0

> <s_i_glide_gridfile>
base1a_gride_6

> <i_i_glide_lignum>
8

> <i_i_glide_rotatable_bonds>
8

> <r_i_docking_score>
-4.51188558549201

> <r_i_glide_ligand_efficiency>
-0.132702517220353

> <r_i_glide_ligand_efficiency_sa>
-0.429904640340952

> <r_i_glide_ligand_efficiency_ln>
-0.996802079939186

> <r_glide_XP_GScore>
-4.93468558549201

> <r_i_glide_gscore>
-4.93468558549201

> <r_i_glide_evdw>
-23.9302310943604

> <r_i_glide_ecoul>
-18.4606628417969

> <r_i_glide_energy>
-42.3908939361572

> <r_i_glide_einternal>
2.69208717346191

> <r_i_glide_emodel>
-48.2893590735125

> <r_glide_XP_HBond>
-0.693927336611975

> <i_i_glide_confnum>
1

> <i_i_glide_posenum>
1

> <r_i_glide_eff_state_penalty>
0.4228

> <i_glide_XP_PoseRank>
1

> <s_m_source_file>
glide-dock_pose_2-0004_raw.maegz

> <i_m_source_file_index>
2

> <i_lp_mmshare_version>
42013

> <s_epik_input>
W0NIM11bQ0gyXVtDSDJdYzFbY0hdYyhuW25IXTEpW0NIMl1bTkhdW0NIMl1bQ0BASF0oW09IXSlbQ0BASF0yW0NIMl1bQ0BIXShbQ0gzXSlbQ0gyXVtDSDJdW0NIMl1bQ0gyXVtDSDJdW0NIMl1PW0NIMl1DKD1PKU4oW0NIM10pW0NAQEhdKFtDSDNdKUMoPU8pW05IXTI=

> <s_epik_cmdline>
J2VwaWtfcHl0aG9uJywgJy1waCcsICc3LjAnLCAnLXRuJywgJzgnLCAnLW1hJywgJzIwMCcsICctaW1hZScsICc8aW5maWxlLm1hZT4nLCAnLW9tYWUnLCAnPG91dGZpbGUubWFlPic=

> <r_lp_tautomer_probability>
0.5

> <r_epik_Ionization_Penalty>
0.124002

> <r_epik_Ionization_Penalty_Charging>
0.123996

> <r_epik_Ionization_Penalty_Neutral>
5.69922e-06

> <r_epik_State_Penalty>
0.555823

> <r_epik_Charging_Adjusted_Penalty>
0.67982

> <i_epik_Tot_Q>
1

> <i_epik_Tot_abs_Q>
1

> <i_f3d_flags>
0

> <s_lp_Force_Field>
OPLS_2005

> <r_lp_Energy>
32.0888

> <b_lp_Chiralities_Consistent>
1

> <s_lp_Variant>
BACE_5.smi:1-2

$$$$
BACE_5.smi:1
                    3D
 Structure written by MMmdl.
 79 80  0  0  1  0            999 V2000
   -7.9736    2.5877   -0.4853 C   0  0  0  0  0  0
   -6.5222    2.5473    0.0060 C   0  0  0  0  0  0
   -5.9054    1.1433   -0.0875 C   0  0  0  0  0  0
   -4.4758    1.1225    0.3771 C   0  0  0  0  0  0
   -3.2949    1.1269   -0.4221 C   0  0  0  0  0  0
   -2.2724    1.1166    0.4846 C   0  0  0  0  0  0
   -2.8618    1.0985    1.7276 N   0  0  0  0  0  0
   -4.2071    1.1040    1.6751 N   0  0  0  0  0  0
   -0.7932    1.1207    0.2966 C   0  0  0  0  0  0
   -0.2806   -0.2063   -0.0227 N   0  0  0  0  0  0
    1.1393   -0.2090   -0.3621 C   0  0  0  0  0  0
    1.6336   -1.6254   -0.7115 C   0  0  2  0  0  0
    3.1823   -1.7284   -0.6970 C   0  0  2  0  0  0
    3.8811   -0.9220   -1.8310 C   0  0  0  0  0  0
    5.4328   -0.8733   -1.8442 C   0  0  1  0  0  0
    6.0203   -0.2310   -0.5646 C   0  0  0  0  0  0
    7.5605   -0.1561   -0.5236 C   0  0  0  0  0  0
    8.1697   -1.2503    0.3715 C   0  0  0  0  0  0
    9.6720   -1.4965    0.1518 C   0  0  0  0  0  0
   10.0127   -2.3781   -1.0673 C   0  0  0  0  0  0
    9.7715   -3.8864   -0.8616 C   0  0  0  0  0  0
    8.3854   -4.1856   -0.8877 O   0  0  0  0  0  0
    8.0993   -5.5633   -0.6963 C   0  0  0  0  0  0
    6.5797   -5.7646   -0.8022 C   0  0  0  0  0  0
    6.1460   -6.2905   -1.8278 O   0  0  0  0  0  0
    5.7714   -5.3218    0.1965 N   0  0  0  0  0  0
    4.2954   -5.3366    0.0632 C   0  0  2  0  0  0
    3.6594   -3.9616    0.3362 C   0  0  0  0  0  0
    3.2556   -3.6629    1.4602 O   0  0  0  0  0  0
    3.5998   -3.1287   -0.7154 N   0  0  0  0  0  0
    3.6912   -6.4973    0.8750 C   0  0  0  0  0  0
    6.3283   -4.8600    1.4768 C   0  0  0  0  0  0
    6.0785   -2.2197   -2.2253 C   0  0  0  0  0  0
    1.1480   -1.9520   -2.0004 O   0  0  0  0  0  0
   -2.3652    1.0816    2.6070 H   0  0  0  0  0  0
    1.2161   -2.3311    0.0086 H   0  0  0  0  0  0
    3.5120   -1.3114    0.2550 H   0  0  0  0  0  0
    5.6891   -0.1987   -2.6624 H   0  0  0  0  0  0
    4.0186   -5.5509   -0.9705 H   0  0  0  0  0  0
   -8.3828    3.5948   -0.4051 H   0  0  0  0  0  0
   -8.6074    1.9235    0.1027 H   0  0  0  0  0  0
   -8.0449    2.2825   -1.5295 H   0  0  0  0  0  0
   -5.9260    3.2478   -0.5801 H   0  0  0  0  0  0
   -6.4839    2.8975    1.0383 H   0  0  0  0  0  0
   -6.4985    0.4426    0.5018 H   0  0  0  0  0  0
   -5.9598    0.7906   -1.1181 H   0  0  0  0  0  0
   -3.2122    1.1415   -1.4987 H   0  0  0  0  0  0
   -0.3058    1.5032    1.1942 H   0  0  0  0  0  0
   -0.5454    1.8157   -0.5064 H   0  0  0  0  0  0
    1.3320    0.4736   -1.1905 H   0  0  0  0  0  0
    1.7059    0.1700    0.4892 H   0  0  0  0  0  0
    3.5489   -1.2978   -2.7993 H   0  0  0  0  0  0
    3.5261    0.1076   -1.7897 H   0  0  0  0  0  0
    5.6232    0.7814   -0.4841 H   0  0  0  0  0  0
    5.6654   -0.7515    0.3245 H   0  0  0  0  0  0
    7.9692   -0.1972   -1.5330 H   0  0  0  0  0  0
    7.8643    0.8144   -0.1293 H   0  0  0  0  0  0
    8.0063   -0.9674    1.4119 H   0  0  0  0  0  0
    7.6237   -2.1781    0.2394 H   0  0  0  0  0  0
   10.1752   -0.5337    0.0556 H   0  0  0  0  0  0
   10.0936   -1.9587    1.0450 H   0  0  0  0  0  0
    9.4901   -2.0282   -1.9575 H   0  0  0  0  0  0
   11.0737   -2.2445   -1.2796 H   0  0  0  0  0  0
   10.2653   -4.4395   -1.6616 H   0  0  0  0  0  0
   10.2151   -4.2169    0.0787 H   0  0  0  0  0  0
    8.5923   -6.1514   -1.4724 H   0  0  0  0  0  0
    8.4840   -5.9195    0.2593 H   0  0  0  0  0  0
    3.9485   -3.4749   -1.5976 H   0  0  0  0  0  0
    2.6077   -6.5358    0.7579 H   0  0  0  0  0  0
    3.9037   -6.4034    1.9403 H   0  0  0  0  0  0
    4.0894   -7.4558    0.5408 H   0  0  0  0  0  0
    6.8915   -3.9377    1.3544 H   0  0  0  0  0  0
    6.9886   -5.6121    1.9094 H   0  0  0  0  0  0
    5.5607   -4.6727    2.2265 H   0  0  0  0  0  0
    6.0851   -2.9139   -1.3891 H   0  0  0  0  0  0
    7.1128   -2.0925   -2.5419 H   0  0  0  0  0  0
    5.5513   -2.6942   -3.0530 H   0  0  0  0  0  0
    1.4020   -2.8405   -2.1977 H   0  0  0  0  0  0
   -0.8134   -0.6021   -0.7910 H   0  0  0  0  0  0
  1  2  1  0  0  0
  1 40  1  0  0  0
  1 41  1  0  0  0
  1 42  1  0  0  0
  2  3  1  0  0  0
  2 43  1  0  0  0
  2 44  1  0  0  0
  3 45  1  0  0  0
  3 46  1  0  0  0
  3  4  1  0  0  0
  4  8  2  0  0  0
  4  5  1  0  0  0
  5  6  2  0  0  0
  5 47  1  0  0  0
  6  7  1  0  0  0
  6  9  1  0  0  0
  7  8  1  0  0  0
  7 35  1  0  0  0
  9 10  1  0  0  0
  9 48  1  0  0  0
  9 49  1  0  0  0
 10 11  1  0  0  0
 10 79  1  0  0  0
 11 12  1  0  0  0
 11 50  1  0  0  0
 11 51  1  0  0  0
 12 36  1  0  0  0
 12 13  1  0  0  0
 12 34  1  0  0  0
 13 37  1  0  0  0
 13 30  1  0  0  0
 13 14  1  0  0  0
 14 15  1  0  0  0
 14 52  1  0  0  0
 14 53  1  0  0  0
 15 38  1  0  0  0
 15 16  1  0  0  0
 15 33  1  0  0  0
 16 17  1  0  0  0
 16 54  1  0  0  0
 16 55  1  0  0  0
 17 18  1  0  0  0
 17 56  1  0  0  0
 17 57  1  0  0  0
 18 19  1  0  0  0
 18 58  1  0  0  0
 18 59  1  0  0  0
 19 20  1  0  0  0
 19 60  1  0  0  0
 19 61  1  0  0  0
 20 21  1  0  0  0
 20 62  1  0  0  0
 20 63  1  0  0  0
 21 22  1  0  0  0
 21 64  1  0  0  0
 21 65  1  0  0  0
 22 23  1  0  0  0
 23 24  1  0  0  0
 23 66  1  0  0  0
 23 67  1  0  0  0
 24 25  2  0  0  0
 24 26  1  0  0  0
 26 27  1  0  0  0
 26 32  1  0  0  0
 27 39  1  0  0  0
 27 28  1  0  0  0
 27 31  1  0  0  0
 28 29  2  0  0  0
 28 30  1  0  0  0
 30 68  1  0  0  0
 31 69  1  0  0  0
 31 70  1  0  0  0
 31 71  1  0  0  0
 32 72  1  0  0  0
 32 73  1  0  0  0
 32 74  1  0  0  0
 33 75  1  0  0  0
 33 76  1  0  0  0
 33 77  1  0  0  0
 34 78  1  0  0  0
M  END
> <i_f3d_flags>
0

> <chiral flag>
1

> <version>
0

> <s_i_glide_gridfile>
base1a_gride_6

> <i_i_glide_lignum>
8

> <i_i_glide_rotatable_bonds>
8

> <r_i_docking_score>
-4.51188558549201

> <r_i_glide_ligand_efficiency>
-0.132702517220353

> <r_i_glide_ligand_efficiency_sa>
-0.429904640340952

> <r_i_glide_ligand_efficiency_ln>
-0.996802079939186

> <r_glide_XP_GScore>
-4.93468558549201

> <r_i_glide_gscore>
-4.93468558549201

> <r_i_glide_evdw>
-23.9302310943604

> <r_i_glide_ecoul>
-18.4606628417969

> <r_i_glide_energy>
-42.3908939361572

> <r_i_glide_einternal>
2.69208717346191

> <r_i_glide_emodel>
-48.2893590735125

> <r_glide_XP_HBond>
-0.693927336611975

> <i_i_glide_confnum>
1

> <i_i_glide_posenum>
1

> <r_i_glide_eff_state_penalty>
0.4228

> <i_glide_XP_PoseRank>
1

> <s_m_source_file>
glide-dock_pose_2-0004_raw.maegz

> <i_m_source_file_index>
2

> <i_lp_mmshare_version>
42013

> <s_epik_input>
W0NIM11bQ0gyXVtDSDJdYzFbY0hdYyhuW25IXTEpW0NIMl1bTkhdW0NIMl1bQ0BASF0oW09IXSlbQ0BASF0yW0NIMl1bQ0BIXShbQ0gzXSlbQ0gyXVtDSDJdW0NIMl1bQ0gyXVtDSDJdW0NIMl1PW0NIMl1DKD1PKU4oW0NIM10pW0NAQEhdKFtDSDNdKUMoPU8pW05IXTI=

> <s_epik_cmdline>
J2VwaWtfcHl0aG9uJywgJy1waCcsICc3LjAnLCAnLXRuJywgJzgnLCAnLW1hJywgJzIwMCcsICctaW1hZScsICc8aW5maWxlLm1hZT4nLCAnLW9tYWUnLCAnPG91dGZpbGUubWFlPic=

> <r_lp_tautomer_probability>
0.5

> <r_epik_Ionization_Penalty>
0.987641

> <r_epik_Ionization_Penalty_Charging>
0

> <r_epik_Ionization_Penalty_Neutral>
0.987641

> <r_epik_State_Penalty>
1.61044

> <r_epik_Charging_Adjusted_Penalty>
1.61044

> <i_epik_Tot_Q>
0

> <i_epik_Tot_abs_Q>
0

> <i_f3d_flags>
0

> <s_lp_Force_Field>
OPLS_2005

> <r_lp_Energy>
39.5169

> <b_lp_Chiralities_Consistent>
1

> <s_lp_Variant>
BACE_5.smi:1-3

$$$$
BACE_5.smi:1
                    3D
 Structure written by MMmdl.
 79 80  0  0  1  0            999 V2000
   -7.5154    0.7724   -2.1652 C   0  0  0  0  0  0
   -6.0119    0.8727   -1.8840 C   0  0  0  0  0  0
   -5.7069    1.2341   -0.4218 C   0  0  0  0  0  0
   -4.2487    1.3474   -0.1080 C   0  0  0  0  0  0
   -3.1266    1.1829   -0.8731 C   0  0  0  0  0  0
   -2.0459    1.4381    0.0213 C   0  0  0  0  0  0
   -2.4612    1.7319    1.2443 N   0  0  0  0  0  0
   -3.8027    1.6738    1.1524 N   0  0  0  0  0  0
   -0.5742    1.4029   -0.2735 C   0  0  0  0  0  0
   -0.1132    0.0457   -0.5423 N   0  0  0  0  0  0
    1.2990   -0.0183   -0.9068 C   0  0  0  0  0  0
    1.7618   -1.4729   -1.1180 C   0  0  2  0  0  0
    3.2983   -1.6311   -0.9701 C   0  0  2  0  0  0
    4.1182   -0.8999   -2.0731 C   0  0  0  0  0  0
    5.6667   -0.9158   -1.9615 C   0  0  1  0  0  0
    6.1771   -0.2548   -0.6586 C   0  0  0  0  0  0
    7.7111   -0.2407   -0.4959 C   0  0  0  0  0  0
    8.1979   -1.3171    0.4908 C   0  0  0  0  0  0
    9.7011   -1.6315    0.4076 C   0  0  0  0  0  0
   10.1023   -2.5846   -0.7374 C   0  0  0  0  0  0
    9.7762   -4.0697   -0.4852 C   0  0  0  0  0  0
    8.3862   -4.3115   -0.6283 O   0  0  0  0  0  0
    8.0191   -5.6643   -0.4015 C   0  0  0  0  0  0
    6.5054   -5.8018   -0.6268 C   0  0  0  0  0  0
    6.1318   -6.3512   -1.6636 O   0  0  0  0  0  0
    5.6410   -5.2808    0.2831 N   0  0  0  0  0  0
    4.1807   -5.2440    0.0334 C   0  0  2  0  0  0
    3.5846   -3.8335    0.1907 C   0  0  0  0  0  0
    3.0917   -3.4702    1.2589 O   0  0  0  0  0  0
    3.6600   -3.0451   -0.8935 N   0  0  0  0  0  0
    3.4661   -6.3383    0.8480 C   0  0  0  0  0  0
    6.1154   -4.7884    1.5851 C   0  0  0  0  0  0
    6.2801   -2.3011   -2.2450 C   0  0  0  0  0  0
    1.3672   -1.8728   -2.4169 O   0  0  0  0  0  0
   -4.3958    1.8578    1.9490 H   0  0  0  0  0  0
    1.2633   -2.1136   -0.3889 H   0  0  0  0  0  0
    3.5654   -1.1842   -0.0120 H   0  0  0  0  0  0
    6.0172   -0.2814   -2.7769 H   0  0  0  0  0  0
    3.9759   -5.4987   -1.0080 H   0  0  0  0  0  0
   -7.6985    0.5165   -3.2089 H   0  0  0  0  0  0
   -8.0187    1.7179   -1.9615 H   0  0  0  0  0  0
   -7.9813    0.0039   -1.5481 H   0  0  0  0  0  0
   -5.5383   -0.0773   -2.1341 H   0  0  0  0  0  0
   -5.5747    1.6218   -2.5455 H   0  0  0  0  0  0
   -6.1949    2.1783   -0.1772 H   0  0  0  0  0  0
   -6.1529    0.4847    0.2330 H   0  0  0  0  0  0
   -3.0790    0.9201   -1.9194 H   0  0  0  0  0  0
   -0.3656    2.0397   -1.1337 H   0  0  0  0  0  0
   -0.0124    1.8258    0.5606 H   0  0  0  0  0  0
    1.4953    0.5826   -1.7960 H   0  0  0  0  0  0
    1.8858    0.4254   -0.1016 H   0  0  0  0  0  0
    3.8459   -1.2986   -3.0507 H   0  0  0  0  0  0
    3.8057    0.1444   -2.0963 H   0  0  0  0  0  0
    5.8179    0.7748   -0.6403 H   0  0  0  0  0  0
    5.7307   -0.7309    0.2142 H   0  0  0  0  0  0
    8.1968   -0.3450   -1.4658 H   0  0  0  0  0  0
    8.0256    0.7337   -0.1203 H   0  0  0  0  0  0
    7.9629   -0.9816    1.5016 H   0  0  0  0  0  0
    7.6249   -2.2275    0.3518 H   0  0  0  0  0  0
   10.2511   -0.6947    0.3101 H   0  0  0  0  0  0
   10.0282   -2.0655    1.3531 H   0  0  0  0  0  0
    9.6714   -2.2574   -1.6836 H   0  0  0  0  0  0
   11.1824   -2.5053   -0.8642 H   0  0  0  0  0  0
   10.3163   -4.6829   -1.2080 H   0  0  0  0  0  0
   10.1150   -4.3697    0.5075 H   0  0  0  0  0  0
    8.5462   -6.3100   -1.1062 H   0  0  0  0  0  0
    8.3050   -5.9912    0.5986 H   0  0  0  0  0  0
    4.0735   -3.4423   -1.7248 H   0  0  0  0  0  0
    2.3937   -6.3385    0.6496 H   0  0  0  0  0  0
    3.6024   -6.2014    1.9211 H   0  0  0  0  0  0
    3.8462   -7.3272    0.5898 H   0  0  0  0  0  0
    6.7611   -3.9205    1.4715 H   0  0  0  0  0  0
    6.6723   -5.5636    2.1122 H   0  0  0  0  0  0
    5.3020   -4.4999    2.2495 H   0  0  0  0  0  0
    6.1929   -2.9637   -1.3879 H   0  0  0  0  0  0
    7.3402   -2.2292   -2.4847 H   0  0  0  0  0  0
    5.7967   -2.7832   -3.0949 H   0  0  0  0  0  0
    1.5962   -2.7823   -2.5312 H   0  0  0  0  0  0
   -0.2708   -0.5297    0.2789 H   0  0  0  0  0  0
  1  2  1  0  0  0
  1 40  1  0  0  0
  1 41  1  0  0  0
  1 42  1  0  0  0
  2  3  1  0  0  0
  2 43  1  0  0  0
  2 44  1  0  0  0
  3  4  1  0  0  0
  3 45  1  0  0  0
  3 46  1  0  0  0
  4  8  1  0  0  0
  4  5  2  0  0  0
  5  6  1  0  0  0
  5 47  1  0  0  0
  6  7  2  0  0  0
  6  9  1  0  0  0
  7  8  1  0  0  0
  8 35  1  0  0  0
  9 10  1  0  0  0
  9 48  1  0  0  0
  9 49  1  0  0  0
 10 11  1  0  0  0
 10 79  1  0  0  0
 11 12  1  0  0  0
 11 50  1  0  0  0
 11 51  1  0  0  0
 12 36  1  0  0  0
 12 13  1  0  0  0
 12 34  1  0  0  0
 13 37  1  0  0  0
 13 30  1  0  0  0
 13 14  1  0  0  0
 14 15  1  0  0  0
 14 52  1  0  0  0
 14 53  1  0  0  0
 15 38  1  0  0  0
 15 16  1  0  0  0
 15 33  1  0  0  0
 16 17  1  0  0  0
 16 54  1  0  0  0
 16 55  1  0  0  0
 17 18  1  0  0  0
 17 56  1  0  0  0
 17 57  1  0  0  0
 18 19  1  0  0  0
 18 58  1  0  0  0
 18 59  1  0  0  0
 19 20  1  0  0  0
 19 60  1  0  0  0
 19 61  1  0  0  0
 20 21  1  0  0  0
 20 62  1  0  0  0
 20 63  1  0  0  0
 21 22  1  0  0  0
 21 64  1  0  0  0
 21 65  1  0  0  0
 22 23  1  0  0  0
 23 24  1  0  0  0
 23 66  1  0  0  0
 23 67  1  0  0  0
 24 25  2  0  0  0
 24 26  1  0  0  0
 26 27  1  0  0  0
 26 32  1  0  0  0
 27 39  1  0  0  0
 27 28  1  0  0  0
 27 31  1  0  0  0
 28 29  2  0  0  0
 28 30  1  0  0  0
 30 68  1  0  0  0
 31 69  1  0  0  0
 31 70  1  0  0  0
 31 71  1  0  0  0
 32 72  1  0  0  0
 32 73  1  0  0  0
 32 74  1  0  0  0
 33 75  1  0  0  0
 33 76  1  0  0  0
 33 77  1  0  0  0
 34 78  1  0  0  0
M  END
> <i_f3d_flags>
0

> <chiral flag>
1

> <version>
0

> <s_i_glide_gridfile>
base1a_gride_6

> <i_i_glide_lignum>
8

> <i_i_glide_rotatable_bonds>
8

> <r_i_docking_score>
-4.51188558549201

> <r_i_glide_ligand_efficiency>
-0.132702517220353

> <r_i_glide_ligand_efficiency_sa>
-0.429904640340952

> <r_i_glide_ligand_efficiency_ln>
-0.996802079939186

> <r_glide_XP_GScore>
-4.93468558549201

> <r_i_glide_gscore>
-4.93468558549201

> <r_i_glide_evdw>
-23.9302310943604

> <r_i_glide_ecoul>
-18.4606628417969

> <r_i_glide_energy>
-42.3908939361572

> <r_i_glide_einternal>
2.69208717346191

> <r_i_glide_emodel>
-48.2893590735125

> <r_glide_XP_HBond>
-0.693927336611975

> <i_i_glide_confnum>
1

> <i_i_glide_posenum>
1

> <r_i_glide_eff_state_penalty>
0.4228

> <i_glide_XP_PoseRank>
1

> <s_m_source_file>
glide-dock_pose_2-0004_raw.maegz

> <i_m_source_file_index>
2

> <i_lp_mmshare_version>
42013

> <s_epik_input>
W0NIM11bQ0gyXVtDSDJdYzFbY0hdYyhuW25IXTEpW0NIMl1bTkhdW0NIMl1bQ0BASF0oW09IXSlbQ0BASF0yW0NIMl1bQ0BIXShbQ0gzXSlbQ0gyXVtDSDJdW0NIMl1bQ0gyXVtDSDJdW0NIMl1PW0NIMl1DKD1PKU4oW0NIM10pW0NAQEhdKFtDSDNdKUMoPU8pW05IXTI=

> <s_epik_cmdline>
J2VwaWtfcHl0aG9uJywgJy1waCcsICc3LjAnLCAnLXRuJywgJzgnLCAnLW1hJywgJzIwMCcsICctaW1hZScsICc8aW5maWxlLm1hZT4nLCAnLW9tYWUnLCAnPG91dGZpbGUubWFlPic=

> <r_lp_tautomer_probability>
0.5

> <r_epik_Ionization_Penalty>
1.41911

> <r_epik_Ionization_Penalty_Charging>
0

> <r_epik_Ionization_Penalty_Neutral>
1.41911

> <r_epik_State_Penalty>
1.74351

> <r_epik_Charging_Adjusted_Penalty>
1.74351

> <i_epik_Tot_Q>
0

> <i_epik_Tot_abs_Q>
0

> <i_f3d_flags>
0

> <s_lp_Force_Field>
OPLS_2005

> <r_lp_Energy>
40.6956

> <b_lp_Chiralities_Consistent>
1

> <s_lp_Variant>
BACE_5.smi:1-4

$$$$
