@<TRIPOS>MOLECULE
BACE_8.smi:1
 78 80 0 0 0
SMALL
GASTEIGER
****
Structure written by MMmdl.
@<TRIPOS>ATOM
      1 C          19.3739   41.9503   -9.4728 C.3     1  UNL1       -0.0623
      2 C          19.6392   42.2052  -10.9688 C.3     1  UNL1       -0.0400
      3 C          18.6102   41.4723  -11.8626 C.3     1  UNL1       -0.0268
      4 C          17.1540   41.9327  -11.6760 C.3     1  UNL1        0.0479
      5 O          17.0164   43.2806  -12.1064 O.3     1  UNL1       -0.3797
      6 C          15.8268   43.8988  -11.6368 C.3     1  UNL1        0.0477
      7 C          15.8005   45.3681  -12.0916 C.3     1  UNL1       -0.0281
      8 C          16.6809   46.3148  -11.2559 C.3     1  UNL1       -0.0354
      9 C          18.1722   45.9521  -11.2858 C.3     1  UNL1        0.0105
     10 N          18.9867   46.9304  -10.5859 N.pl3   1  UNL1       -0.3290
     11 C          20.3608   46.7244  -10.4146 C.ar    1  UNL1        0.1211
     12 C          21.0878   45.7366  -11.1176 C.ar    1  UNL1       -0.0097
     13 C          22.4776   45.6319  -10.8971 C.ar    1  UNL1        0.0428
     14 C          23.0806   46.5255   -9.9879 C.ar    1  UNL1       -0.0126
     15 C          22.2715   47.4654   -9.3250 C.ar    1  UNL1        0.1320
     16 N          20.9435   47.5658   -9.5344 N.ar    1  UNL1       -0.2208
     17 CL         23.0038   48.5560   -8.2031 Cl      1  UNL1       -0.0619
     18 C          23.3213   44.6638  -11.6721 C.2     1  UNL1        0.2446
     19 O          24.2350   45.0854  -12.3770 O.2     1  UNL1       -0.2702
     20 N          23.0598   43.3477  -11.5987 N.am    1  UNL1       -0.3058
     21 C          22.2217   42.6068  -10.6475 C.3     1  UNL1        0.0545
     22 C          21.0859   41.8738  -11.4179 C.3     1  UNL1       -0.0292
     23 C          23.1509   41.7186   -9.7536 C.3     1  UNL1        0.1130
     24 C          22.5208   40.6009   -8.8954 C.3     1  UNL1       -0.0050
     25 N          22.2026   39.3983   -9.6972 N.4     1  UNL1        0.2321
     26 C          21.7187   38.2195   -8.9590 C.3     1  UNL1       -0.0076
     27 C          20.3848   38.4502   -8.2788 C.ar    1  UNL1       -0.0027
     28 C          20.3688   38.9013   -6.9452 C.ar    1  UNL1       -0.0535
     29 C          19.1492   39.0151   -6.2624 C.ar    1  UNL1       -0.0611
     30 C          17.9419   38.6902   -6.8969 C.ar    1  UNL1       -0.0583
     31 C          17.9428   38.2449   -8.2320 C.ar    1  UNL1       -0.0444
     32 C          19.1680   38.1404   -8.9298 C.ar    1  UNL1       -0.0501
     33 C          16.6224   37.8551   -8.8777 C.3     1  UNL1       -0.0215
     34 C          16.6177   36.3837   -9.3036 C.3     1  UNL1       -0.0586
     35 C          16.2526   38.8039  -10.0258 C.3     1  UNL1       -0.0586
     36 O          24.2696   41.1828  -10.4396 O.3     1  UNL1       -0.3847
     37 H          19.5085   43.2682  -11.1394 H       1  UNL1        0.0299
     38 H          21.7525   43.3218   -9.9735 H       1  UNL1        0.0526
     39 H          23.6002   42.4119   -9.0410 H       1  UNL1        0.0666
     40 H          19.4347   40.8910   -9.2319 H       1  UNL1        0.0232
     41 H          18.3825   42.2876   -9.1727 H       1  UNL1        0.0232
     42 H          20.0650   42.4916   -8.8309 H       1  UNL1        0.0232
     43 H          18.8744   41.6080  -12.9114 H       1  UNL1        0.0290
     44 H          18.6703   40.3982  -11.6769 H       1  UNL1        0.0290
     45 H          16.4910   41.2931  -12.2569 H       1  UNL1        0.0560
     46 H          16.8449   41.8233  -10.6380 H       1  UNL1        0.0560
     47 H          14.9611   43.3695  -12.0366 H       1  UNL1        0.0560
     48 H          15.7617   43.8441  -10.5491 H       1  UNL1        0.0560
     49 H          16.0832   45.4308  -13.1428 H       1  UNL1        0.0288
     50 H          14.7733   45.7263  -12.0360 H       1  UNL1        0.0288
     51 H          16.5483   47.3320  -11.6313 H       1  UNL1        0.0281
     52 H          16.3306   46.3245  -10.2229 H       1  UNL1        0.0281
     53 H          18.3129   44.9890  -10.7980 H       1  UNL1        0.0462
     54 H          18.5149   45.8644  -12.3194 H       1  UNL1        0.0462
     55 H          18.5369   47.6379  -10.0225 H       1  UNL1        0.1474
     56 H          20.6121   45.0914  -11.8419 H       1  UNL1        0.0659
     57 H          24.1458   46.4955   -9.8080 H       1  UNL1        0.0655
     58 H          23.6533   42.7775  -12.1841 H       1  UNL1        0.1494
     59 H          21.2352   40.8029  -11.4601 H       1  UNL1        0.0286
     60 H          21.1556   42.1502  -12.4651 H       1  UNL1        0.0286
     61 H          23.2395   40.3051   -8.1306 H       1  UNL1        0.0840
     62 H          21.6508   40.9705   -8.3616 H       1  UNL1        0.0840
     63 H          21.5274   39.6387  -10.4096 H       1  UNL1        0.2018
     64 H          21.6434   37.3630   -9.6332 H       1  UNL1        0.0866
     65 H          22.4598   37.9572   -8.2109 H       1  UNL1        0.0866
     66 H          21.2886   39.1289   -6.4295 H       1  UNL1        0.0622
     67 H          19.1367   39.3510   -5.2385 H       1  UNL1        0.0618
     68 H          17.0165   38.7691   -6.3433 H       1  UNL1        0.0620
     69 H          19.1771   37.7807   -9.9493 H       1  UNL1        0.0625
     70 H          15.8414   37.9574   -8.1216 H       1  UNL1        0.0343
     71 H          16.7957   35.7379   -8.4412 H       1  UNL1        0.0235
     72 H          17.3945   36.1808  -10.0397 H       1  UNL1        0.0235
     73 H          15.6606   36.1058   -9.7440 H       1  UNL1        0.0235
     74 H          16.1682   39.8240   -9.6538 H       1  UNL1        0.0235
     75 H          15.2894   38.5353  -10.4608 H       1  UNL1        0.0235
     76 H          17.0029   38.7908  -10.8138 H       1  UNL1        0.0235
     77 H          24.0570   40.9567  -11.3402 H       1  UNL1        0.2101
     78 H          23.0769   39.1258  -10.1333 H       1  UNL1        0.2018
@<TRIPOS>BOND
     1     1     2    1
     2     1    40    1
     3     1    41    1
     4     1    42    1
     5     2    37    1
     6     2    22    1
     7     2     3    1
     8     3     4    1
     9     3    43    1
    10     3    44    1
    11     4     5    1
    12     4    45    1
    13     4    46    1
    14     5     6    1
    15     6     7    1
    16     6    47    1
    17     6    48    1
    18     7     8    1
    19     7    49    1
    20     7    50    1
    21     8     9    1
    22     8    51    1
    23     8    52    1
    24     9    10    1
    25     9    53    1
    26     9    54    1
    27    10    11    1
    28    10    55    1
    29    11    16   ar
    30    11    12   ar
    31    12    13   ar
    32    12    56    1
    33    13    14   ar
    34    13    18    1
    35    14    15   ar
    36    14    57    1
    37    15    16   ar
    38    15    17    1
    39    18    19    2
    40    18    20   am
    41    20    21    1
    42    20    58    1
    43    21    38    1
    44    21    22    1
    45    21    23    1
    46    22    59    1
    47    22    60    1
    48    23    39    1
    49    23    24    1
    50    23    36    1
    51    24    25    1
    52    24    61    1
    53    24    62    1
    54    25    26    1
    55    25    63    1
    56    25    78    1
    57    26    27    1
    58    26    64    1
    59    26    65    1
    60    27    32   ar
    61    27    28   ar
    62    28    29   ar
    63    28    66    1
    64    29    30   ar
    65    29    67    1
    66    30    31   ar
    67    30    68    1
    68    31    32   ar
    69    31    33    1
    70    32    69    1
    71    33    34    1
    72    33    35    1
    73    33    70    1
    74    34    71    1
    75    34    72    1
    76    34    73    1
    77    35    74    1
    78    35    75    1
    79    35    76    1
    80    36    77    1
