@<TRIPOS>MOLECULE
BACE_9.smi:1
 87 89 0 0 0
SMALL
GASTEIGER
****
Structure written by MMmdl.
@<TRIPOS>ATOM
      1 C          19.2563   46.3524   -6.3568 C.3     1  UNL1       -0.0624
      2 C          19.5084   45.0429   -7.1201 C.3     1  UNL1       -0.0421
      3 C          21.0126   44.7195   -7.1753 C.3     1  UNL1       -0.0504
      4 C          21.2944   43.2911   -7.6640 C.3     1  UNL1       -0.0528
      5 C          22.7595   42.8638   -7.4788 C.3     1  UNL1       -0.0530
      6 C          23.0095   41.4171   -7.9280 C.3     1  UNL1       -0.0530
      7 C          22.4708   40.3669   -6.9318 C.3     1  UNL1       -0.0516
      8 C          22.3387   38.9464   -7.5123 C.3     1  UNL1       -0.0375
      9 C          20.9741   38.6662   -8.1670 C.3     1  UNL1        0.0091
     10 N          20.7833   39.4311   -9.3874 N.pl3   1  UNL1       -0.3438
     11 C          19.4666   39.7354   -9.7470 C.ar    1  UNL1        0.0282
     12 C          18.4342   38.7737   -9.6775 C.ar    1  UNL1       -0.0355
     13 C          17.1248   39.1085  -10.0736 C.ar    1  UNL1       -0.0195
     14 C          16.8404   40.4184  -10.5153 C.ar    1  UNL1       -0.0442
     15 C          17.8619   41.3910  -10.5671 C.ar    1  UNL1        0.0388
     16 C          19.1766   41.0356  -10.2021 C.ar    1  UNL1       -0.0287
     17 C          17.5628   42.7626  -11.0929 C.2     1  UNL1        0.2444
     18 O          17.2482   42.9016  -12.2732 O.2     1  UNL1       -0.2702
     19 N          17.6604   43.8239  -10.2715 N.am    1  UNL1       -0.3060
     20 C          17.8937   43.8715   -8.8226 C.3     1  UNL1        0.0508
     21 C          18.8362   45.0664   -8.5155 C.3     1  UNL1       -0.0295
     22 C          16.5129   43.8801   -8.0920 C.3     1  UNL1        0.0859
     23 C          15.3185   44.3801   -8.9327 C.3     1  UNL1        0.0240
     24 N          14.0453   43.9364   -8.3595 N.3     1  UNL1       -0.3095
     25 C          13.2424   43.0890   -9.2443 C.3     1  UNL1        0.0213
     26 C          13.1104   43.5819  -10.6754 C.ar    1  UNL1       -0.0333
     27 C          12.3621   42.8648  -11.6333 C.ar    1  UNL1       -0.0573
     28 C          12.2483   43.3579  -12.9447 C.ar    1  UNL1       -0.0612
     29 C          12.8593   44.5747  -13.3027 C.ar    1  UNL1       -0.0583
     30 C          13.6056   45.3043  -12.3523 C.ar    1  UNL1       -0.0445
     31 C          13.7185   44.8020  -11.0381 C.ar    1  UNL1       -0.0539
     32 C          14.2792   46.6141  -12.7491 C.3     1  UNL1       -0.0215
     33 C          13.6728   47.2004  -14.0362 C.3     1  UNL1       -0.0586
     34 C          15.8041   46.4573  -12.8627 C.3     1  UNL1       -0.0586
     35 O          16.1797   42.5816   -7.6409 O.3     1  UNL1       -0.3887
     36 C          16.0303   38.0605  -10.0083 C.3     1  UNL1        0.0724
     37 O          15.5869   37.8404   -8.6755 O.3     1  UNL1       -0.3784
     38 C          14.8074   38.9176   -8.1837 C.3     1  UNL1        0.0369
     39 H          19.0785   44.2452   -6.5283 H       1  UNL1        0.0299
     40 H          18.4290   42.9685   -8.5320 H       1  UNL1        0.0524
     41 H          16.5863   44.5248   -7.2152 H       1  UNL1        0.0624
     42 H          19.7021   47.2055   -6.8643 H       1  UNL1        0.0232
     43 H          19.6781   46.3103   -5.3513 H       1  UNL1        0.0232
     44 H          18.1906   46.5509   -6.2467 H       1  UNL1        0.0232
     45 H          21.5452   45.4397   -7.7982 H       1  UNL1        0.0268
     46 H          21.4289   44.8227   -6.1719 H       1  UNL1        0.0268
     47 H          20.6438   42.6019   -7.1260 H       1  UNL1        0.0265
     48 H          21.0239   43.2030   -8.7154 H       1  UNL1        0.0265
     49 H          23.3993   43.5301   -8.0600 H       1  UNL1        0.0265
     50 H          23.0643   42.9818   -6.4372 H       1  UNL1        0.0265
     51 H          22.5846   41.2806   -8.9213 H       1  UNL1        0.0265
     52 H          24.0841   41.2548   -8.0493 H       1  UNL1        0.0265
     53 H          23.1507   40.3398   -6.0806 H       1  UNL1        0.0266
     54 H          21.5090   40.6681   -6.5185 H       1  UNL1        0.0266
     55 H          23.1546   38.7310   -8.2038 H       1  UNL1        0.0280
     56 H          22.4527   38.2386   -6.6900 H       1  UNL1        0.0280
     57 H          20.8928   37.6044   -8.4038 H       1  UNL1        0.0461
     58 H          20.1748   38.8990   -7.4632 H       1  UNL1        0.0461
     59 H          21.4576   40.1663   -9.5297 H       1  UNL1        0.1461
     60 H          18.6443   37.7701   -9.3380 H       1  UNL1        0.0639
     61 H          15.8365   40.6761  -10.8208 H       1  UNL1        0.0628
     62 H          19.9650   41.7707  -10.2722 H       1  UNL1        0.0643
     63 H          17.4362   44.7129  -10.6894 H       1  UNL1        0.1494
     64 H          18.2932   45.9987   -8.6613 H       1  UNL1        0.0286
     65 H          19.6201   45.0953   -9.2724 H       1  UNL1        0.0286
     66 H          15.3507   45.4581   -9.0505 H       1  UNL1        0.0450
     67 H          15.4095   43.9951   -9.9481 H       1  UNL1        0.0450
     68 H          14.2580   43.4296   -7.5047 H       1  UNL1        0.1223
     69 H          13.6883   42.0959   -9.2889 H       1  UNL1        0.0473
     70 H          12.2468   42.9446   -8.8199 H       1  UNL1        0.0473
     71 H          11.8719   41.9367  -11.3763 H       1  UNL1        0.0621
     72 H          11.6823   42.8004  -13.6727 H       1  UNL1        0.0618
     73 H          12.7479   44.9465  -14.3140 H       1  UNL1        0.0620
     74 H          14.2812   45.3584  -10.3014 H       1  UNL1        0.0623
     75 H          14.0938   47.3336  -11.9491 H       1  UNL1        0.0343
     76 H          12.5928   47.3246  -13.9459 H       1  UNL1        0.0235
     77 H          13.8581   46.5595  -14.8979 H       1  UNL1        0.0235
     78 H          14.0992   48.1787  -14.2553 H       1  UNL1        0.0235
     79 H          16.2283   46.1079  -11.9234 H       1  UNL1        0.0235
     80 H          16.2814   47.4079  -13.0984 H       1  UNL1        0.0235
     81 H          16.0780   45.7433  -13.6410 H       1  UNL1        0.0235
     82 H          15.8730   42.6390   -6.7475 H       1  UNL1        0.2099
     83 H          15.1939   38.4011  -10.6248 H       1  UNL1        0.0610
     84 H          16.3889   37.1240  -10.4356 H       1  UNL1        0.0610
     85 H          14.4860   38.7040   -7.1642 H       1  UNL1        0.0524
     86 H          13.9187   39.0739   -8.7960 H       1  UNL1        0.0524
     87 H          15.3894   39.8418   -8.1676 H       1  UNL1        0.0524
@<TRIPOS>BOND
     1     1     2    1
     2     1    42    1
     3     1    43    1
     4     1    44    1
     5     2    39    1
     6     2    21    1
     7     2     3    1
     8     3     4    1
     9     3    45    1
    10     3    46    1
    11     4     5    1
    12     4    47    1
    13     4    48    1
    14     5     6    1
    15     5    49    1
    16     5    50    1
    17     6     7    1
    18     6    51    1
    19     6    52    1
    20     7     8    1
    21     7    53    1
    22     7    54    1
    23     8     9    1
    24     8    55    1
    25     8    56    1
    26     9    10    1
    27     9    57    1
    28     9    58    1
    29    10    11    1
    30    10    59    1
    31    11    16   ar
    32    11    12   ar
    33    12    13   ar
    34    12    60    1
    35    13    14   ar
    36    13    36    1
    37    14    15   ar
    38    14    61    1
    39    15    16   ar
    40    15    17    1
    41    16    62    1
    42    17    18    2
    43    17    19   am
    44    19    20    1
    45    19    63    1
    46    20    40    1
    47    20    21    1
    48    20    22    1
    49    21    64    1
    50    21    65    1
    51    22    41    1
    52    22    23    1
    53    22    35    1
    54    23    24    1
    55    23    66    1
    56    23    67    1
    57    24    25    1
    58    24    68    1
    59    25    26    1
    60    25    69    1
    61    25    70    1
    62    26    31   ar
    63    26    27   ar
    64    27    28   ar
    65    27    71    1
    66    28    29   ar
    67    28    72    1
    68    29    30   ar
    69    29    73    1
    70    30    31   ar
    71    30    32    1
    72    31    74    1
    73    32    33    1
    74    32    34    1
    75    32    75    1
    76    33    76    1
    77    33    77    1
    78    33    78    1
    79    34    79    1
    80    34    80    1
    81    34    81    1
    82    35    82    1
    83    36    37    1
    84    36    83    1
    85    36    84    1
    86    37    38    1
    87    38    85    1
    88    38    86    1
    89    38    87    1
