@<TRIPOS>MOLECULE
BACE_5.smi:1
 79 80 0 0 0
SMALL
GASTEIGER
****
Structure written by MMmdl.
@<TRIPOS>ATOM
      1 C          22.1837   43.6727    1.4115 C.3     1  UNL1       -0.0649
      2 C          22.0236   43.8835   -0.1006 C.3     1  UNL1       -0.0505
      3 C          20.7097   43.3103   -0.6586 C.3     1  UNL1       -0.0112
      4 C          20.8764   42.4728   -1.8874 C.ar    1  UNL1        0.0364
      5 C          21.7423   42.5541   -2.9439 C.ar    1  UNL1       -0.0168
      6 C          21.4333   41.4313   -3.7637 C.ar    1  UNL1        0.0768
      7 N          20.4604   40.6960   -3.2377 N.ar    1  UNL1       -0.1774
      8 N          20.1125   41.3506   -2.1149 N.ar    1  UNL1       -0.2813
      9 C          22.0803   41.0569   -5.0788 C.3     1  UNL1        0.0403
     10 N          21.6492   39.7468   -5.5763 N.3     1  UNL1       -0.3080
     11 C          22.1637   39.3112   -6.8792 C.3     1  UNL1        0.0240
     12 C          21.7228   40.1827   -8.0771 C.3     1  UNL1        0.0859
     13 C          20.1952   40.3934   -8.2061 C.3     1  UNL1        0.0505
     14 C          19.3924   39.1074   -8.5191 C.3     1  UNL1       -0.0295
     15 C          17.9929   39.0863   -7.8697 C.3     1  UNL1       -0.0421
     16 C          16.9923   38.2071   -8.6481 C.3     1  UNL1       -0.0504
     17 C          16.4233   38.8528   -9.9277 C.3     1  UNL1       -0.0528
     18 C          15.5113   40.0600   -9.6496 C.3     1  UNL1       -0.0530
     19 C          14.7722   40.5791  -10.8959 C.3     1  UNL1       -0.0510
     20 C          13.7892   41.7163  -10.5580 C.3     1  UNL1       -0.0294
     21 C          14.4612   43.0797  -10.3570 C.3     1  UNL1        0.0483
     22 O          14.7227   43.6356  -11.6397 O.3     1  UNL1       -0.3706
     23 C          15.7031   44.6639  -11.6716 C.3     1  UNL1        0.1238
     24 C          17.1047   44.0297  -11.6279 C.2     1  UNL1        0.2417
     25 O          17.4328   43.3527  -12.6069 O.2     1  UNL1       -0.2731
     26 N          17.8906   44.1844  -10.5297 N.am    1  UNL1       -0.2914
     27 C          19.1513   43.4151  -10.3767 C.3     1  UNL1        0.0991
     28 C          19.1627   42.4753   -9.1499 C.2     1  UNL1        0.2336
     29 O          18.5064   42.7259   -8.1438 O.2     1  UNL1       -0.2738
     30 N          19.9565   41.4003   -9.2408 N.am    1  UNL1       -0.3084
     31 C          20.3678   44.3732  -10.3769 C.3     1  UNL1       -0.0379
     32 C          17.5313   45.1384   -9.4630 C.3     1  UNL1        0.0040
     33 C          18.0786   38.6298   -6.4057 C.3     1  UNL1       -0.0624
     34 O          22.1866   39.5740   -9.2675 O.3     1  UNL1       -0.3887
     35 H          19.3682   41.0149   -1.5128 H       1  UNL1        0.1885
     36 H          22.2154   41.1511   -7.9928 H       1  UNL1        0.0624
     37 H          19.8593   40.7928   -7.2504 H       1  UNL1        0.0524
     38 H          17.5996   40.1011   -7.8481 H       1  UNL1        0.0299
     39 H          19.3034   42.7628  -11.2430 H       1  UNL1        0.0594
     40 H          23.1215   44.1001    1.7691 H       1  UNL1        0.0230
     41 H          22.1913   42.6074    1.6511 H       1  UNL1        0.0230
     42 H          21.3695   44.1483    1.9587 H       1  UNL1        0.0230
     43 H          22.8714   43.4234   -0.6040 H       1  UNL1        0.0266
     44 H          22.0827   44.9450   -0.3438 H       1  UNL1        0.0266
     45 H          20.0482   44.1423   -0.8846 H       1  UNL1        0.0328
     46 H          20.2013   42.7270    0.1111 H       1  UNL1        0.0328
     47 H          22.4927   43.3117   -3.1117 H       1  UNL1        0.0654
     48 H          23.1638   41.0599   -4.9614 H       1  UNL1        0.0489
     49 H          21.8515   41.8304   -5.8139 H       1  UNL1        0.0489
     50 H          20.6325   39.6962   -5.5399 H       1  UNL1        0.1224
     51 H          21.8538   38.2809   -7.0464 H       1  UNL1        0.0450
     52 H          23.2527   39.2888   -6.8498 H       1  UNL1        0.0450
     53 H          19.3224   38.9833   -9.5975 H       1  UNL1        0.0286
     54 H          19.9328   38.2253   -8.1846 H       1  UNL1        0.0286
     55 H          17.4682   37.2589   -8.8971 H       1  UNL1        0.0268
     56 H          16.1497   37.9469   -8.0042 H       1  UNL1        0.0268
     57 H          15.8371   38.0925  -10.4405 H       1  UNL1        0.0265
     58 H          17.2256   39.1371  -10.6110 H       1  UNL1        0.0265
     59 H          14.7785   39.7744   -8.8943 H       1  UNL1        0.0265
     60 H          16.0921   40.8724   -9.2159 H       1  UNL1        0.0265
     61 H          14.2119   39.7518  -11.3314 H       1  UNL1        0.0266
     62 H          15.4878   40.9051  -11.6502 H       1  UNL1        0.0266
     63 H          13.0297   41.8083  -11.3365 H       1  UNL1        0.0287
     64 H          13.2542   41.4497   -9.6471 H       1  UNL1        0.0287
     65 H          15.3614   42.9724   -9.7510 H       1  UNL1        0.0560
     66 H          13.7931   43.7503   -9.8153 H       1  UNL1        0.0560
     67 H          15.4928   45.4075  -10.9034 H       1  UNL1        0.0657
     68 H          15.6056   45.1870  -12.6239 H       1  UNL1        0.0657
     69 H          20.4780   41.2665  -10.0913 H       1  UNL1        0.1491
     70 H          21.3056   43.8190  -10.4495 H       1  UNL1        0.0252
     71 H          20.4168   44.9689   -9.4592 H       1  UNL1        0.0252
     72 H          20.3301   45.0595  -11.2252 H       1  UNL1        0.0252
     73 H          18.3126   45.2483   -8.7094 H       1  UNL1        0.0429
     74 H          16.6333   44.8087   -8.9338 H       1  UNL1        0.0429
     75 H          17.3590   46.1368   -9.8704 H       1  UNL1        0.0429
     76 H          17.0828   38.5827   -5.9661 H       1  UNL1        0.0232
     77 H          18.6597   39.3381   -5.8111 H       1  UNL1        0.0232
     78 H          18.5092   37.6297   -6.3098 H       1  UNL1        0.0232
     79 H          23.1177   39.4037   -9.2093 H       1  UNL1        0.2099
@<TRIPOS>BOND
     1     1     2    1
     2     1    40    1
     3     1    41    1
     4     1    42    1
     5     2     3    1
     6     2    43    1
     7     2    44    1
     8     3     4    1
     9     3    45    1
    10     3    46    1
    11     4     8   ar
    12     4     5   ar
    13     5     6   ar
    14     5    47    1
    15     6     7   ar
    16     6     9    1
    17     7     8   ar
    18     8    35    1
    19     9    10    1
    20     9    48    1
    21     9    49    1
    22    10    11    1
    23    10    50    1
    24    11    12    1
    25    11    51    1
    26    11    52    1
    27    12    36    1
    28    12    13    1
    29    12    34    1
    30    13    37    1
    31    13    30    1
    32    13    14    1
    33    14    15    1
    34    14    53    1
    35    14    54    1
    36    15    38    1
    37    15    16    1
    38    15    33    1
    39    16    17    1
    40    16    55    1
    41    16    56    1
    42    17    18    1
    43    17    57    1
    44    17    58    1
    45    18    19    1
    46    18    59    1
    47    18    60    1
    48    19    20    1
    49    19    61    1
    50    19    62    1
    51    20    21    1
    52    20    63    1
    53    20    64    1
    54    21    22    1
    55    21    65    1
    56    21    66    1
    57    22    23    1
    58    23    24    1
    59    23    67    1
    60    23    68    1
    61    24    25    2
    62    24    26   am
    63    26    27    1
    64    26    32    1
    65    27    39    1
    66    27    28    1
    67    27    31    1
    68    28    29    2
    69    28    30   am
    70    30    69    1
    71    31    70    1
    72    31    71    1
    73    31    72    1
    74    32    73    1
    75    32    74    1
    76    32    75    1
    77    33    76    1
    78    33    77    1
    79    33    78    1
    80    34    79    1
