@<TRIPOS>MOLECULE
BACE_13.smi:1
 76 79 0 0 0
SMALL
GASTEIGER
****
Structure written by MMmdl.
@<TRIPOS>ATOM
      1 C          20.1604   49.6115   -6.5908 C.3     1  UNL1        0.0369
      2 O          21.5156   49.2112   -6.7554 O.3     1  UNL1       -0.3784
      3 C          21.7467   48.4287   -7.9239 C.3     1  UNL1        0.0724
      4 C          21.2205   47.0017   -7.8388 C.ar    1  UNL1       -0.0195
      5 C          20.9820   46.2752   -9.0223 C.ar    1  UNL1       -0.0442
      6 C          20.5090   44.9443   -8.9698 C.ar    1  UNL1        0.0388
      7 C          20.2456   44.3578   -7.7137 C.ar    1  UNL1       -0.0287
      8 C          20.4922   45.0729   -6.5141 C.ar    1  UNL1        0.0282
      9 C          20.9943   46.3872   -6.5887 C.ar    1  UNL1       -0.0355
     10 N          20.2509   44.5346   -5.2400 N.pl3   1  UNL1       -0.3438
     11 C          20.0583   43.1080   -5.0541 C.3     1  UNL1        0.0092
     12 C          21.3569   42.3161   -5.2553 C.3     1  UNL1       -0.0344
     13 C          21.1566   40.8073   -5.0632 C.3     1  UNL1       -0.0172
     14 C          22.4187   39.9990   -5.4168 C.3     1  UNL1        0.0896
     15 O          22.7951   40.1745   -6.7818 O.3     1  UNL1       -0.4920
     16 C          21.9611   39.6954   -7.7703 C.ar    1  UNL1        0.1208
     17 C          21.0763   38.6003   -7.6080 C.ar    1  UNL1       -0.0199
     18 C          20.2590   38.1794   -8.6750 C.ar    1  UNL1       -0.0580
     19 C          20.3012   38.8573   -9.9048 C.ar    1  UNL1       -0.0583
     20 C          21.1497   39.9726  -10.0677 C.ar    1  UNL1       -0.0421
     21 C          21.9999   40.3592   -9.0114 C.ar    1  UNL1       -0.0167
     22 C          21.1563   40.7344  -11.3802 C.3     1  UNL1       -0.0066
     23 C          20.2941   42.0281  -11.4354 C.3     1  UNL1        0.0548
     24 N          20.4699   42.8847  -10.2563 N.am    1  UNL1       -0.3057
     25 C          20.2251   44.2080  -10.2473 C.2     1  UNL1        0.2444
     26 O          19.8159   44.8138  -11.2398 O.2     1  UNL1       -0.2702
     27 C          18.7926   41.7942  -11.8138 C.3     1  UNL1        0.0912
     28 C          17.7333   41.8568  -10.6762 C.3     1  UNL1        0.0591
     29 C          16.2985   41.6598  -11.2267 C.3     1  UNL1        0.0660
     30 O          15.3277   41.5483  -10.1843 O.3     1  UNL1       -0.3714
     31 C          15.6056   40.5145   -9.2362 C.3     1  UNL1        0.0944
     32 C          16.9883   40.7828   -8.6192 C.3     1  UNL1        0.0248
     33 N          18.0044   40.8390   -9.6666 N.3     1  UNL1       -0.3065
     34 C          15.4791   39.1033   -9.8489 C.3     1  UNL1        0.0747
     35 O          15.7451   38.1254   -8.8588 O.3     1  UNL1       -0.3804
     36 C          16.0606   36.8569   -9.4044 C.3     1  UNL1        0.0366
     37 O          18.4599   42.7654  -12.7963 O.3     1  UNL1       -0.3883
     38 H          20.7554   42.5496  -12.2710 H       1  UNL1        0.0527
     39 H          18.7014   40.8283  -12.3137 H       1  UNL1        0.0628
     40 H          17.7616   42.8371  -10.1993 H       1  UNL1        0.0509
     41 H          14.8576   40.5993   -8.4455 H       1  UNL1        0.0632
     42 H          20.0696   50.1757   -5.6621 H       1  UNL1        0.0524
     43 H          19.4827   48.7592   -6.5307 H       1  UNL1        0.0524
     44 H          19.8378   50.2542   -7.4125 H       1  UNL1        0.0524
     45 H          22.8253   48.3706   -8.0775 H       1  UNL1        0.0610
     46 H          21.3357   48.9334   -8.8014 H       1  UNL1        0.0610
     47 H          21.1682   46.7412   -9.9788 H       1  UNL1        0.0628
     48 H          19.8479   43.3550   -7.6789 H       1  UNL1        0.0643
     49 H          21.1930   46.9309   -5.6767 H       1  UNL1        0.0639
     50 H          20.5557   45.0422   -4.4146 H       1  UNL1        0.1461
     51 H          19.2692   42.7584   -5.7209 H       1  UNL1        0.0461
     52 H          19.6876   42.9448   -4.0412 H       1  UNL1        0.0461
     53 H          22.1192   42.6753   -4.5617 H       1  UNL1        0.0281
     54 H          21.7434   42.4953   -6.2584 H       1  UNL1        0.0281
     55 H          20.3122   40.4687   -5.6637 H       1  UNL1        0.0298
     56 H          20.8811   40.6084   -4.0292 H       1  UNL1        0.0298
     57 H          22.2958   38.9499   -5.1664 H       1  UNL1        0.0696
     58 H          23.2482   40.3473   -4.7995 H       1  UNL1        0.0696
     59 H          21.0177   38.0614   -6.6742 H       1  UNL1        0.0654
     60 H          19.5822   37.3499   -8.5434 H       1  UNL1        0.0619
     61 H          19.6531   38.5369  -10.7109 H       1  UNL1        0.0620
     62 H          22.6715   41.1935   -9.1399 H       1  UNL1        0.0657
     63 H          20.8868   40.0652  -12.1966 H       1  UNL1        0.0332
     64 H          22.1973   41.0052  -11.5749 H       1  UNL1        0.0332
     65 H          20.8386   42.4540   -9.4219 H       1  UNL1        0.1494
     66 H          16.2468   40.8016  -11.8977 H       1  UNL1        0.0576
     67 H          16.0183   42.5270  -11.8247 H       1  UNL1        0.0576
     68 H          17.2348   40.0005   -7.9005 H       1  UNL1        0.0450
     69 H          16.9685   41.7184   -8.0587 H       1  UNL1        0.0450
     70 H          18.9238   40.9696   -9.2554 H       1  UNL1        0.1224
     71 H          14.4746   38.9519  -10.2479 H       1  UNL1        0.0586
     72 H          16.1795   38.9785  -10.6738 H       1  UNL1        0.0586
     73 H          16.2309   36.1398   -8.6012 H       1  UNL1        0.0524
     74 H          16.9724   36.9031  -10.0032 H       1  UNL1        0.0524
     75 H          15.2513   36.4809  -10.0340 H       1  UNL1        0.0524
     76 H          18.6832   43.6149  -12.4350 H       1  UNL1        0.2099
@<TRIPOS>BOND
     1     1     2    1
     2     1    42    1
     3     1    43    1
     4     1    44    1
     5     2     3    1
     6     3     4    1
     7     3    45    1
     8     3    46    1
     9     4     9   ar
    10     4     5   ar
    11     5     6   ar
    12     5    47    1
    13     6    25    1
    14     6     7   ar
    15     7     8   ar
    16     7    48    1
    17     8     9   ar
    18     8    10    1
    19     9    49    1
    20    10    11    1
    21    10    50    1
    22    11    12    1
    23    11    51    1
    24    11    52    1
    25    12    13    1
    26    12    53    1
    27    12    54    1
    28    13    14    1
    29    13    55    1
    30    13    56    1
    31    14    15    1
    32    14    57    1
    33    14    58    1
    34    15    16    1
    35    16    21   ar
    36    16    17   ar
    37    17    18   ar
    38    17    59    1
    39    18    19   ar
    40    18    60    1
    41    19    20   ar
    42    19    61    1
    43    20    21   ar
    44    20    22    1
    45    21    62    1
    46    22    23    1
    47    22    63    1
    48    22    64    1
    49    23    38    1
    50    23    24    1
    51    23    27    1
    52    24    25   am
    53    24    65    1
    54    25    26    2
    55    27    39    1
    56    27    28    1
    57    27    37    1
    58    28    40    1
    59    28    33    1
    60    28    29    1
    61    29    30    1
    62    29    66    1
    63    29    67    1
    64    30    31    1
    65    31    41    1
    66    31    32    1
    67    31    34    1
    68    32    33    1
    69    32    68    1
    70    32    69    1
    71    33    70    1
    72    34    35    1
    73    34    71    1
    74    34    72    1
    75    35    36    1
    76    36    73    1
    77    36    74    1
    78    36    75    1
    79    37    76    1
