@<TRIPOS>MOLECULE
BACE_1.smi:1
 87 88 0 0 0
SMALL
GASTEIGER
****
Structure written by MMmdl.
@<TRIPOS>ATOM
      1 C          31.7685   42.0711  -12.8563 C.3     1  UNL1       -0.0652
      2 C          30.8502   43.2474  -12.5083 C.3     1  UNL1       -0.0545
      3 C          29.3728   42.8527  -12.3733 C.3     1  UNL1       -0.0376
      4 C          29.0426   42.0017  -11.1323 C.3     1  UNL1        0.0116
      5 N          27.6081   41.7516  -11.0769 N.am    1  UNL1       -0.3151
      6 C          26.7011   42.6022  -10.5721 C.2     1  UNL1        0.2159
      7 O          27.0004   43.5589   -9.8582 O.2     1  UNL1       -0.2755
      8 C          25.2455   42.3884  -11.0053 C.3     1  UNL1        0.0351
      9 C          24.7954   43.5619  -11.8974 C.3     1  UNL1       -0.0540
     10 C          24.2793   42.1458   -9.8132 C.3     1  UNL1       -0.0143
     11 C          23.2004   41.0749  -10.1016 C.3     1  UNL1        0.0742
     12 C          22.2368   40.7883   -8.9230 C.3     1  UNL1        0.0496
     13 C          21.3279   39.5584   -9.1994 C.3     1  UNL1       -0.0295
     14 C          20.2490   39.2463   -8.1298 C.3     1  UNL1       -0.0421
     15 C          19.1579   38.3126   -8.7103 C.3     1  UNL1       -0.0504
     16 C          17.9280   38.0460   -7.8119 C.3     1  UNL1       -0.0528
     17 C          17.2336   39.2851   -7.2131 C.3     1  UNL1       -0.0516
     18 C          16.7293   40.3170   -8.2437 C.3     1  UNL1       -0.0371
     19 C          16.1309   41.5847   -7.5912 C.3     1  UNL1        0.0150
     20 N          15.7761   42.6130   -8.5860 N.am    1  UNL1       -0.2978
     21 C          16.4819   43.7481   -8.8508 C.2     1  UNL1        0.2467
     22 O          16.1036   44.5849   -9.6741 O.2     1  UNL1       -0.2700
     23 C          17.7411   44.0508   -8.0884 C.ar    1  UNL1        0.0411
     24 C          18.8595   43.1962   -8.1403 C.ar    1  UNL1       -0.0373
     25 C          20.0563   43.5269   -7.4666 C.ar    1  UNL1        0.0409
     26 C          20.1298   44.7307   -6.7343 C.ar    1  UNL1       -0.0078
     27 C          19.0316   45.6255   -6.7126 C.ar    1  UNL1        0.1219
     28 C          17.8471   45.2665   -7.3851 C.ar    1  UNL1       -0.0078
     29 O          19.0371   46.8458   -6.0727 O.3     1  UNL1       -0.4922
     30 C          20.2856   47.4897   -5.8398 C.3     1  UNL1        0.0868
     31 C          20.9511   47.9407   -7.1478 C.3     1  UNL1       -0.0307
     32 C          21.2215   42.5828   -7.4961 C.2     1  UNL1        0.2445
     33 O          21.9293   42.4096   -6.5060 O.2     1  UNL1       -0.2702
     34 N          21.4080   41.9650   -8.6708 N.am    1  UNL1       -0.3060
     35 C          14.4748   42.3894   -9.2391 C.3     1  UNL1        0.0121
     36 C          13.3865   43.3649   -8.7496 C.3     1  UNL1       -0.0493
     37 C          20.8782   38.6996   -6.8365 C.3     1  UNL1       -0.0624
     38 O          22.4403   41.4356  -11.2400 O.3     1  UNL1       -0.3899
     39 H          25.2603   41.4971  -11.6268 H       1  UNL1        0.0392
     40 H          23.7145   40.1505  -10.3490 H       1  UNL1        0.0612
     41 H          22.8470   40.5677   -8.0460 H       1  UNL1        0.0524
     42 H          19.7422   40.1737   -7.8738 H       1  UNL1        0.0299
     43 H          32.7878   42.4166  -13.0341 H       1  UNL1        0.0230
     44 H          31.4307   41.5451  -13.7554 H       1  UNL1        0.0230
     45 H          31.8038   41.3502  -12.0404 H       1  UNL1        0.0230
     46 H          31.1936   43.7370  -11.5930 H       1  UNL1        0.0263
     47 H          30.9365   43.9936  -13.3012 H       1  UNL1        0.0263
     48 H          28.7829   43.7692  -12.3378 H       1  UNL1        0.0280
     49 H          29.0537   42.3259  -13.2752 H       1  UNL1        0.0280
     50 H          29.5516   41.0380  -11.1832 H       1  UNL1        0.0462
     51 H          29.3831   42.4942  -10.2187 H       1  UNL1        0.0462
     52 H          27.2757   40.9431  -11.5821 H       1  UNL1        0.1487
     53 H          25.4789   43.7070  -12.7346 H       1  UNL1        0.0237
     54 H          24.7582   44.4933  -11.3354 H       1  UNL1        0.0237
     55 H          23.8082   43.3948  -12.3219 H       1  UNL1        0.0237
     56 H          24.8450   41.8199   -8.9392 H       1  UNL1        0.0298
     57 H          23.8129   43.0866   -9.5190 H       1  UNL1        0.0298
     58 H          20.8205   39.7253  -10.1502 H       1  UNL1        0.0286
     59 H          21.9475   38.6742   -9.3576 H       1  UNL1        0.0286
     60 H          18.7970   38.7303   -9.6506 H       1  UNL1        0.0268
     61 H          19.6122   37.3594   -8.9777 H       1  UNL1        0.0268
     62 H          17.1965   37.4733   -8.3840 H       1  UNL1        0.0265
     63 H          18.2198   37.3907   -6.9915 H       1  UNL1        0.0265
     64 H          16.3904   38.9538   -6.6037 H       1  UNL1        0.0266
     65 H          17.9199   39.7497   -6.5083 H       1  UNL1        0.0266
     66 H          17.5367   40.5936   -8.9143 H       1  UNL1        0.0280
     67 H          15.9783   39.8419   -8.8756 H       1  UNL1        0.0280
     68 H          15.2423   41.3105   -7.0194 H       1  UNL1        0.0464
     69 H          16.8107   41.9859   -6.8402 H       1  UNL1        0.0464
     70 H          18.7994   42.2818   -8.7070 H       1  UNL1        0.0633
     71 H          21.0466   44.9624   -6.2135 H       1  UNL1        0.0662
     72 H          17.0072   45.9454   -7.3691 H       1  UNL1        0.0662
     73 H          20.0760   48.3743   -5.2400 H       1  UNL1        0.0694
     74 H          20.9531   46.8720   -5.2401 H       1  UNL1        0.0694
     75 H          21.8692   48.4902   -6.9425 H       1  UNL1        0.0262
     76 H          20.2921   48.5959   -7.7181 H       1  UNL1        0.0262
     77 H          21.2141   47.0967   -7.7847 H       1  UNL1        0.0262
     78 H          20.8391   42.2586   -9.4515 H       1  UNL1        0.1494
     79 H          14.5926   42.4742  -10.3206 H       1  UNL1        0.0462
     80 H          14.1325   41.3661   -9.0719 H       1  UNL1        0.0462
     81 H          12.4217   43.1116   -9.1967 H       1  UNL1        0.0245
     82 H          13.6077   44.3943   -9.0254 H       1  UNL1        0.0245
     83 H          13.2769   43.3344   -7.6634 H       1  UNL1        0.0245
     84 H          21.3888   37.7503   -6.9998 H       1  UNL1        0.0232
     85 H          20.1212   38.5424   -6.0679 H       1  UNL1        0.0232
     86 H          21.6036   39.4001   -6.4201 H       1  UNL1        0.0232
     87 H          22.9788   41.2656  -12.0063 H       1  UNL1        0.2099
@<TRIPOS>BOND
     1     1     2    1
     2     1    43    1
     3     1    44    1
     4     1    45    1
     5     2     3    1
     6     2    46    1
     7     2    47    1
     8     3     4    1
     9     3    48    1
    10     3    49    1
    11     4     5    1
    12     4    50    1
    13     4    51    1
    14     5     6   am
    15     5    52    1
    16     6     7    2
    17     6     8    1
    18     8    39    1
    19     8     9    1
    20     8    10    1
    21     9    53    1
    22     9    54    1
    23     9    55    1
    24    10    11    1
    25    10    56    1
    26    10    57    1
    27    11    40    1
    28    11    12    1
    29    11    38    1
    30    12    41    1
    31    12    34    1
    32    12    13    1
    33    13    14    1
    34    13    58    1
    35    13    59    1
    36    14    42    1
    37    14    15    1
    38    14    37    1
    39    15    16    1
    40    15    60    1
    41    15    61    1
    42    16    17    1
    43    16    62    1
    44    16    63    1
    45    17    18    1
    46    17    64    1
    47    17    65    1
    48    18    19    1
    49    18    66    1
    50    18    67    1
    51    19    20    1
    52    19    68    1
    53    19    69    1
    54    20    21   am
    55    20    35    1
    56    21    22    2
    57    21    23    1
    58    23    28   ar
    59    23    24   ar
    60    24    25   ar
    61    24    70    1
    62    25    26   ar
    63    25    32    1
    64    26    27   ar
    65    26    71    1
    66    27    28   ar
    67    27    29    1
    68    28    72    1
    69    29    30    1
    70    30    31    1
    71    30    73    1
    72    30    74    1
    73    31    75    1
    74    31    76    1
    75    31    77    1
    76    32    33    2
    77    32    34   am
    78    34    78    1
    79    35    36    1
    80    35    79    1
    81    35    80    1
    82    36    81    1
    83    36    82    1
    84    36    83    1
    85    37    84    1
    86    37    85    1
    87    37    86    1
    88    38    87    1
