@<TRIPOS>MOLECULE
BACE_7.smi:1
 99 103 0 0 0
SMALL
GASTEIGER
****
Structure written by MMmdl.
@<TRIPOS>ATOM
      1 C          18.2758   38.4111   -6.4257 C.3     1  UNL1       -0.0624
      2 C          18.3305   38.7362   -7.9274 C.3     1  UNL1       -0.0421
      3 C          17.3853   37.8213   -8.7422 C.3     1  UNL1       -0.0504
      4 C          15.9253   38.3123   -8.7262 C.3     1  UNL1       -0.0528
      5 C          15.6829   39.5303   -9.6399 C.3     1  UNL1       -0.0516
      6 C          14.4484   40.3440   -9.2209 C.3     1  UNL1       -0.0371
      7 C          14.1874   41.5846  -10.0959 C.3     1  UNL1        0.0156
      8 N          15.2680   42.5876   -9.9812 N.am    1  UNL1       -0.2907
      9 C          15.2744   43.4367   -8.9278 C.2     1  UNL1        0.2471
     10 O          14.2416   43.8672   -8.4135 O.2     1  UNL1       -0.2700
     11 C          16.6139   43.8548   -8.3956 C.ar    1  UNL1        0.0384
     12 C          16.8766   45.2123   -8.1241 C.ar    1  UNL1       -0.0373
     13 C          18.1260   45.6066   -7.6063 C.ar    1  UNL1        0.0383
     14 C          19.1269   44.6389   -7.3673 C.ar    1  UNL1       -0.0373
     15 C          18.8834   43.2766   -7.6383 C.ar    1  UNL1        0.0381
     16 C          17.6069   42.8916   -8.1060 C.ar    1  UNL1       -0.0375
     17 C          19.9582   42.2494   -7.3883 C.2     1  UNL1        0.2444
     18 O          20.8198   42.4258   -6.5303 O.2     1  UNL1       -0.2702
     19 N          19.9314   41.1800   -8.2009 N.am    1  UNL1       -0.3058
     20 C          20.6684   39.9258   -8.0121 C.3     1  UNL1        0.0545
     21 C          19.7749   38.7498   -8.4917 C.3     1  UNL1       -0.0293
     22 C          22.0669   39.9143   -8.7180 C.3     1  UNL1        0.1130
     23 C          22.2835   40.9867   -9.8209 C.3     1  UNL1       -0.0050
     24 N          23.6303   40.9497  -10.4358 N.4     1  UNL1        0.2321
     25 C          24.6520   41.7404   -9.7155 C.3     1  UNL1       -0.0076
     26 C          25.6417   42.3449  -10.6873 C.ar    1  UNL1       -0.0027
     27 C          25.2603   43.4680  -11.4522 C.ar    1  UNL1       -0.0535
     28 C          26.1726   44.0486  -12.3507 C.ar    1  UNL1       -0.0611
     29 C          27.4689   43.5180  -12.4781 C.ar    1  UNL1       -0.0583
     30 C          27.8601   42.3966  -11.7192 C.ar    1  UNL1       -0.0444
     31 C          26.9388   41.8091  -10.8243 C.ar    1  UNL1       -0.0501
     32 C          29.2671   41.8300  -11.8530 C.3     1  UNL1       -0.0215
     33 C          30.3251   42.8228  -11.3550 C.3     1  UNL1       -0.0586
     34 C          29.5543   41.3617  -13.2899 C.3     1  UNL1       -0.0586
     35 O          23.0687   40.0101   -7.7231 O.3     1  UNL1       -0.3847
     36 C          18.3671   47.0123   -7.3119 C.ar    1  UNL1        0.2271
     37 N          17.6726   48.0718   -7.7246 N.ar    1  UNL1       -0.2175
     38 C          18.3327   49.1666   -7.1891 C.ar    1  UNL1        0.0663
     39 C          19.3834   48.7051   -6.4402 C.ar    1  UNL1        0.1125
     40 O          19.4185   47.3418   -6.5102 O.2     1  UNL1       -0.4436
     41 C          15.9520   42.9529  -11.2466 C.3     1  UNL1        0.0487
     42 C          17.4804   42.7260  -11.2520 C.3     1  UNL1       -0.0422
     43 C          15.4966   44.3180  -11.7890 C.ar    1  UNL1       -0.0273
     44 C          16.4054   45.3718  -12.0493 C.ar    1  UNL1       -0.0568
     45 C          15.9500   46.5984  -12.5690 C.ar    1  UNL1       -0.0614
     46 C          14.5835   46.7895  -12.8402 C.ar    1  UNL1       -0.0617
     47 C          13.6644   45.7586  -12.5675 C.ar    1  UNL1       -0.0614
     48 C          14.1202   44.5355  -12.0402 C.ar    1  UNL1       -0.0568
     49 H          17.9297   39.7380   -8.0120 H       1  UNL1        0.0299
     50 H          20.8158   39.7838   -6.9385 H       1  UNL1        0.0526
     51 H          22.2175   38.9318   -9.1713 H       1  UNL1        0.0666
     52 H          15.6218   42.2466  -12.0010 H       1  UNL1        0.0548
     53 H          18.5602   37.3802   -6.2206 H       1  UNL1        0.0232
     54 H          17.2668   38.5493   -6.0388 H       1  UNL1        0.0232
     55 H          18.9270   39.0644   -5.8455 H       1  UNL1        0.0232
     56 H          17.7079   37.7522   -9.7811 H       1  UNL1        0.0268
     57 H          17.4344   36.8065   -8.3447 H       1  UNL1        0.0268
     58 H          15.2603   37.5061   -9.0340 H       1  UNL1        0.0265
     59 H          15.6402   38.5437   -7.6986 H       1  UNL1        0.0265
     60 H          16.5489   40.1865   -9.6294 H       1  UNL1        0.0266
     61 H          15.5812   39.1981  -10.6734 H       1  UNL1        0.0266
     62 H          13.5711   39.6971   -9.2541 H       1  UNL1        0.0280
     63 H          14.5465   40.6473   -8.1780 H       1  UNL1        0.0280
     64 H          14.0228   41.2510  -11.1208 H       1  UNL1        0.0465
     65 H          13.2330   42.0254   -9.8012 H       1  UNL1        0.0465
     66 H          16.1090   45.9508   -8.3120 H       1  UNL1        0.0633
     67 H          20.0876   44.9431   -6.9803 H       1  UNL1        0.0633
     68 H          17.3769   41.8500   -8.2675 H       1  UNL1        0.0633
     69 H          19.1945   41.1619   -8.8897 H       1  UNL1        0.1494
     70 H          20.2577   37.8008   -8.2539 H       1  UNL1        0.0286
     71 H          19.7259   38.7933   -9.5810 H       1  UNL1        0.0286
     72 H          21.5514   40.8121  -10.6132 H       1  UNL1        0.0840
     73 H          22.0856   41.9933   -9.4442 H       1  UNL1        0.0840
     74 H          23.9529   39.9928  -10.4956 H       1  UNL1        0.2018
     75 H          24.1996   42.5526   -9.1439 H       1  UNL1        0.0866
     76 H          25.1658   41.1026   -9.0002 H       1  UNL1        0.0866
     77 H          24.2675   43.8859  -11.3543 H       1  UNL1        0.0622
     78 H          25.8780   44.9041  -12.9389 H       1  UNL1        0.0618
     79 H          28.1602   43.9816  -13.1612 H       1  UNL1        0.0620
     80 H          27.2364   40.9509  -10.2334 H       1  UNL1        0.0625
     81 H          29.3340   40.9496  -11.2142 H       1  UNL1        0.0343
     82 H          30.1362   43.1110  -10.3216 H       1  UNL1        0.0235
     83 H          30.3365   43.7318  -11.9558 H       1  UNL1        0.0235
     84 H          31.3243   42.3884  -11.3981 H       1  UNL1        0.0235
     85 H          28.8612   40.5760  -13.5930 H       1  UNL1        0.0235
     86 H          30.5583   40.9547  -13.3859 H       1  UNL1        0.0235
     87 H          29.4698   42.1796  -14.0104 H       1  UNL1        0.0235
     88 H          23.7819   39.4250   -7.9494 H       1  UNL1        0.2101
     89 H          17.9983   50.1774   -7.3664 H       1  UNL1        0.0862
     90 H          20.1465   49.1809   -5.8395 H       1  UNL1        0.1046
     91 H          17.8760   42.7929  -12.2659 H       1  UNL1        0.0251
     92 H          17.7351   41.7339  -10.8791 H       1  UNL1        0.0251
     93 H          18.0216   43.4583  -10.6542 H       1  UNL1        0.0251
     94 H          17.4627   45.2584  -11.8639 H       1  UNL1        0.0621
     95 H          16.6554   47.3928  -12.7709 H       1  UNL1        0.0618
     96 H          14.2423   47.7241  -13.2612 H       1  UNL1        0.0618
     97 H          12.6143   45.9002  -12.7827 H       1  UNL1        0.0618
     98 H          13.4049   43.7455  -11.8543 H       1  UNL1        0.0621
     99 H          23.5776   41.3116  -11.3801 H       1  UNL1        0.2018
@<TRIPOS>BOND
     1     1     2    1
     2     1    53    1
     3     1    54    1
     4     1    55    1
     5     2    49    1
     6     2    21    1
     7     2     3    1
     8     3     4    1
     9     3    56    1
    10     3    57    1
    11     4     5    1
    12     4    58    1
    13     4    59    1
    14     5     6    1
    15     5    60    1
    16     5    61    1
    17     6     7    1
    18     6    62    1
    19     6    63    1
    20     7     8    1
    21     7    64    1
    22     7    65    1
    23     8     9   am
    24     8    41    1
    25     9    10    2
    26     9    11    1
    27    11    16   ar
    28    11    12   ar
    29    12    13   ar
    30    12    66    1
    31    13    14   ar
    32    13    36    1
    33    14    15   ar
    34    14    67    1
    35    15    16   ar
    36    15    17    1
    37    16    68    1
    38    17    18    2
    39    17    19   am
    40    19    20    1
    41    19    69    1
    42    20    50    1
    43    20    21    1
    44    20    22    1
    45    21    70    1
    46    21    71    1
    47    22    51    1
    48    22    23    1
    49    22    35    1
    50    23    24    1
    51    23    72    1
    52    23    73    1
    53    24    25    1
    54    24    74    1
    55    24    99    1
    56    25    26    1
    57    25    75    1
    58    25    76    1
    59    26    31   ar
    60    26    27   ar
    61    27    28   ar
    62    27    77    1
    63    28    29   ar
    64    28    78    1
    65    29    30   ar
    66    29    79    1
    67    30    31   ar
    68    30    32    1
    69    31    80    1
    70    32    33    1
    71    32    34    1
    72    32    81    1
    73    33    82    1
    74    33    83    1
    75    33    84    1
    76    34    85    1
    77    34    86    1
    78    34    87    1
    79    35    88    1
    80    36    40   ar
    81    36    37   ar
    82    37    38   ar
    83    38    39   ar
    84    38    89    1
    85    39    40   ar
    86    39    90    1
    87    41    52    1
    88    41    42    1
    89    41    43    1
    90    42    91    1
    91    42    92    1
    92    42    93    1
    93    43    48   ar
    94    43    44   ar
    95    44    45   ar
    96    44    94    1
    97    45    46   ar
    98    45    95    1
    99    46    47   ar
   100    46    96    1
   101    47    48   ar
   102    47    97    1
   103    48    98    1
