@<TRIPOS>MOLECULE
BACE_3.smi:1
 85 86 0 0 0
SMALL
GASTEIGER
****
Structure written by MMmdl.
@<TRIPOS>ATOM
      1 C          21.6644   39.3113   -8.4748 C.ar    1  UNL1       -0.0573
      2 C          22.7076   40.2543   -8.4771 C.ar    1  UNL1       -0.0612
      3 C          22.8579   41.1402   -7.3948 C.ar    1  UNL1       -0.0583
      4 C          21.9734   41.0842   -6.2970 C.ar    1  UNL1       -0.0445
      5 C          22.1650   42.0242   -5.1132 C.3     1  UNL1       -0.0215
      6 C          20.9128   42.8761   -4.8433 C.3     1  UNL1       -0.0586
      7 C          22.6030   41.2557   -3.8590 C.3     1  UNL1       -0.0586
      8 C          20.9245   40.1402   -6.3036 C.ar    1  UNL1       -0.0539
      9 C          20.7655   39.2586   -7.3912 C.ar    1  UNL1       -0.0333
     10 C          19.6356   38.2531   -7.4023 C.3     1  UNL1        0.0214
     11 N          18.3511   38.8656   -7.7020 N.3     1  UNL1       -0.3071
     12 C          17.4487   37.9816   -8.4402 C.3     1  UNL1        0.0521
     13 C          16.0260   38.5761   -8.5451 C.3     1  UNL1        0.1962
     14 O          15.4923   38.5500   -7.2403 O.3     1  UNL1       -0.3623
     15 O          15.2794   37.7536   -9.4111 O.3     1  UNL1       -0.3623
     16 C          15.9415   40.0395   -9.0704 C.3     1  UNL1        0.0782
     17 N          16.8270   40.2513  -10.2207 N.am    1  UNL1       -0.3058
     18 C          17.8121   41.1622  -10.2843 C.2     1  UNL1        0.2337
     19 O          18.0950   41.9124   -9.3506 O.2     1  UNL1       -0.2738
     20 C          18.5595   41.2724  -11.6285 C.3     1  UNL1        0.0991
     21 C          19.6615   40.1900  -11.6709 C.3     1  UNL1       -0.0379
     22 C          14.4854   40.4964   -9.3697 C.3     1  UNL1       -0.0269
     23 C          14.1964   42.0109   -9.5632 C.3     1  UNL1       -0.0420
     24 C          14.6980   42.5368  -10.9164 C.3     1  UNL1       -0.0624
     25 C          14.5714   42.8699   -8.3263 C.3     1  UNL1       -0.0504
     26 C          14.6248   44.3974   -8.5295 C.3     1  UNL1       -0.0528
     27 C          16.0707   44.8755   -8.7365 C.3     1  UNL1       -0.0530
     28 C          16.1828   46.3415   -9.1696 C.3     1  UNL1       -0.0531
     29 C          17.6339   46.8457   -9.2849 C.3     1  UNL1       -0.0530
     30 C          18.5301   46.0185  -10.2214 C.3     1  UNL1       -0.0526
     31 C          18.0857   46.0364  -11.6944 C.3     1  UNL1       -0.0448
     32 C          18.8592   45.0430  -12.5772 C.3     1  UNL1        0.0242
     33 C          18.3595   43.5951  -12.4260 C.2     1  UNL1        0.2159
     34 O          17.2606   43.3474  -12.9235 O.2     1  UNL1       -0.2756
     35 N          19.1089   42.6434  -11.8019 N.am    1  UNL1       -0.2932
     36 C          20.4011   42.9480  -11.1564 C.3     1  UNL1        0.0039
     37 H          16.3137   40.6412   -8.2427 H       1  UNL1        0.0552
     38 H          17.8631   41.0379  -12.4371 H       1  UNL1        0.0594
     39 H          13.1111   42.0812   -9.6436 H       1  UNL1        0.0299
     40 H          21.5548   38.6357   -9.3093 H       1  UNL1        0.0621
     41 H          23.3974   40.2920   -9.3096 H       1  UNL1        0.0618
     42 H          23.6626   41.8594   -7.4081 H       1  UNL1        0.0620
     43 H          22.9713   42.7130   -5.3661 H       1  UNL1        0.0343
     44 H          20.6245   43.4386   -5.7296 H       1  UNL1        0.0235
     45 H          21.0941   43.5917   -4.0413 H       1  UNL1        0.0235
     46 H          20.0601   42.2628   -4.5481 H       1  UNL1        0.0235
     47 H          23.5294   40.7091   -4.0372 H       1  UNL1        0.0235
     48 H          21.8501   40.5349   -3.5421 H       1  UNL1        0.0235
     49 H          22.7780   41.9356   -3.0235 H       1  UNL1        0.0235
     50 H          20.2364   40.0896   -5.4731 H       1  UNL1        0.0623
     51 H          19.5881   37.7492   -6.4386 H       1  UNL1        0.0473
     52 H          19.8739   37.4936   -8.1472 H       1  UNL1        0.0473
     53 H          17.8835   39.1140   -6.8338 H       1  UNL1        0.1224
     54 H          17.3995   37.0039   -7.9583 H       1  UNL1        0.0477
     55 H          17.8484   37.8086   -9.4398 H       1  UNL1        0.0477
     56 H          15.6598   37.6906   -6.8333 H       1  UNL1        0.2128
     57 H          14.3944   38.0923   -9.4158 H       1  UNL1        0.2128
     58 H          16.6818   39.6474  -11.0154 H       1  UNL1        0.1492
     59 H          19.2209   39.1936  -11.6826 H       1  UNL1        0.0252
     60 H          20.3279   40.2187  -10.8100 H       1  UNL1        0.0252
     61 H          20.2696   40.2832  -12.5712 H       1  UNL1        0.0252
     62 H          14.1006   39.9547  -10.2338 H       1  UNL1        0.0287
     63 H          13.8816   40.1480   -8.5375 H       1  UNL1        0.0287
     64 H          14.1553   43.4234  -11.2362 H       1  UNL1        0.0232
     65 H          14.5628   41.7826  -11.6817 H       1  UNL1        0.0232
     66 H          15.7473   42.7955  -10.8912 H       1  UNL1        0.0232
     67 H          13.8423   42.6590   -7.5470 H       1  UNL1        0.0268
     68 H          15.5193   42.5579   -7.8933 H       1  UNL1        0.0268
     69 H          14.2305   44.8893   -7.6403 H       1  UNL1        0.0265
     70 H          13.9782   44.6997   -9.3512 H       1  UNL1        0.0265
     71 H          16.6311   44.7227   -7.8124 H       1  UNL1        0.0265
     72 H          16.5496   44.2469   -9.4819 H       1  UNL1        0.0265
     73 H          15.6605   46.9519   -8.4405 H       1  UNL1        0.0265
     74 H          15.6641   46.4897  -10.1158 H       1  UNL1        0.0265
     75 H          17.6284   47.8843   -9.6171 H       1  UNL1        0.0265
     76 H          18.0810   46.8502   -8.2899 H       1  UNL1        0.0265
     77 H          18.5897   44.9953   -9.8530 H       1  UNL1        0.0265
     78 H          19.5496   46.4030  -10.1625 H       1  UNL1        0.0265
     79 H          17.0205   45.8255  -11.7754 H       1  UNL1        0.0270
     80 H          18.2191   47.0435  -12.0882 H       1  UNL1        0.0270
     81 H          19.9316   45.1532  -12.4358 H       1  UNL1        0.0358
     82 H          18.6760   45.3195  -13.6146 H       1  UNL1        0.0358
     83 H          20.5774   42.3163  -10.2873 H       1  UNL1        0.0429
     84 H          20.4703   43.9588  -10.7652 H       1  UNL1        0.0429
     85 H          21.2282   42.7910  -11.8482 H       1  UNL1        0.0429
@<TRIPOS>BOND
     1     1     9   ar
     2     1     2   ar
     3     1    40    1
     4     2     3   ar
     5     2    41    1
     6     3     4   ar
     7     3    42    1
     8     4     5    1
     9     4     8   ar
    10     5     6    1
    11     5     7    1
    12     5    43    1
    13     6    44    1
    14     6    45    1
    15     6    46    1
    16     7    47    1
    17     7    48    1
    18     7    49    1
    19     8     9   ar
    20     8    50    1
    21     9    10    1
    22    10    11    1
    23    10    51    1
    24    10    52    1
    25    11    12    1
    26    11    53    1
    27    12    13    1
    28    12    54    1
    29    12    55    1
    30    13    14    1
    31    13    15    1
    32    13    16    1
    33    14    56    1
    34    15    57    1
    35    16    37    1
    36    16    17    1
    37    16    22    1
    38    17    18   am
    39    17    58    1
    40    18    19    2
    41    18    20    1
    42    20    38    1
    43    20    35    1
    44    20    21    1
    45    21    59    1
    46    21    60    1
    47    21    61    1
    48    22    23    1
    49    22    62    1
    50    22    63    1
    51    23    39    1
    52    23    24    1
    53    23    25    1
    54    24    64    1
    55    24    65    1
    56    24    66    1
    57    25    26    1
    58    25    67    1
    59    25    68    1
    60    26    27    1
    61    26    69    1
    62    26    70    1
    63    27    28    1
    64    27    71    1
    65    27    72    1
    66    28    29    1
    67    28    73    1
    68    28    74    1
    69    29    30    1
    70    29    75    1
    71    29    76    1
    72    30    31    1
    73    30    77    1
    74    30    78    1
    75    31    32    1
    76    31    79    1
    77    31    80    1
    78    32    33    1
    79    32    81    1
    80    32    82    1
    81    33    34    2
    82    33    35   am
    83    35    36    1
    84    36    83    1
    85    36    84    1
    86    36    85    1
