@<TRIPOS>MOLECULE
BACE_5.smi:1
 79 80 0 0 0
SMALL
GASTEIGER
****
Structure written by MMmdl.
@<TRIPOS>ATOM
      1 C          29.8061   41.6223  -12.8745 C.3     1  UNL1       -0.0649
      2 C          29.4607   43.1181  -12.8149 C.3     1  UNL1       -0.0504
      3 C          28.8972   43.5839  -11.4580 C.3     1  UNL1       -0.0089
      4 C          27.5729   42.9540  -11.1117 C.ar    1  UNL1        0.0631
      5 C          26.2668   43.4830  -11.3089 C.ar    1  UNL1       -0.0168
      6 C          25.4312   42.4956  -10.8653 C.ar    1  UNL1        0.0501
      7 N          26.2391   41.4705  -10.4389 N.ar    1  UNL1       -0.2801
      8 N          27.5464   41.7528  -10.5585 N.ar    1  UNL1       -0.1786
      9 C          23.9423   42.4084  -10.8471 C.3     1  UNL1        0.0380
     10 N          23.3578   42.6910   -9.5348 N.3     1  UNL1       -0.3081
     11 C          23.4194   41.6026   -8.5568 C.3     1  UNL1        0.0240
     12 C          22.5618   40.3630   -8.9141 C.3     1  UNL1        0.0859
     13 C          21.0277   40.5754   -8.7547 C.3     1  UNL1        0.0505
     14 C          20.2210   39.2428   -8.7955 C.3     1  UNL1       -0.0295
     15 C          18.7116   39.3630   -8.4601 C.3     1  UNL1       -0.0421
     16 C          17.8462   39.5487   -9.7260 C.3     1  UNL1       -0.0504
     17 C          16.4247   40.0483   -9.4276 C.3     1  UNL1       -0.0528
     18 C          15.6704   40.4528  -10.7057 C.3     1  UNL1       -0.0530
     19 C          14.2555   41.0055  -10.4682 C.3     1  UNL1       -0.0510
     20 C          14.1498   42.2641   -9.5862 C.3     1  UNL1       -0.0294
     21 C          15.1352   43.3868   -9.9335 C.3     1  UNL1        0.0483
     22 O          15.0022   43.7839  -11.2980 O.3     1  UNL1       -0.3706
     23 C          15.9759   44.7231  -11.7564 C.3     1  UNL1        0.1238
     24 C          17.3573   44.0512  -11.8912 C.2     1  UNL1        0.2417
     25 O          17.5381   43.3499  -12.8879 O.2     1  UNL1       -0.2731
     26 N          18.2860   44.2019  -10.9088 N.am    1  UNL1       -0.2914
     27 C          19.5494   43.4236  -10.9175 C.3     1  UNL1        0.0991
     28 C          19.8235   42.5946   -9.6446 C.2     1  UNL1        0.2336
     29 O          19.4030   42.9487   -8.5467 O.2     1  UNL1       -0.2738
     30 N          20.5646   41.4851   -9.8092 N.am    1  UNL1       -0.3084
     31 C          20.7176   44.3524  -11.2711 C.3     1  UNL1       -0.0379
     32 C          18.1395   45.2419   -9.8761 C.3     1  UNL1        0.0040
     33 C          18.2289   38.1550   -7.6363 C.3     1  UNL1       -0.0624
     34 O          23.0114   39.3519   -8.0401 O.3     1  UNL1       -0.3887
     35 H          25.9215   40.5833  -10.0706 H       1  UNL1        0.1886
     36 H          22.7792   40.0000   -9.9184 H       1  UNL1        0.0624
     37 H          20.8620   41.0265   -7.7737 H       1  UNL1        0.0524
     38 H          18.5874   40.2414   -7.8204 H       1  UNL1        0.0299
     39 H          19.5123   42.6841  -11.7210 H       1  UNL1        0.0594
     40 H          30.2623   41.3638  -13.8287 H       1  UNL1        0.0230
     41 H          28.9186   40.9986  -12.7659 H       1  UNL1        0.0230
     42 H          30.5074   41.3520  -12.0869 H       1  UNL1        0.0230
     43 H          28.7559   43.3579  -13.6109 H       1  UNL1        0.0266
     44 H          30.3648   43.6889  -13.0289 H       1  UNL1        0.0266
     45 H          28.7823   44.6715  -11.4776 H       1  UNL1        0.0329
     46 H          29.6223   43.3764  -10.6703 H       1  UNL1        0.0329
     47 H          25.9818   44.4360  -11.7294 H       1  UNL1        0.0654
     48 H          23.6158   41.4460  -11.2377 H       1  UNL1        0.0489
     49 H          23.5751   43.1462  -11.5583 H       1  UNL1        0.0489
     50 H          22.3919   42.9885   -9.6444 H       1  UNL1        0.1224
     51 H          23.1087   41.9782   -7.5822 H       1  UNL1        0.0450
     52 H          24.4592   41.3021   -8.4267 H       1  UNL1        0.0450
     53 H          20.3563   38.7405   -9.7581 H       1  UNL1        0.0286
     54 H          20.6619   38.5644   -8.0628 H       1  UNL1        0.0286
     55 H          18.3227   40.2641  -10.3945 H       1  UNL1        0.0268
     56 H          17.8081   38.6138  -10.2879 H       1  UNL1        0.0268
     57 H          16.4845   40.8991   -8.7491 H       1  UNL1        0.0265
     58 H          15.8596   39.2775   -8.9026 H       1  UNL1        0.0265
     59 H          16.2593   41.1776  -11.2736 H       1  UNL1        0.0265
     60 H          15.5843   39.5734  -11.3388 H       1  UNL1        0.0265
     61 H          13.6566   40.2144  -10.0168 H       1  UNL1        0.0266
     62 H          13.7946   41.2170  -11.4340 H       1  UNL1        0.0266
     63 H          13.1286   42.6459   -9.6378 H       1  UNL1        0.0287
     64 H          14.3079   41.9768   -8.5454 H       1  UNL1        0.0287
     65 H          16.1393   43.0351   -9.7094 H       1  UNL1        0.0560
     66 H          14.9550   44.2459   -9.2868 H       1  UNL1        0.0560
     67 H          15.9750   45.6157  -11.1317 H       1  UNL1        0.0657
     68 H          15.6810   45.0600  -12.7527 H       1  UNL1        0.0657
     69 H          20.8574   41.2559  -10.7477 H       1  UNL1        0.1491
     70 H          21.5657   43.7837  -11.6454 H       1  UNL1        0.0252
     71 H          21.0577   44.9285  -10.4089 H       1  UNL1        0.0252
     72 H          20.4400   45.0675  -12.0395 H       1  UNL1        0.0252
     73 H          19.0508   45.3829   -9.2961 H       1  UNL1        0.0429
     74 H          17.3481   44.9874   -9.1703 H       1  UNL1        0.0429
     75 H          17.9150   46.2096  -10.3248 H       1  UNL1        0.0429
     76 H          17.1898   38.2615   -7.3309 H       1  UNL1        0.0232
     77 H          18.8086   38.0400   -6.7189 H       1  UNL1        0.0232
     78 H          18.3157   37.2278   -8.2022 H       1  UNL1        0.0232
     79 H          23.7584   38.9416   -8.4598 H       1  UNL1        0.2099
@<TRIPOS>BOND
     1     1     2    1
     2     1    40    1
     3     1    41    1
     4     1    42    1
     5     2     3    1
     6     2    43    1
     7     2    44    1
     8     3    45    1
     9     3    46    1
    10     3     4    1
    11     4     8   ar
    12     4     5   ar
    13     5     6   ar
    14     5    47    1
    15     6     7   ar
    16     6     9    1
    17     7     8   ar
    18     7    35    1
    19     9    10    1
    20     9    48    1
    21     9    49    1
    22    10    11    1
    23    10    50    1
    24    11    12    1
    25    11    51    1
    26    11    52    1
    27    12    36    1
    28    12    13    1
    29    12    34    1
    30    13    37    1
    31    13    30    1
    32    13    14    1
    33    14    15    1
    34    14    53    1
    35    14    54    1
    36    15    38    1
    37    15    16    1
    38    15    33    1
    39    16    17    1
    40    16    55    1
    41    16    56    1
    42    17    18    1
    43    17    57    1
    44    17    58    1
    45    18    19    1
    46    18    59    1
    47    18    60    1
    48    19    20    1
    49    19    61    1
    50    19    62    1
    51    20    21    1
    52    20    63    1
    53    20    64    1
    54    21    22    1
    55    21    65    1
    56    21    66    1
    57    22    23    1
    58    23    24    1
    59    23    67    1
    60    23    68    1
    61    24    25    2
    62    24    26   am
    63    26    27    1
    64    26    32    1
    65    27    39    1
    66    27    28    1
    67    27    31    1
    68    28    29    2
    69    28    30   am
    70    30    69    1
    71    31    70    1
    72    31    71    1
    73    31    72    1
    74    32    73    1
    75    32    74    1
    76    32    75    1
    77    33    76    1
    78    33    77    1
    79    33    78    1
    80    34    79    1
