@<TRIPOS>MOLECULE
BACE_5.smi:1
 79 80 0 0 0
SMALL
GASTEIGER
****
Structure written by MMmdl.
@<TRIPOS>ATOM
      1 C          22.4571   43.8948    1.3220 C.3     1  UNL1       -0.0649
      2 C          21.4985   44.4126    0.2451 C.3     1  UNL1       -0.0505
      3 C          20.4333   43.3878   -0.1946 C.3     1  UNL1       -0.0112
      4 C          20.7739   42.5499   -1.3896 C.ar    1  UNL1        0.0364
      5 C          21.7287   42.6590   -2.3634 C.ar    1  UNL1       -0.0168
      6 C          21.4924   41.5581   -3.2363 C.ar    1  UNL1        0.0768
      7 N          20.4603   40.8273   -2.8388 N.ar    1  UNL1       -0.1774
      8 N          20.0451   41.4289   -1.7104 N.ar    1  UNL1       -0.2813
      9 C          22.2566   41.2094   -4.4910 C.3     1  UNL1        0.0403
     10 N          21.7049   40.0464   -5.1886 N.3     1  UNL1       -0.3080
     11 C          22.1850   39.7967   -6.5491 C.3     1  UNL1        0.0240
     12 C          21.7371   40.8615   -7.5773 C.3     1  UNL1        0.0859
     13 C          20.2050   40.9771   -7.7754 C.3     1  UNL1        0.0505
     14 C          19.5379   39.7222   -8.4019 C.3     1  UNL1       -0.0295
     15 C          18.1985   39.3234   -7.7401 C.3     1  UNL1       -0.0421
     16 C          17.3629   38.3617   -8.6155 C.3     1  UNL1       -0.0504
     17 C          16.7665   38.9589   -9.9063 C.3     1  UNL1       -0.0528
     18 C          15.7462   40.0829   -9.6607 C.3     1  UNL1       -0.0530
     19 C          15.0127   40.5137  -10.9435 C.3     1  UNL1       -0.0510
     20 C          13.9253   41.5750  -10.6948 C.3     1  UNL1       -0.0294
     21 C          14.4797   42.9763  -10.4187 C.3     1  UNL1        0.0483
     22 O          14.9798   43.5073  -11.6399 O.3     1  UNL1       -0.3706
     23 C          15.7701   44.6814  -11.5106 C.3     1  UNL1        0.1238
     24 C          17.1884   44.3041  -11.0482 C.2     1  UNL1        0.2417
     25 O          17.8678   43.6507  -11.8433 O.2     1  UNL1       -0.2731
     26 N          17.6407   44.6768   -9.8200 N.am    1  UNL1       -0.2914
     27 C          18.9996   44.2676   -9.3801 C.3     1  UNL1        0.0991
     28 C          18.9467   43.0336   -8.4613 C.2     1  UNL1        0.2336
     29 O          18.0401   42.8960   -7.6402 O.2     1  UNL1       -0.2738
     30 N          19.9589   42.1646   -8.5913 N.am    1  UNL1       -0.3084
     31 C          19.7245   45.4133   -8.6373 C.3     1  UNL1       -0.0379
     32 C          16.7918   45.4167   -8.8663 C.3     1  UNL1        0.0040
     33 C          18.4357   38.6783   -6.3623 C.3     1  UNL1       -0.0624
     34 O          22.3511   40.5576   -8.8152 O.3     1  UNL1       -0.3887
     35 H          19.2269   41.0942   -1.2069 H       1  UNL1        0.1885
     36 H          22.1284   41.8335   -7.2792 H       1  UNL1        0.0624
     37 H          19.7754   41.1626   -6.7889 H       1  UNL1        0.0524
     38 H          17.6111   40.2236   -7.5649 H       1  UNL1        0.0299
     39 H          19.6264   44.0261  -10.2424 H       1  UNL1        0.0594
     40 H          23.2593   44.6076    1.5034 H       1  UNL1        0.0230
     41 H          22.9116   42.9501    1.0337 H       1  UNL1        0.0230
     42 H          21.9414   43.7482    2.2689 H       1  UNL1        0.0230
     43 H          22.0600   44.7876   -0.6077 H       1  UNL1        0.0266
     44 H          20.9865   45.2820    0.6600 H       1  UNL1        0.0266
     45 H          19.5218   43.9263   -0.4400 H       1  UNL1        0.0328
     46 H          20.1633   42.7488    0.6466 H       1  UNL1        0.0328
     47 H          22.4886   43.4191   -2.4532 H       1  UNL1        0.0654
     48 H          23.3032   41.0278   -4.2492 H       1  UNL1        0.0489
     49 H          22.2459   42.0839   -5.1411 H       1  UNL1        0.0489
     50 H          20.6898   40.0770   -5.1346 H       1  UNL1        0.1224
     51 H          21.8537   38.8092   -6.8679 H       1  UNL1        0.0450
     52 H          23.2719   39.7506   -6.5396 H       1  UNL1        0.0450
     53 H          19.3982   39.9007   -9.4680 H       1  UNL1        0.0286
     54 H          20.2027   38.8598   -8.3545 H       1  UNL1        0.0286
     55 H          17.9732   37.4957   -8.8720 H       1  UNL1        0.0268
     56 H          16.5347   37.9700   -8.0208 H       1  UNL1        0.0268
     57 H          16.2643   38.1531  -10.4390 H       1  UNL1        0.0265
     58 H          17.5494   39.3076  -10.5764 H       1  UNL1        0.0265
     59 H          15.0123   39.7480   -8.9245 H       1  UNL1        0.0265
     60 H          16.2555   40.9396   -9.2229 H       1  UNL1        0.0265
     61 H          14.5366   39.6357  -11.3817 H       1  UNL1        0.0266
     62 H          15.7321   40.8747  -11.6791 H       1  UNL1        0.0266
     63 H          13.2604   41.6243  -11.5553 H       1  UNL1        0.0287
     64 H          13.3023   41.2569   -9.8578 H       1  UNL1        0.0287
     65 H          15.2427   42.9268   -9.6442 H       1  UNL1        0.0560
     66 H          13.6885   43.6276  -10.0503 H       1  UNL1        0.0560
     67 H          15.2667   45.4319  -10.9031 H       1  UNL1        0.0657
     68 H          15.8591   45.1243  -12.5023 H       1  UNL1        0.0657
     69 H          20.6592   42.3544   -9.2936 H       1  UNL1        0.1491
     70 H          20.7783   45.1696   -8.4979 H       1  UNL1        0.0252
     71 H          19.3184   45.6081   -7.6433 H       1  UNL1        0.0252
     72 H          19.6852   46.3420   -9.2087 H       1  UNL1        0.0252
     73 H          17.1727   45.3904   -7.8486 H       1  UNL1        0.0429
     74 H          15.7901   44.9967   -8.7944 H       1  UNL1        0.0429
     75 H          16.7118   46.4629   -9.1575 H       1  UNL1        0.0429
     76 H          17.4869   38.4248   -5.8899 H       1  UNL1        0.0232
     77 H          18.9554   39.3485   -5.6797 H       1  UNL1        0.0232
     78 H          19.0162   37.7594   -6.4437 H       1  UNL1        0.0232
     79 H          22.1081   39.6816   -9.0744 H       1  UNL1        0.2099
@<TRIPOS>BOND
     1     1     2    1
     2     1    40    1
     3     1    41    1
     4     1    42    1
     5     2     3    1
     6     2    43    1
     7     2    44    1
     8     3     4    1
     9     3    45    1
    10     3    46    1
    11     4     8   ar
    12     4     5   ar
    13     5     6   ar
    14     5    47    1
    15     6     7   ar
    16     6     9    1
    17     7     8   ar
    18     8    35    1
    19     9    10    1
    20     9    48    1
    21     9    49    1
    22    10    11    1
    23    10    50    1
    24    11    12    1
    25    11    51    1
    26    11    52    1
    27    12    36    1
    28    12    13    1
    29    12    34    1
    30    13    37    1
    31    13    30    1
    32    13    14    1
    33    14    15    1
    34    14    53    1
    35    14    54    1
    36    15    38    1
    37    15    16    1
    38    15    33    1
    39    16    17    1
    40    16    55    1
    41    16    56    1
    42    17    18    1
    43    17    57    1
    44    17    58    1
    45    18    19    1
    46    18    59    1
    47    18    60    1
    48    19    20    1
    49    19    61    1
    50    19    62    1
    51    20    21    1
    52    20    63    1
    53    20    64    1
    54    21    22    1
    55    21    65    1
    56    21    66    1
    57    22    23    1
    58    23    24    1
    59    23    67    1
    60    23    68    1
    61    24    25    2
    62    24    26   am
    63    26    27    1
    64    26    32    1
    65    27    39    1
    66    27    28    1
    67    27    31    1
    68    28    29    2
    69    28    30   am
    70    30    69    1
    71    31    70    1
    72    31    71    1
    73    31    72    1
    74    32    73    1
    75    32    74    1
    76    32    75    1
    77    33    76    1
    78    33    77    1
    79    33    78    1
    80    34    79    1
