@<TRIPOS>MOLECULE
BACE_2.smi:1
 96 98 0 0 0
SMALL
GASTEIGER
****
Structure written by MMmdl.
@<TRIPOS>ATOM
      1 C          20.4180   40.5382   -6.8326 C.ar    1  UNL1       -0.0192
      2 C          21.0711   41.2835   -5.8403 C.ar    1  UNL1       -0.0548
      3 C          22.2351   42.0150   -6.1540 C.ar    1  UNL1       -0.0441
      4 C          22.9652   42.8030   -5.0715 C.3     1  UNL1       -0.0215
      5 C          22.3016   44.1654   -4.8415 C.3     1  UNL1       -0.0586
      6 C          23.0919   42.0137   -3.7570 C.3     1  UNL1       -0.0586
      7 C          22.7190   42.0132   -7.4825 C.ar    1  UNL1       -0.0463
      8 C          22.0618   41.2654   -8.4896 C.ar    1  UNL1        0.0420
      9 C          20.8959   40.5284   -8.1531 C.ar    1  UNL1        0.1298
     10 C          22.5605   41.2603   -9.9346 C.3     1  UNL1        0.0105
     11 C          21.9681   40.0636  -10.6950 C.3     1  UNL1        0.0341
     12 C          20.4509   39.9222  -10.4461 C.3     1  UNL1        0.1105
     13 O          20.1920   39.7682   -9.0568 O.3     1  UNL1       -0.4855
     14 C          19.6364   41.1162  -10.9850 C.3     1  UNL1       -0.0250
     15 C          19.9189   38.6203  -11.0609 C.3     1  UNL1       -0.0250
     16 N          24.0418   41.2723  -10.0399 N.4     1  UNL1        0.2345
     17 C          24.6113   42.5804  -10.4452 C.3     1  UNL1       -0.0047
     18 C          26.1481   42.6109  -10.3411 C.3     1  UNL1        0.1130
     19 O          26.6751   41.7059  -11.2876 O.3     1  UNL1       -0.3847
     20 C          26.7556   44.0263  -10.5514 C.3     1  UNL1        0.0543
     21 N          28.1957   43.9978  -10.2812 N.am    1  UNL1       -0.3083
     22 C          28.7551   44.1108   -9.0664 C.2     1  UNL1        0.2336
     23 O          28.0639   44.3221   -8.0687 O.2     1  UNL1       -0.2738
     24 C          30.2865   43.8945   -8.9106 C.3     1  UNL1        0.0991
     25 C          30.8274   44.9236   -7.8864 C.3     1  UNL1       -0.0379
     26 C          26.4751   44.6519  -11.9388 C.3     1  UNL1       -0.0293
     27 C          27.0174   46.0935  -12.1471 C.3     1  UNL1       -0.0421
     28 C          26.4591   47.0802  -11.1036 C.3     1  UNL1       -0.0624
     29 C          26.7021   46.6184  -13.5686 C.3     1  UNL1       -0.0504
     30 C          27.5370   45.9770  -14.6912 C.3     1  UNL1       -0.0528
     31 C          28.9670   46.5330  -14.7863 C.3     1  UNL1       -0.0530
     32 C          29.8888   45.7413  -15.7354 C.3     1  UNL1       -0.0531
     33 C          30.1715   44.2855  -15.3154 C.3     1  UNL1       -0.0530
     34 C          30.8116   44.1819  -13.9245 C.3     1  UNL1       -0.0526
     35 C          31.2705   42.7657  -13.5476 C.3     1  UNL1       -0.0448
     36 C          32.0188   42.7138  -12.2002 C.3     1  UNL1        0.0242
     37 C          31.0924   42.7858  -10.9742 C.2     1  UNL1        0.2159
     38 O          30.4538   41.7671  -10.6983 O.2     1  UNL1       -0.2756
     39 N          31.0360   43.9086  -10.2017 N.am    1  UNL1       -0.2932
     40 C          31.7331   45.1445  -10.5901 C.3     1  UNL1        0.0039
     41 H          22.1750   42.1698  -10.3978 H       1  UNL1        0.0906
     42 H          26.4221   42.2594   -9.3498 H       1  UNL1        0.0666
     43 H          26.2789   44.6672   -9.8108 H       1  UNL1        0.0526
     44 H          30.4586   42.9231   -8.4411 H       1  UNL1        0.0594
     45 H          28.1002   46.0776  -12.0209 H       1  UNL1        0.0299
     46 H          19.5275   39.9808   -6.5785 H       1  UNL1        0.0654
     47 H          20.6573   41.2871   -4.8443 H       1  UNL1        0.0622
     48 H          23.9804   42.9900   -5.4239 H       1  UNL1        0.0343
     49 H          22.2661   44.7465   -5.7636 H       1  UNL1        0.0235
     50 H          22.8591   44.7491   -4.1078 H       1  UNL1        0.0235
     51 H          21.2804   44.0524   -4.4742 H       1  UNL1        0.0235
     52 H          23.6049   41.0633   -3.9185 H       1  UNL1        0.0235
     53 H          22.1276   41.7999   -3.2988 H       1  UNL1        0.0235
     54 H          23.6598   42.5783   -3.0197 H       1  UNL1        0.0235
     55 H          23.5985   42.5938   -7.7125 H       1  UNL1        0.0626
     56 H          22.1685   40.1529  -11.7615 H       1  UNL1        0.0362
     57 H          22.4605   39.1507  -10.3616 H       1  UNL1        0.0362
     58 H          19.8112   41.2615  -12.0508 H       1  UNL1        0.0268
     59 H          19.8831   42.0484  -10.4743 H       1  UNL1        0.0268
     60 H          18.5682   40.9568  -10.8463 H       1  UNL1        0.0268
     61 H          20.1203   38.5801  -12.1279 H       1  UNL1        0.0268
     62 H          18.8413   38.5270  -10.9213 H       1  UNL1        0.0268
     63 H          20.3748   37.7502  -10.5849 H       1  UNL1        0.0268
     64 H          24.4293   40.9813   -9.1540 H       1  UNL1        0.2021
     65 H          24.2884   42.7896  -11.4659 H       1  UNL1        0.0840
     66 H          24.1911   43.3616   -9.8126 H       1  UNL1        0.0840
     67 H          27.5824   41.5202  -11.0727 H       1  UNL1        0.2101
     68 H          28.8036   43.8102  -11.0635 H       1  UNL1        0.1491
     69 H          30.4409   44.7137   -6.8890 H       1  UNL1        0.0252
     70 H          30.5447   45.9510   -8.1199 H       1  UNL1        0.0252
     71 H          31.9154   44.8757   -7.8083 H       1  UNL1        0.0252
     72 H          26.8908   43.9879  -12.6975 H       1  UNL1        0.0286
     73 H          25.4022   44.6677  -12.1191 H       1  UNL1        0.0286
     74 H          26.8062   48.0951  -11.2998 H       1  UNL1        0.0232
     75 H          26.7880   46.8329  -10.0949 H       1  UNL1        0.0232
     76 H          25.3686   47.0956  -11.1126 H       1  UNL1        0.0232
     77 H          25.6426   46.4594  -13.7738 H       1  UNL1        0.0268
     78 H          26.8469   47.6991  -13.6117 H       1  UNL1        0.0268
     79 H          27.0336   46.1530  -15.6408 H       1  UNL1        0.0265
     80 H          27.5500   44.8998  -14.5640 H       1  UNL1        0.0265
     81 H          28.9166   47.5671  -15.1302 H       1  UNL1        0.0265
     82 H          29.4227   46.5884  -13.7993 H       1  UNL1        0.0265
     83 H          30.8394   46.2695  -15.8063 H       1  UNL1        0.0265
     84 H          29.4757   45.7511  -16.7438 H       1  UNL1        0.0265
     85 H          29.2646   43.6833  -15.3492 H       1  UNL1        0.0265
     86 H          30.8425   43.8417  -16.0524 H       1  UNL1        0.0265
     87 H          30.1063   44.5350  -13.1718 H       1  UNL1        0.0265
     88 H          31.6728   44.8504  -13.8946 H       1  UNL1        0.0265
     89 H          30.4122   42.0875  -13.5303 H       1  UNL1        0.0270
     90 H          31.9320   42.3835  -14.3282 H       1  UNL1        0.0270
     91 H          32.8284   43.4419  -12.1698 H       1  UNL1        0.0358
     92 H          32.5222   41.7491  -12.1482 H       1  UNL1        0.0358
     93 H          31.3071   46.0415  -10.1398 H       1  UNL1        0.0429
     94 H          31.6827   45.3354  -11.6604 H       1  UNL1        0.0429
     95 H          32.7876   45.0912  -10.3061 H       1  UNL1        0.0429
     96 H          24.3303   40.6004  -10.7375 H       1  UNL1        0.2021
@<TRIPOS>BOND
     1     1     9   ar
     2     1     2   ar
     3     1    46    1
     4     2     3   ar
     5     2    47    1
     6     3     4    1
     7     3     7   ar
     8     4     5    1
     9     4     6    1
    10     4    48    1
    11     5    49    1
    12     5    50    1
    13     5    51    1
    14     6    52    1
    15     6    53    1
    16     6    54    1
    17     7     8   ar
    18     7    55    1
    19     8     9   ar
    20     8    10    1
    21     9    13    1
    22    10    41    1
    23    10    11    1
    24    10    16    1
    25    11    12    1
    26    11    56    1
    27    11    57    1
    28    12    13    1
    29    12    14    1
    30    12    15    1
    31    14    58    1
    32    14    59    1
    33    14    60    1
    34    15    61    1
    35    15    62    1
    36    15    63    1
    37    16    17    1
    38    16    64    1
    39    16    96    1
    40    17    18    1
    41    17    65    1
    42    17    66    1
    43    18    42    1
    44    18    19    1
    45    18    20    1
    46    19    67    1
    47    20    43    1
    48    20    21    1
    49    20    26    1
    50    21    22   am
    51    21    68    1
    52    22    23    2
    53    22    24    1
    54    24    44    1
    55    24    39    1
    56    24    25    1
    57    25    69    1
    58    25    70    1
    59    25    71    1
    60    26    27    1
    61    26    72    1
    62    26    73    1
    63    27    45    1
    64    27    28    1
    65    27    29    1
    66    28    74    1
    67    28    75    1
    68    28    76    1
    69    29    30    1
    70    29    77    1
    71    29    78    1
    72    30    31    1
    73    30    79    1
    74    30    80    1
    75    31    32    1
    76    31    81    1
    77    31    82    1
    78    32    33    1
    79    32    83    1
    80    32    84    1
    81    33    34    1
    82    33    85    1
    83    33    86    1
    84    34    35    1
    85    34    87    1
    86    34    88    1
    87    35    36    1
    88    35    89    1
    89    35    90    1
    90    36    37    1
    91    36    91    1
    92    36    92    1
    93    37    38    2
    94    37    39   am
    95    39    40    1
    96    40    93    1
    97    40    94    1
    98    40    95    1
