@<TRIPOS>MOLECULE
BACE_9.smi:1
 88 90 0 0 0
SMALL
GASTEIGER
****
Structure written by MMmdl.
@<TRIPOS>ATOM
      1 C          21.1023   41.9554   -3.7783 C.3     1  UNL1       -0.0624
      2 C          22.0483   42.5342   -4.8458 C.3     1  UNL1       -0.0421
      3 C          22.4396   43.9708   -4.4398 C.3     1  UNL1       -0.0504
      4 C          23.5046   44.6276   -5.3255 C.3     1  UNL1       -0.0528
      5 C          23.7846   46.0870   -4.9239 C.3     1  UNL1       -0.0530
      6 C          24.8499   46.7543   -5.8093 C.3     1  UNL1       -0.0530
      7 C          26.2798   46.2178   -5.5864 C.3     1  UNL1       -0.0516
      8 C          27.2784   46.5943   -6.6992 C.3     1  UNL1       -0.0375
      9 C          27.3068   45.6039   -7.8796 C.3     1  UNL1        0.0091
     10 N          26.0890   45.6671   -8.6737 N.pl3   1  UNL1       -0.3438
     11 C          25.6267   44.4813   -9.2568 C.ar    1  UNL1        0.0282
     12 C          26.5043   43.5460   -9.8501 C.ar    1  UNL1       -0.0355
     13 C          26.0004   42.3723  -10.4437 C.ar    1  UNL1       -0.0195
     14 C          24.6109   42.1214  -10.4329 C.ar    1  UNL1       -0.0442
     15 C          23.7273   43.0431   -9.8298 C.ar    1  UNL1        0.0388
     16 C          24.2414   44.2238   -9.2528 C.ar    1  UNL1       -0.0287
     17 C          22.2502   42.7826   -9.8249 C.2     1  UNL1        0.2444
     18 O          21.5974   42.9376  -10.8524 O.2     1  UNL1       -0.2702
     19 N          21.6641   42.3982   -8.6736 N.am    1  UNL1       -0.3058
     20 C          22.2911   42.0012   -7.4016 C.3     1  UNL1        0.0545
     21 C          21.3884   42.5031   -6.2456 C.3     1  UNL1       -0.0293
     22 C          22.6721   40.4779   -7.3743 C.3     1  UNL1        0.1130
     23 C          21.7316   39.4826   -6.6520 C.3     1  UNL1       -0.0050
     24 N          20.3132   39.5154   -7.0770 N.4     1  UNL1        0.2321
     25 C          20.0726   39.3559   -8.5230 C.3     1  UNL1       -0.0076
     26 C          18.7374   38.7061   -8.7338 C.ar    1  UNL1       -0.0027
     27 C          18.6958   37.3502   -9.0987 C.ar    1  UNL1       -0.0535
     28 C          17.4681   36.6936   -9.2401 C.ar    1  UNL1       -0.0611
     29 C          16.2784   37.4122   -9.0601 C.ar    1  UNL1       -0.0583
     30 C          16.3063   38.7723   -8.6804 C.ar    1  UNL1       -0.0444
     31 C          17.5443   39.4218   -8.5221 C.ar    1  UNL1       -0.0501
     32 C          15.0233   39.5255   -8.3807 C.3     1  UNL1       -0.0215
     33 C          14.5829   39.2325   -6.9419 C.3     1  UNL1       -0.0586
     34 C          13.9330   39.1825   -9.3951 C.3     1  UNL1       -0.0586
     35 O          22.9110   39.9745   -8.6733 O.3     1  UNL1       -0.3847
     36 C          26.9614   41.3691  -11.0469 C.3     1  UNL1        0.0724
     37 O          27.8261   41.9713  -11.9978 O.3     1  UNL1       -0.3784
     38 C          28.8592   41.1017  -12.4395 C.3     1  UNL1        0.0369
     39 H          22.9470   41.9189   -4.8523 H       1  UNL1        0.0299
     40 H          23.2292   42.5495   -7.3194 H       1  UNL1        0.0526
     41 H          23.6329   40.3886   -6.8642 H       1  UNL1        0.0666
     42 H          20.1885   42.5472   -3.6976 H       1  UNL1        0.0232
     43 H          21.5742   41.9484   -2.7957 H       1  UNL1        0.0232
     44 H          20.8049   40.9335   -4.0032 H       1  UNL1        0.0232
     45 H          21.5416   44.5873   -4.4425 H       1  UNL1        0.0268
     46 H          22.8035   43.9650   -3.4110 H       1  UNL1        0.0268
     47 H          24.4132   44.0270   -5.2697 H       1  UNL1        0.0265
     48 H          23.1915   44.6188   -6.3671 H       1  UNL1        0.0265
     49 H          22.8608   46.6548   -5.0164 H       1  UNL1        0.0265
     50 H          24.0617   46.1502   -3.8735 H       1  UNL1        0.0265
     51 H          24.5439   46.6419   -6.8463 H       1  UNL1        0.0265
     52 H          24.8571   47.8293   -5.6222 H       1  UNL1        0.0265
     53 H          26.6414   46.6145   -4.6367 H       1  UNL1        0.0266
     54 H          26.2873   45.1359   -5.4638 H       1  UNL1        0.0266
     55 H          27.1053   47.6130   -7.0470 H       1  UNL1        0.0280
     56 H          28.2767   46.5995   -6.2619 H       1  UNL1        0.0280
     57 H          28.1488   45.8378   -8.5309 H       1  UNL1        0.0461
     58 H          27.4690   44.5923   -7.5047 H       1  UNL1        0.0461
     59 H          25.3783   46.2878   -8.3202 H       1  UNL1        0.1461
     60 H          27.5677   43.7273   -9.8643 H       1  UNL1        0.0639
     61 H          24.2233   41.2147  -10.8699 H       1  UNL1        0.0628
     62 H          23.5638   44.9347   -8.8056 H       1  UNL1        0.0643
     63 H          20.6622   42.3034   -8.7233 H       1  UNL1        0.1494
     64 H          20.4639   41.9341   -6.2107 H       1  UNL1        0.0286
     65 H          21.0461   43.5129   -6.4843 H       1  UNL1        0.0286
     66 H          22.0994   38.4627   -6.7901 H       1  UNL1        0.0840
     67 H          21.7659   39.6518   -5.5791 H       1  UNL1        0.0840
     68 H          19.8346   38.7543   -6.6131 H       1  UNL1        0.2018
     69 H          20.1084   40.3097   -9.0434 H       1  UNL1        0.0866
     70 H          20.8328   38.7101   -8.9662 H       1  UNL1        0.0866
     71 H          19.6197   36.8140   -9.2403 H       1  UNL1        0.0622
     72 H          17.4408   35.6522   -9.5159 H       1  UNL1        0.0618
     73 H          15.3483   36.8927   -9.2009 H       1  UNL1        0.0620
     74 H          17.5755   40.4581   -8.2194 H       1  UNL1        0.0625
     75 H          15.2194   40.5947   -8.4634 H       1  UNL1        0.0343
     76 H          15.3409   39.5413   -6.2199 H       1  UNL1        0.0235
     77 H          14.4149   38.1652   -6.7973 H       1  UNL1        0.0235
     78 H          13.6640   39.7496   -6.6842 H       1  UNL1        0.0235
     79 H          14.2682   39.3514  -10.4183 H       1  UNL1        0.0235
     80 H          13.0210   39.7524   -9.2500 H       1  UNL1        0.0235
     81 H          13.6597   38.1376   -9.2933 H       1  UNL1        0.0235
     82 H          23.6775   39.4105   -8.6800 H       1  UNL1        0.2101
     83 H          27.5388   40.9503  -10.2270 H       1  UNL1        0.0610
     84 H          26.4152   40.5479  -11.5089 H       1  UNL1        0.0610
     85 H          29.4333   41.5831  -13.2289 H       1  UNL1        0.0524
     86 H          28.4595   40.1686  -12.8404 H       1  UNL1        0.0524
     87 H          29.5437   40.8649  -11.6256 H       1  UNL1        0.0524
     88 H          19.8733   40.3715   -6.7686 H       1  UNL1        0.2018
@<TRIPOS>BOND
     1     1     2    1
     2     1    42    1
     3     1    43    1
     4     1    44    1
     5     2    39    1
     6     2    21    1
     7     2     3    1
     8     3     4    1
     9     3    45    1
    10     3    46    1
    11     4     5    1
    12     4    47    1
    13     4    48    1
    14     5     6    1
    15     5    49    1
    16     5    50    1
    17     6     7    1
    18     6    51    1
    19     6    52    1
    20     7     8    1
    21     7    53    1
    22     7    54    1
    23     8     9    1
    24     8    55    1
    25     8    56    1
    26     9    10    1
    27     9    57    1
    28     9    58    1
    29    10    11    1
    30    10    59    1
    31    11    16   ar
    32    11    12   ar
    33    12    13   ar
    34    12    60    1
    35    13    14   ar
    36    13    36    1
    37    14    15   ar
    38    14    61    1
    39    15    16   ar
    40    15    17    1
    41    16    62    1
    42    17    18    2
    43    17    19   am
    44    19    20    1
    45    19    63    1
    46    20    40    1
    47    20    21    1
    48    20    22    1
    49    21    64    1
    50    21    65    1
    51    22    41    1
    52    22    23    1
    53    22    35    1
    54    23    24    1
    55    23    66    1
    56    23    67    1
    57    24    25    1
    58    24    68    1
    59    24    88    1
    60    25    26    1
    61    25    69    1
    62    25    70    1
    63    26    31   ar
    64    26    27   ar
    65    27    28   ar
    66    27    71    1
    67    28    29   ar
    68    28    72    1
    69    29    30   ar
    70    29    73    1
    71    30    31   ar
    72    30    32    1
    73    31    74    1
    74    32    33    1
    75    32    34    1
    76    32    75    1
    77    33    76    1
    78    33    77    1
    79    33    78    1
    80    34    79    1
    81    34    80    1
    82    34    81    1
    83    35    82    1
    84    36    37    1
    85    36    83    1
    86    36    84    1
    87    37    38    1
    88    38    85    1
    89    38    86    1
    90    38    87    1
