@<TRIPOS>MOLECULE
BACE_17.smi:1
 62 64 0 0 0
SMALL
GASTEIGER
****
Structure written by MMmdl.
@<TRIPOS>ATOM
      1 C          18.0070   46.1363   -7.3563 C.3     1  UNL1        0.0031
      2 N          18.8138   47.1612   -6.6833 N.am    1  UNL1       -0.3036
      3 C          18.0609   48.3342   -6.2393 C.3     1  UNL1        0.0031
      4 C          20.1238   47.0219   -6.3599 C.2     1  UNL1        0.2463
      5 O          20.7248   47.8359   -5.6558 O.2     1  UNL1       -0.2700
      6 C          20.8576   45.7970   -6.8284 C.ar    1  UNL1        0.0410
      7 C          21.5482   45.0093   -5.8802 C.ar    1  UNL1       -0.0078
      8 C          20.9047   45.4409   -8.1966 C.ar    1  UNL1       -0.0373
      9 C          21.5846   44.2740   -8.6041 C.ar    1  UNL1        0.0409
     10 C          22.2973   43.5198   -7.6479 C.ar    1  UNL1       -0.0078
     11 C          22.2613   43.8592   -6.2855 C.ar    1  UNL1        0.1219
     12 C          21.5365   43.8182  -10.0306 C.2     1  UNL1        0.2445
     13 O          21.5475   44.6098  -10.9726 O.2     1  UNL1       -0.2702
     14 N          21.4071   42.4918  -10.1580 N.am    1  UNL1       -0.3056
     15 C          21.3962   41.7160  -11.3887 C.3     1  UNL1        0.0554
     16 C          20.0096   41.7939  -12.0967 C.3     1  UNL1        0.0968
     17 O          20.0598   40.9677  -13.2398 O.3     1  UNL1       -0.3877
     18 C          18.7476   41.4458  -11.2670 C.3     1  UNL1        0.0719
     19 O          17.6408   42.2243  -11.6811 O.3     1  UNL1       -0.3924
     20 C          21.9406   40.2935  -11.0898 C.3     1  UNL1       -0.0066
     21 C          21.1479   39.5169  -10.0438 C.ar    1  UNL1       -0.0421
     22 C          21.4073   39.7123   -8.6694 C.ar    1  UNL1       -0.0167
     23 C          20.6069   39.0828   -7.6835 C.ar    1  UNL1        0.1208
     24 C          19.5618   38.2333   -8.1007 C.ar    1  UNL1       -0.0199
     25 C          19.3315   37.9916   -9.4677 C.ar    1  UNL1       -0.0580
     26 C          20.1314   38.6213  -10.4377 C.ar    1  UNL1       -0.0583
     27 O          20.7752   39.2531   -6.3257 O.3     1  UNL1       -0.4920
     28 C          21.6953   40.2375   -5.8761 C.3     1  UNL1        0.0897
     29 C          21.5834   40.3768   -4.3500 C.3     1  UNL1       -0.0156
     30 C          22.5712   41.3744   -3.7126 C.3     1  UNL1       -0.0156
     31 C          22.3572   42.8387   -4.1263 C.3     1  UNL1        0.0897
     32 O          22.9216   43.0227   -5.4182 O.3     1  UNL1       -0.4919
     33 H          22.1190   42.1733  -12.0677 H       1  UNL1        0.0528
     34 H          19.8799   42.8196  -12.4381 H       1  UNL1        0.0635
     35 H          18.2063   46.1247   -8.4268 H       1  UNL1        0.0428
     36 H          16.9387   46.3140   -7.2413 H       1  UNL1        0.0428
     37 H          18.2073   45.1418   -6.9532 H       1  UNL1        0.0428
     38 H          17.6617   48.1500   -5.2431 H       1  UNL1        0.0428
     39 H          17.2317   48.5563   -6.9112 H       1  UNL1        0.0428
     40 H          18.6795   49.2333   -6.1985 H       1  UNL1        0.0428
     41 H          21.5244   45.2938   -4.8400 H       1  UNL1        0.0662
     42 H          20.3962   46.0440   -8.9365 H       1  UNL1        0.0633
     43 H          22.8502   42.6397   -7.9408 H       1  UNL1        0.0662
     44 H          21.3470   41.9575   -9.3038 H       1  UNL1        0.1494
     45 H          20.1376   40.0693  -12.9552 H       1  UNL1        0.2100
     46 H          18.4652   40.3983  -11.3634 H       1  UNL1        0.0583
     47 H          18.9033   41.6431  -10.2050 H       1  UNL1        0.0583
     48 H          16.9032   41.9843  -11.1387 H       1  UNL1        0.2095
     49 H          22.0312   39.7250  -12.0141 H       1  UNL1        0.0332
     50 H          22.9660   40.3777  -10.7275 H       1  UNL1        0.0332
     51 H          22.2173   40.3676   -8.3893 H       1  UNL1        0.0657
     52 H          18.9355   37.7514   -7.3632 H       1  UNL1        0.0654
     53 H          18.5347   37.3269   -9.7693 H       1  UNL1        0.0619
     54 H          19.9311   38.4411  -11.4827 H       1  UNL1        0.0620
     55 H          22.7144   39.9640   -6.1564 H       1  UNL1        0.0696
     56 H          21.4465   41.1866   -6.3485 H       1  UNL1        0.0696
     57 H          20.5609   40.6523   -4.0874 H       1  UNL1        0.0299
     58 H          21.7559   39.3991   -3.9034 H       1  UNL1        0.0299
     59 H          22.4555   41.3123   -2.6307 H       1  UNL1        0.0299
     60 H          23.6000   41.0759   -3.9176 H       1  UNL1        0.0299
     61 H          21.2914   43.0712   -4.0891 H       1  UNL1        0.0696
     62 H          22.8602   43.5083   -3.4292 H       1  UNL1        0.0696
@<TRIPOS>BOND
     1     1     2    1
     2     1    35    1
     3     1    36    1
     4     1    37    1
     5     2     3    1
     6     2     4   am
     7     3    38    1
     8     3    39    1
     9     3    40    1
    10     4     5    2
    11     4     6    1
    12     6     7   ar
    13     6     8   ar
    14     7    11   ar
    15     7    41    1
    16     8     9   ar
    17     8    42    1
    18     9    10   ar
    19     9    12    1
    20    10    11   ar
    21    10    43    1
    22    11    32    1
    23    12    13    2
    24    12    14   am
    25    14    15    1
    26    14    44    1
    27    15    33    1
    28    15    16    1
    29    15    20    1
    30    16    34    1
    31    16    17    1
    32    16    18    1
    33    17    45    1
    34    18    19    1
    35    18    46    1
    36    18    47    1
    37    19    48    1
    38    20    21    1
    39    20    49    1
    40    20    50    1
    41    21    26   ar
    42    21    22   ar
    43    22    23   ar
    44    22    51    1
    45    23    24   ar
    46    23    27    1
    47    24    25   ar
    48    24    52    1
    49    25    26   ar
    50    25    53    1
    51    26    54    1
    52    27    28    1
    53    28    29    1
    54    28    55    1
    55    28    56    1
    56    29    30    1
    57    29    57    1
    58    29    58    1
    59    30    31    1
    60    30    59    1
    61    30    60    1
    62    31    32    1
    63    31    61    1
    64    31    62    1
