@<TRIPOS>MOLECULE
BACE_11.smi:1
 81 83 0 0 0
SMALL
GASTEIGER
****
Structure written by MMmdl.
@<TRIPOS>ATOM
      1 C          15.2645   46.9149  -12.6873 C.3     1  UNL1       -0.0379
      2 C          16.2176   46.3082  -11.6382 C.3     1  UNL1        0.0991
      3 C          15.6828   45.0446  -10.9275 C.2     1  UNL1        0.2336
      4 O          14.4718   44.8842  -10.7790 O.2     1  UNL1       -0.2738
      5 N          16.5903   44.1704  -10.4569 N.am    1  UNL1       -0.3080
      6 C          16.3976   43.0950   -9.4777 C.3     1  UNL1        0.0580
      7 C          16.4076   43.6906   -8.0444 C.3     1  UNL1       -0.0065
      8 C          17.7507   44.3093   -7.6924 C.ar    1  UNL1       -0.0421
      9 C          18.7280   43.5693   -6.9917 C.ar    1  UNL1       -0.0583
     10 C          19.9919   44.1375   -6.7354 C.ar    1  UNL1       -0.0580
     11 C          20.2917   45.4383   -7.1861 C.ar    1  UNL1       -0.0199
     12 C          19.3143   46.1856   -7.8833 C.ar    1  UNL1        0.1208
     13 C          18.0451   45.6223   -8.1045 C.ar    1  UNL1       -0.0167
     14 O          19.5006   47.4449   -8.3958 O.3     1  UNL1       -0.4920
     15 C          20.7630   48.0695   -8.2907 C.3     1  UNL1        0.0896
     16 C          20.6571   49.4319   -8.9959 C.3     1  UNL1       -0.0186
     17 C          20.6049   49.3586  -10.5360 C.3     1  UNL1       -0.0495
     18 C          19.2305   49.6584  -11.1835 C.3     1  UNL1       -0.0447
     19 C          18.1674   48.5304  -11.1740 C.3     1  UNL1        0.0242
     20 C          18.5006   47.2987  -12.0475 C.2     1  UNL1        0.2159
     21 O          19.5864   47.2669  -12.6308 O.2     1  UNL1       -0.2756
     22 N          17.6079   46.2722  -12.1613 N.am    1  UNL1       -0.2932
     23 C          17.9958   45.0974  -12.9582 C.3     1  UNL1        0.0039
     24 C          15.1968   42.1460   -9.7450 C.3     1  UNL1        0.1132
     25 C          15.4462   40.6484   -9.4333 C.3     1  UNL1       -0.0049
     26 N          15.2565   40.3181   -7.9981 N.4     1  UNL1        0.2321
     27 C          16.3040   39.4770   -7.3671 C.3     1  UNL1       -0.0076
     28 C          17.5819   39.4011   -8.1844 C.ar    1  UNL1       -0.0027
     29 C          18.4209   38.2683   -8.1035 C.ar    1  UNL1       -0.0535
     30 C          19.6050   38.2098   -8.8677 C.ar    1  UNL1       -0.0611
     31 C          19.9593   39.2830   -9.7072 C.ar    1  UNL1       -0.0583
     32 C          19.1249   40.4191   -9.8000 C.ar    1  UNL1       -0.0444
     33 C          17.9314   40.4562   -9.0523 C.ar    1  UNL1       -0.0501
     34 C          19.5128   41.6111  -10.6670 C.3     1  UNL1       -0.0215
     35 C          19.6325   42.9001   -9.8451 C.3     1  UNL1       -0.0586
     36 C          18.5584   41.7859  -11.8599 C.3     1  UNL1       -0.0586
     37 O          14.1559   42.5813   -8.9028 O.3     1  UNL1       -0.3847
     38 H          16.1877   47.0090  -10.8041 H       1  UNL1        0.0594
     39 H          17.2943   42.4798   -9.5737 H       1  UNL1        0.0529
     40 H          14.8661   42.2494  -10.7766 H       1  UNL1        0.0666
     41 H          14.2844   47.1310  -12.2602 H       1  UNL1        0.0252
     42 H          15.1154   46.2365  -13.5278 H       1  UNL1        0.0252
     43 H          15.6575   47.8541  -13.0833 H       1  UNL1        0.0252
     44 H          17.5539   44.3862  -10.6667 H       1  UNL1        0.1491
     45 H          15.6218   44.4395   -7.9437 H       1  UNL1        0.0332
     46 H          16.1831   42.9273   -7.2987 H       1  UNL1        0.0332
     47 H          18.5198   42.5630   -6.6647 H       1  UNL1        0.0620
     48 H          20.7414   43.5647   -6.2085 H       1  UNL1        0.0619
     49 H          21.2781   45.8376   -6.9959 H       1  UNL1        0.0654
     50 H          17.3020   46.2006   -8.6324 H       1  UNL1        0.0657
     51 H          21.0128   48.2154   -7.2386 H       1  UNL1        0.0696
     52 H          21.5463   47.4595   -8.7428 H       1  UNL1        0.0696
     53 H          19.8064   49.9903   -8.6057 H       1  UNL1        0.0298
     54 H          21.5361   50.0128   -8.7159 H       1  UNL1        0.0298
     55 H          21.2908   50.1156  -10.9115 H       1  UNL1        0.0266
     56 H          21.0209   48.4161  -10.8896 H       1  UNL1        0.0266
     57 H          18.8073   50.5470  -10.7141 H       1  UNL1        0.0270
     58 H          19.3982   49.9491  -12.2223 H       1  UNL1        0.0270
     59 H          17.9736   48.2194  -10.1484 H       1  UNL1        0.0358
     60 H          17.2356   48.9611  -11.5460 H       1  UNL1        0.0358
     61 H          18.6899   44.4747  -12.3982 H       1  UNL1        0.0429
     62 H          18.4836   45.3760  -13.8939 H       1  UNL1        0.0429
     63 H          17.1366   44.4882  -13.2348 H       1  UNL1        0.0429
     64 H          14.7236   40.0450   -9.9844 H       1  UNL1        0.0840
     65 H          16.4323   40.3260   -9.7768 H       1  UNL1        0.0840
     66 H          15.1454   41.1698   -7.4624 H       1  UNL1        0.2018
     67 H          16.5589   39.9067   -6.4042 H       1  UNL1        0.0866
     68 H          15.9340   38.4772   -7.1459 H       1  UNL1        0.0866
     69 H          18.1698   37.4427   -7.4515 H       1  UNL1        0.0622
     70 H          20.2569   37.3491   -8.8047 H       1  UNL1        0.0618
     71 H          20.8776   39.2330  -10.2737 H       1  UNL1        0.0620
     72 H          17.2853   41.3171   -9.1356 H       1  UNL1        0.0625
     73 H          20.5020   41.4098  -11.0813 H       1  UNL1        0.0343
     74 H          20.3412   42.7879   -9.0252 H       1  UNL1        0.0235
     75 H          18.6676   43.1755   -9.4251 H       1  UNL1        0.0235
     76 H          19.9710   43.7333  -10.4610 H       1  UNL1        0.0235
     77 H          18.5071   40.8724  -12.4530 H       1  UNL1        0.0235
     78 H          18.8962   42.5862  -12.5188 H       1  UNL1        0.0235
     79 H          17.5451   42.0312  -11.5442 H       1  UNL1        0.0235
     80 H          13.7803   41.8295   -8.4618 H       1  UNL1        0.2101
     81 H          14.3977   39.7943   -7.9061 H       1  UNL1        0.2018
@<TRIPOS>BOND
     1     1     2    1
     2     1    41    1
     3     1    42    1
     4     1    43    1
     5     2    38    1
     6     2    22    1
     7     2     3    1
     8     3     4    2
     9     3     5   am
    10     5     6    1
    11     5    44    1
    12     6    39    1
    13     6     7    1
    14     6    24    1
    15     7     8    1
    16     7    45    1
    17     7    46    1
    18     8    13   ar
    19     8     9   ar
    20     9    10   ar
    21     9    47    1
    22    10    11   ar
    23    10    48    1
    24    11    12   ar
    25    11    49    1
    26    12    13   ar
    27    12    14    1
    28    13    50    1
    29    14    15    1
    30    15    16    1
    31    15    51    1
    32    15    52    1
    33    16    17    1
    34    16    53    1
    35    16    54    1
    36    17    18    1
    37    17    55    1
    38    17    56    1
    39    18    19    1
    40    18    57    1
    41    18    58    1
    42    19    20    1
    43    19    59    1
    44    19    60    1
    45    20    21    2
    46    20    22   am
    47    22    23    1
    48    23    61    1
    49    23    62    1
    50    23    63    1
    51    24    40    1
    52    24    25    1
    53    24    37    1
    54    25    26    1
    55    25    64    1
    56    25    65    1
    57    26    27    1
    58    26    66    1
    59    26    81    1
    60    27    28    1
    61    27    67    1
    62    27    68    1
    63    28    33   ar
    64    28    29   ar
    65    29    30   ar
    66    29    69    1
    67    30    31   ar
    68    30    70    1
    69    31    32   ar
    70    31    71    1
    71    32    33   ar
    72    32    34    1
    73    33    72    1
    74    34    35    1
    75    34    36    1
    76    34    73    1
    77    35    74    1
    78    35    75    1
    79    35    76    1
    80    36    77    1
    81    36    78    1
    82    36    79    1
    83    37    80    1
