@<TRIPOS>MOLECULE
BACE_19.smi:1
 76 77 0 0 0
SMALL
GASTEIGER
****
Structure written by MMmdl.
@<TRIPOS>ATOM
      1 C          22.0984   42.5522   -3.1788 C.3     1  UNL1       -0.0652
      2 C          22.9284   41.6914   -4.1375 C.3     1  UNL1       -0.0545
      3 C          22.1729   40.4513   -4.6467 C.3     1  UNL1       -0.0376
      4 C          21.5108   40.6349   -6.0211 C.3     1  UNL1        0.0116
      5 N          22.5064   40.7438   -7.0888 N.am    1  UNL1       -0.3151
      6 C          22.8605   41.8831   -7.7068 C.2     1  UNL1        0.2159
      7 O          22.3499   42.9706   -7.4378 O.2     1  UNL1       -0.2755
      8 C          23.9767   41.7873   -8.7656 C.3     1  UNL1        0.0351
      9 C          24.8471   43.0604   -8.7528 C.3     1  UNL1       -0.0540
     10 C          23.5287   41.4101  -10.2124 C.3     1  UNL1       -0.0143
     11 C          22.1368   41.8381  -10.7597 C.3     1  UNL1        0.0742
     12 C          20.9094   41.0379  -10.2250 C.3     1  UNL1        0.0493
     13 C          21.0001   39.5137  -10.5344 C.3     1  UNL1       -0.0295
     14 C          19.8689   38.5914  -10.0208 C.3     1  UNL1       -0.0418
     15 C          19.6380   38.6966   -8.4919 C.3     1  UNL1       -0.0464
     16 C          18.4296   37.9280   -7.9058 C.3     1  UNL1       -0.0274
     17 C          17.0854   38.5521   -8.2445 C.ar    1  UNL1       -0.0470
     18 C          16.0739   37.7698   -8.8374 C.ar    1  UNL1       -0.0586
     19 C          14.8600   38.3647   -9.2234 C.ar    1  UNL1       -0.0612
     20 C          14.6636   39.7463   -9.0569 C.ar    1  UNL1       -0.0570
     21 C          15.6702   40.5367   -8.4644 C.ar    1  UNL1       -0.0263
     22 C          16.8603   39.9272   -8.0198 C.ar    1  UNL1       -0.0538
     23 C          15.4653   42.0303   -8.2952 C.3     1  UNL1        0.0907
     24 S          16.7159   43.0304   -9.2310 S.O2    1  UNL1       -0.0263
     25 O          16.2047   44.4060   -9.3376 O.2     1  UNL1       -0.1740
     26 O          18.0451   42.8028   -8.6465 O.2     1  UNL1       -0.1740
     27 C          16.6951   42.2815  -10.9313 C.3     1  UNL1        0.0769
     28 C          17.8419   42.7382  -11.8831 C.3     1  UNL1        0.0520
     29 C          19.1274   41.8887  -11.8084 C.2     1  UNL1        0.2177
     30 O          19.6485   41.4643  -12.8404 O.2     1  UNL1       -0.2755
     31 N          19.6369   41.6666  -10.5906 N.am    1  UNL1       -0.3097
     32 C          18.1704   44.2401  -11.8335 C.3     1  UNL1       -0.0526
     33 C          18.6107   38.7308  -10.8765 C.3     1  UNL1       -0.0623
     34 O          21.9729   43.2332  -10.5847 O.3     1  UNL1       -0.3899
     35 H          24.6383   40.9839   -8.4395 H       1  UNL1        0.0392
     36 H          22.1696   41.6800  -11.8389 H       1  UNL1        0.0612
     37 H          20.8845   41.1428   -9.1505 H       1  UNL1        0.0524
     38 H          20.2168   37.5755  -10.2004 H       1  UNL1        0.0299
     39 H          17.4651   42.5509  -12.8884 H       1  UNL1        0.0407
     40 H          22.6721   43.4124   -2.8340 H       1  UNL1        0.0230
     41 H          21.7927   41.9842   -2.3000 H       1  UNL1        0.0230
     42 H          21.1983   42.9277   -3.6651 H       1  UNL1        0.0230
     43 H          23.2729   42.3115   -4.9606 H       1  UNL1        0.0263
     44 H          23.8355   41.3601   -3.6399 H       1  UNL1        0.0263
     45 H          22.8600   39.6077   -4.7021 H       1  UNL1        0.0280
     46 H          21.4187   40.1541   -3.9163 H       1  UNL1        0.0280
     47 H          20.8931   39.7601   -6.2189 H       1  UNL1        0.0462
     48 H          20.8256   41.4856   -6.0111 H       1  UNL1        0.0462
     49 H          22.9662   39.8914   -7.3715 H       1  UNL1        0.1487
     50 H          25.1642   43.3182   -7.7413 H       1  UNL1        0.0237
     51 H          24.3111   43.9164   -9.1620 H       1  UNL1        0.0237
     52 H          25.7507   42.9214   -9.3465 H       1  UNL1        0.0237
     53 H          24.2727   41.8177  -10.8975 H       1  UNL1        0.0298
     54 H          23.6547   40.3371  -10.3416 H       1  UNL1        0.0298
     55 H          21.1235   39.3706  -11.6081 H       1  UNL1        0.0286
     56 H          21.9158   39.1249  -10.0945 H       1  UNL1        0.0286
     57 H          20.5381   38.3170   -8.0079 H       1  UNL1        0.0271
     58 H          19.5644   39.7366   -8.1869 H       1  UNL1        0.0271
     59 H          18.4524   36.8933   -8.2440 H       1  UNL1        0.0313
     60 H          18.5067   37.8985   -6.8185 H       1  UNL1        0.0313
     61 H          16.2236   36.7123   -8.9889 H       1  UNL1        0.0620
     62 H          14.0690   37.7607   -9.6399 H       1  UNL1        0.0618
     63 H          13.7256   40.1856   -9.3660 H       1  UNL1        0.0621
     64 H          17.6152   40.5274   -7.5343 H       1  UNL1        0.0623
     65 H          14.4676   42.3229   -8.6187 H       1  UNL1        0.0549
     66 H          15.5554   42.2788   -7.2400 H       1  UNL1        0.0549
     67 H          16.6922   41.2013  -10.8308 H       1  UNL1        0.0507
     68 H          15.7271   42.5393  -11.3547 H       1  UNL1        0.0507
     69 H          19.1277   42.0770   -9.8114 H       1  UNL1        0.1491
     70 H          18.8769   44.5136  -12.6177 H       1  UNL1        0.0237
     71 H          18.6191   44.5257  -10.8807 H       1  UNL1        0.0237
     72 H          17.2753   44.8441  -11.9780 H       1  UNL1        0.0237
     73 H          17.9858   39.5454  -10.5354 H       1  UNL1        0.0232
     74 H          18.0176   37.8202  -10.8396 H       1  UNL1        0.0232
     75 H          18.8543   38.9364  -11.9173 H       1  UNL1        0.0232
     76 H          22.7325   43.6690  -10.9388 H       1  UNL1        0.2099
@<TRIPOS>BOND
     1     1     2    1
     2     1    40    1
     3     1    41    1
     4     1    42    1
     5     2     3    1
     6     2    43    1
     7     2    44    1
     8     3     4    1
     9     3    45    1
    10     3    46    1
    11     4     5    1
    12     4    47    1
    13     4    48    1
    14     5     6   am
    15     5    49    1
    16     6     7    2
    17     6     8    1
    18     8    35    1
    19     8     9    1
    20     8    10    1
    21     9    50    1
    22     9    51    1
    23     9    52    1
    24    10    11    1
    25    10    53    1
    26    10    54    1
    27    11    36    1
    28    11    12    1
    29    11    34    1
    30    12    37    1
    31    12    31    1
    32    12    13    1
    33    13    14    1
    34    13    55    1
    35    13    56    1
    36    14    38    1
    37    14    15    1
    38    14    33    1
    39    15    16    1
    40    15    57    1
    41    15    58    1
    42    16    17    1
    43    16    59    1
    44    16    60    1
    45    17    22   ar
    46    17    18   ar
    47    18    19   ar
    48    18    61    1
    49    19    20   ar
    50    19    62    1
    51    20    21   ar
    52    20    63    1
    53    21    22   ar
    54    21    23    1
    55    22    64    1
    56    23    24    1
    57    23    65    1
    58    23    66    1
    59    24    25    2
    60    24    26    2
    61    24    27    1
    62    27    28    1
    63    27    67    1
    64    27    68    1
    65    28    39    1
    66    28    29    1
    67    28    32    1
    68    29    30    2
    69    29    31   am
    70    31    69    1
    71    32    70    1
    72    32    71    1
    73    32    72    1
    74    33    73    1
    75    33    74    1
    76    33    75    1
    77    34    76    1
