@<TRIPOS>MOLECULE
BACE_5.smi:1
 79 80 0 0 0
SMALL
GASTEIGER
****
Structure written by MMmdl.
@<TRIPOS>ATOM
      1 C          15.4255   39.8693   -6.4241 C.3     1  UNL1       -0.0649
      2 C          14.4535   38.9861   -7.2170 C.3     1  UNL1       -0.0505
      3 C          14.7488   38.9272   -8.7198 C.3     1  UNL1       -0.0112
      4 C          16.1355   38.4666   -9.0293 C.ar    1  UNL1        0.0364
      5 C          17.1058   39.0036   -9.8276 C.ar    1  UNL1       -0.0168
      6 C          18.2236   38.1391   -9.6451 C.ar    1  UNL1        0.0768
      7 N          17.9559   37.1260   -8.8382 N.ar    1  UNL1       -0.1774
      8 N          16.6909   37.3511   -8.4403 N.ar    1  UNL1       -0.2813
      9 C          19.6216   38.2947  -10.1721 C.3     1  UNL1        0.0403
     10 N          20.3826   39.3319   -9.4730 N.3     1  UNL1       -0.3080
     11 C          20.4177   39.1841   -8.0119 C.3     1  UNL1        0.0240
     12 C          21.4015   40.1659   -7.3504 C.3     1  UNL1        0.0859
     13 C          21.2561   41.6491   -7.7776 C.3     1  UNL1        0.0505
     14 C          22.3122   42.5928   -7.1471 C.3     1  UNL1       -0.0295
     15 C          22.4178   42.6314   -5.6007 C.3     1  UNL1       -0.0421
     16 C          23.6307   43.4632   -5.1268 C.3     1  UNL1       -0.0504
     17 C          23.7507   44.9312   -5.6066 C.3     1  UNL1       -0.0528
     18 C          22.8736   45.9351   -4.8403 C.3     1  UNL1       -0.0530
     19 C          23.0410   47.4055   -5.2708 C.3     1  UNL1       -0.0510
     20 C          22.7742   47.7065   -6.7594 C.3     1  UNL1       -0.0294
     21 C          21.4062   47.2434   -7.2820 C.3     1  UNL1        0.0483
     22 O          20.3563   47.9108   -6.5851 O.3     1  UNL1       -0.3706
     23 C          19.0436   47.6196   -7.0698 C.3     1  UNL1        0.1238
     24 C          18.6719   46.1478   -6.7896 C.2     1  UNL1        0.2417
     25 O          18.8604   45.7510   -5.6400 O.2     1  UNL1       -0.2731
     26 N          18.1922   45.3444   -7.7793 N.am    1  UNL1       -0.2914
     27 C          18.1277   43.8675   -7.5809 C.3     1  UNL1        0.0991
     28 C          19.3626   43.1938   -8.2057 C.2     1  UNL1        0.2336
     29 O          19.8351   43.6118   -9.2637 O.2     1  UNL1       -0.2738
     30 N          19.9078   42.1700   -7.5276 N.am    1  UNL1       -0.3084
     31 C          16.8559   43.2385   -8.1913 C.3     1  UNL1       -0.0379
     32 C          17.8824   45.8930   -9.1114 C.3     1  UNL1        0.0040
     33 C          21.1203   43.0270   -4.8714 C.3     1  UNL1       -0.0624
     34 O          22.6994   39.6904   -7.6424 O.3     1  UNL1       -0.3887
     35 H          16.2615   36.8104   -7.6851 H       1  UNL1        0.1885
     36 H          21.2657   40.0886   -6.2724 H       1  UNL1        0.0624
     37 H          21.4295   41.6876   -8.8542 H       1  UNL1        0.0524
     38 H          22.6407   41.6185   -5.2669 H       1  UNL1        0.0299
     39 H          18.1094   43.6212   -6.5173 H       1  UNL1        0.0594
     40 H          15.2600   39.7511   -5.3562 H       1  UNL1        0.0230
     41 H          15.2752   40.9234   -6.6549 H       1  UNL1        0.0230
     42 H          16.4693   39.6157   -6.6072 H       1  UNL1        0.0230
     43 H          13.4414   39.3498   -7.0550 H       1  UNL1        0.0266
     44 H          14.4612   37.9703   -6.8215 H       1  UNL1        0.0266
     45 H          14.5879   39.9142   -9.1513 H       1  UNL1        0.0328
     46 H          14.0303   38.2662   -9.2024 H       1  UNL1        0.0328
     47 H          17.0436   39.9036  -10.4195 H       1  UNL1        0.0654
     48 H          19.5921   38.5175  -11.2395 H       1  UNL1        0.0489
     49 H          20.1526   37.3501  -10.0787 H       1  UNL1        0.0489
     50 H          20.0294   40.2510   -9.7263 H       1  UNL1        0.1224
     51 H          20.6774   38.1616   -7.7380 H       1  UNL1        0.0450
     52 H          19.4227   39.3628   -7.6009 H       1  UNL1        0.0450
     53 H          23.2900   42.3177   -7.5451 H       1  UNL1        0.0286
     54 H          22.1268   43.5996   -7.5230 H       1  UNL1        0.0286
     55 H          23.6599   43.4189   -4.0402 H       1  UNL1        0.0268
     56 H          24.5340   42.9500   -5.4532 H       1  UNL1        0.0268
     57 H          23.5756   45.0028   -6.6778 H       1  UNL1        0.0265
     58 H          24.7885   45.2380   -5.4674 H       1  UNL1        0.0265
     59 H          21.8225   45.6689   -4.9138 H       1  UNL1        0.0265
     60 H          23.1369   45.8598   -3.7860 H       1  UNL1        0.0265
     61 H          24.0514   47.7335   -5.0254 H       1  UNL1        0.0266
     62 H          22.3736   48.0180   -4.6638 H       1  UNL1        0.0266
     63 H          22.8724   48.7789   -6.9264 H       1  UNL1        0.0287
     64 H          23.5550   47.2442   -7.3634 H       1  UNL1        0.0287
     65 H          21.3280   46.1599   -7.1918 H       1  UNL1        0.0560
     66 H          21.3352   47.4741   -8.3451 H       1  UNL1        0.0560
     67 H          18.9820   47.9183   -8.1149 H       1  UNL1        0.0657
     68 H          18.3361   48.2505   -6.5300 H       1  UNL1        0.0657
     69 H          19.4337   41.8505   -6.6918 H       1  UNL1        0.1491
     70 H          16.7454   42.2109   -7.8419 H       1  UNL1        0.0252
     71 H          16.8717   43.1885   -9.2800 H       1  UNL1        0.0252
     72 H          15.9600   43.7775   -7.8826 H       1  UNL1        0.0252
     73 H          17.4568   45.1702   -9.8019 H       1  UNL1        0.0429
     74 H          18.7911   46.2616   -9.5910 H       1  UNL1        0.0429
     75 H          17.1669   46.7122   -9.0362 H       1  UNL1        0.0429
     76 H          21.3013   43.2658   -3.8222 H       1  UNL1        0.0232
     77 H          20.3975   42.2120   -4.8854 H       1  UNL1        0.0232
     78 H          20.6465   43.8855   -5.3396 H       1  UNL1        0.0232
     79 H          22.7411   39.5231   -8.5737 H       1  UNL1        0.2099
@<TRIPOS>BOND
     1     1     2    1
     2     1    40    1
     3     1    41    1
     4     1    42    1
     5     2     3    1
     6     2    43    1
     7     2    44    1
     8     3     4    1
     9     3    45    1
    10     3    46    1
    11     4     8   ar
    12     4     5   ar
    13     5     6   ar
    14     5    47    1
    15     6     7   ar
    16     6     9    1
    17     7     8   ar
    18     8    35    1
    19     9    10    1
    20     9    48    1
    21     9    49    1
    22    10    11    1
    23    10    50    1
    24    11    12    1
    25    11    51    1
    26    11    52    1
    27    12    36    1
    28    12    13    1
    29    12    34    1
    30    13    37    1
    31    13    30    1
    32    13    14    1
    33    14    15    1
    34    14    53    1
    35    14    54    1
    36    15    38    1
    37    15    16    1
    38    15    33    1
    39    16    17    1
    40    16    55    1
    41    16    56    1
    42    17    18    1
    43    17    57    1
    44    17    58    1
    45    18    19    1
    46    18    59    1
    47    18    60    1
    48    19    20    1
    49    19    61    1
    50    19    62    1
    51    20    21    1
    52    20    63    1
    53    20    64    1
    54    21    22    1
    55    21    65    1
    56    21    66    1
    57    22    23    1
    58    23    24    1
    59    23    67    1
    60    23    68    1
    61    24    25    2
    62    24    26   am
    63    26    27    1
    64    26    32    1
    65    27    39    1
    66    27    28    1
    67    27    31    1
    68    28    29    2
    69    28    30   am
    70    30    69    1
    71    31    70    1
    72    31    71    1
    73    31    72    1
    74    32    73    1
    75    32    74    1
    76    32    75    1
    77    33    76    1
    78    33    77    1
    79    33    78    1
    80    34    79    1
