@<TRIPOS>MOLECULE
BACE_9.smi:1
 87 89 0 0 0
SMALL
GASTEIGER
****
Structure written by MMmdl.
@<TRIPOS>ATOM
      1 C          18.3547   46.6004   -6.8166 C.3     1  UNL1       -0.0624
      2 C          18.8401   45.2424   -7.3470 C.3     1  UNL1       -0.0421
      3 C          20.3673   45.1102   -7.2038 C.3     1  UNL1       -0.0504
      4 C          20.8634   43.6766   -7.4432 C.3     1  UNL1       -0.0528
      5 C          22.3356   43.4702   -7.0520 C.3     1  UNL1       -0.0530
      6 C          22.7978   42.0199   -7.2530 C.3     1  UNL1       -0.0530
      7 C          22.2685   41.0548   -6.1695 C.3     1  UNL1       -0.0516
      8 C          22.3661   39.5634   -6.5415 C.3     1  UNL1       -0.0375
      9 C          21.1274   39.0238   -7.2791 C.3     1  UNL1        0.0091
     10 N          20.9952   39.5845   -8.6129 N.pl3   1  UNL1       -0.3438
     11 C          19.7035   39.6655   -9.1427 C.ar    1  UNL1        0.0282
     12 C          18.7851   38.5978   -9.0331 C.ar    1  UNL1       -0.0355
     13 C          17.5015   38.7046   -9.6026 C.ar    1  UNL1       -0.0195
     14 C          17.1246   39.8947  -10.2610 C.ar    1  UNL1       -0.0442
     15 C          18.0290   40.9741  -10.3559 C.ar    1  UNL1        0.0388
     16 C          19.3238   40.8435   -9.8133 C.ar    1  UNL1       -0.0287
     17 C          17.6405   42.2115  -11.1077 C.2     1  UNL1        0.2444
     18 O          17.4520   42.1469  -12.3209 O.2     1  UNL1       -0.2702
     19 N          17.5214   43.3784  -10.4485 N.am    1  UNL1       -0.3060
     20 C          17.5773   43.6525   -9.0070 C.3     1  UNL1        0.0508
     21 C          18.3368   44.9891   -8.7899 C.3     1  UNL1       -0.0295
     22 C          16.1287   43.5833   -8.4265 C.3     1  UNL1        0.0859
     23 C          15.2354   44.8078   -8.7193 C.3     1  UNL1        0.0240
     24 N          13.8427   44.5484   -8.3457 N.3     1  UNL1       -0.3095
     25 C          13.1788   43.5193   -9.1494 C.3     1  UNL1        0.0213
     26 C          13.0678   43.8229  -10.6340 C.ar    1  UNL1       -0.0333
     27 C          12.2799   43.0243  -11.4902 C.ar    1  UNL1       -0.0573
     28 C          12.1874   43.3431  -12.8561 C.ar    1  UNL1       -0.0612
     29 C          12.8598   44.4677  -13.3712 C.ar    1  UNL1       -0.0583
     30 C          13.6463   45.2777  -12.5242 C.ar    1  UNL1       -0.0445
     31 C          13.7374   44.9502  -11.1543 C.ar    1  UNL1       -0.0539
     32 C          14.3859   46.4859  -13.0899 C.3     1  UNL1       -0.0215
     33 C          15.5286   46.9400  -12.1646 C.3     1  UNL1       -0.0586
     34 C          13.4245   47.6417  -13.4105 C.3     1  UNL1       -0.0586
     35 O          15.4452   42.4502   -8.9261 O.3     1  UNL1       -0.3887
     36 C          16.5320   37.5436   -9.4903 C.3     1  UNL1        0.0724
     37 O          15.1823   37.9645   -9.6404 O.3     1  UNL1       -0.3784
     38 C          14.7270   38.7163   -8.5281 C.3     1  UNL1        0.0369
     39 H          18.4368   44.4842   -6.6882 H       1  UNL1        0.0299
     40 H          18.1735   42.8738   -8.5331 H       1  UNL1        0.0524
     41 H          16.1920   43.4784   -7.3426 H       1  UNL1        0.0624
     42 H          18.7576   47.4264   -7.3991 H       1  UNL1        0.0232
     43 H          18.6584   46.7501   -5.7793 H       1  UNL1        0.0232
     44 H          17.2679   46.6736   -6.8436 H       1  UNL1        0.0232
     45 H          20.8843   45.8012   -7.8713 H       1  UNL1        0.0268
     46 H          20.6495   45.4016   -6.1908 H       1  UNL1        0.0268
     47 H          20.2364   42.9894   -6.8755 H       1  UNL1        0.0265
     48 H          20.7289   43.4122   -8.4913 H       1  UNL1        0.0265
     49 H          22.9597   44.1276   -7.6598 H       1  UNL1        0.0265
     50 H          22.5017   43.7670   -6.0146 H       1  UNL1        0.0265
     51 H          22.5097   41.6960   -8.2519 H       1  UNL1        0.0265
     52 H          23.8906   41.9818   -7.2415 H       1  UNL1        0.0265
     53 H          22.8433   41.2314   -5.2607 H       1  UNL1        0.0266
     54 H          21.2374   41.2835   -5.9033 H       1  UNL1        0.0266
     55 H          23.2761   39.3623   -7.1087 H       1  UNL1        0.0280
     56 H          22.4625   38.9947   -5.6155 H       1  UNL1        0.0280
     57 H          21.1945   37.9381   -7.3615 H       1  UNL1        0.0461
     58 H          20.2304   39.2458   -6.7007 H       1  UNL1        0.0461
     59 H          21.5942   40.3739   -8.7958 H       1  UNL1        0.1461
     60 H          19.0660   37.6850   -8.5283 H       1  UNL1        0.0639
     61 H          16.1406   39.9774  -10.6996 H       1  UNL1        0.0628
     62 H          20.0271   41.6572   -9.9139 H       1  UNL1        0.0643
     63 H          17.2486   44.1661  -11.0146 H       1  UNL1        0.1494
     64 H          17.7129   45.8154   -9.1265 H       1  UNL1        0.0286
     65 H          19.1953   45.0150   -9.4611 H       1  UNL1        0.0286
     66 H          15.6221   45.6963   -8.2315 H       1  UNL1        0.0450
     67 H          15.2851   45.0409   -9.7828 H       1  UNL1        0.0450
     68 H          13.8378   44.2715   -7.3680 H       1  UNL1        0.1223
     69 H          13.7284   42.5833   -9.0555 H       1  UNL1        0.0473
     70 H          12.1839   43.3168   -8.7479 H       1  UNL1        0.0473
     71 H          11.7428   42.1657  -11.1133 H       1  UNL1        0.0621
     72 H          11.5907   42.7236  -13.5052 H       1  UNL1        0.0618
     73 H          12.7645   44.7063  -14.4235 H       1  UNL1        0.0620
     74 H          14.3309   45.5700  -10.4964 H       1  UNL1        0.0623
     75 H          14.8391   46.1800  -14.0349 H       1  UNL1        0.0343
     76 H          16.2170   46.1209  -11.9520 H       1  UNL1        0.0235
     77 H          15.1528   47.3084  -11.2103 H       1  UNL1        0.0235
     78 H          16.1042   47.7427  -12.6241 H       1  UNL1        0.0235
     79 H          12.6621   47.3255  -14.1199 H       1  UNL1        0.0235
     80 H          13.9540   48.4816  -13.8591 H       1  UNL1        0.0235
     81 H          12.9193   48.0048  -12.5142 H       1  UNL1        0.0235
     82 H          15.0239   42.0060   -8.2045 H       1  UNL1        0.2099
     83 H          16.7806   36.8146  -10.2665 H       1  UNL1        0.0610
     84 H          16.6576   37.0486   -8.5272 H       1  UNL1        0.0610
     85 H          13.6928   39.0212   -8.6883 H       1  UNL1        0.0524
     86 H          15.3292   39.6140   -8.3849 H       1  UNL1        0.0524
     87 H          14.7650   38.1188   -7.6144 H       1  UNL1        0.0524
@<TRIPOS>BOND
     1     1     2    1
     2     1    42    1
     3     1    43    1
     4     1    44    1
     5     2    39    1
     6     2    21    1
     7     2     3    1
     8     3     4    1
     9     3    45    1
    10     3    46    1
    11     4     5    1
    12     4    47    1
    13     4    48    1
    14     5     6    1
    15     5    49    1
    16     5    50    1
    17     6     7    1
    18     6    51    1
    19     6    52    1
    20     7     8    1
    21     7    53    1
    22     7    54    1
    23     8     9    1
    24     8    55    1
    25     8    56    1
    26     9    10    1
    27     9    57    1
    28     9    58    1
    29    10    11    1
    30    10    59    1
    31    11    16   ar
    32    11    12   ar
    33    12    13   ar
    34    12    60    1
    35    13    14   ar
    36    13    36    1
    37    14    15   ar
    38    14    61    1
    39    15    16   ar
    40    15    17    1
    41    16    62    1
    42    17    18    2
    43    17    19   am
    44    19    20    1
    45    19    63    1
    46    20    40    1
    47    20    21    1
    48    20    22    1
    49    21    64    1
    50    21    65    1
    51    22    41    1
    52    22    23    1
    53    22    35    1
    54    23    24    1
    55    23    66    1
    56    23    67    1
    57    24    25    1
    58    24    68    1
    59    25    26    1
    60    25    69    1
    61    25    70    1
    62    26    31   ar
    63    26    27   ar
    64    27    28   ar
    65    27    71    1
    66    28    29   ar
    67    28    72    1
    68    29    30   ar
    69    29    73    1
    70    30    31   ar
    71    30    32    1
    72    31    74    1
    73    32    33    1
    74    32    34    1
    75    32    75    1
    76    33    76    1
    77    33    77    1
    78    33    78    1
    79    34    79    1
    80    34    80    1
    81    34    81    1
    82    35    82    1
    83    36    37    1
    84    36    83    1
    85    36    84    1
    86    37    38    1
    87    38    85    1
    88    38    86    1
    89    38    87    1
