@<TRIPOS>MOLECULE
BACE_6.smi:1
 83 85 0 0 0
SMALL
GASTEIGER
****
Structure written by MMmdl.
@<TRIPOS>ATOM
      1 C          16.6517   52.1024   -9.9256 C.3     1  UNL1       -0.0493
      2 C          17.8252   51.2501  -10.4330 C.3     1  UNL1        0.0121
      3 N          17.6746   49.8344  -10.0540 N.am    1  UNL1       -0.2978
      4 C          16.9423   49.0407  -11.0614 C.3     1  UNL1        0.0150
      5 C          17.7722   47.9608  -11.7881 C.3     1  UNL1       -0.0371
      6 C          17.0414   47.3773  -13.0176 C.3     1  UNL1       -0.0516
      7 C          15.7036   46.6625  -12.7296 C.3     1  UNL1       -0.0528
      8 C          15.8561   45.2210  -12.2117 C.3     1  UNL1       -0.0504
      9 C          14.5399   44.5740  -11.7051 C.3     1  UNL1       -0.0421
     10 C          14.7770   43.1287  -11.1859 C.3     1  UNL1       -0.0293
     11 C          14.8772   42.9929   -9.6474 C.3     1  UNL1        0.0545
     12 N          15.9650   43.8316   -9.1567 N.am    1  UNL1       -0.3058
     13 C          15.8064   44.9492   -8.4404 C.2     1  UNL1        0.2444
     14 O          14.7151   45.3500   -8.0372 O.2     1  UNL1       -0.2702
     15 C          17.0494   45.7657   -8.2842 C.ar    1  UNL1        0.0374
     16 C          18.2715   45.1717   -7.9037 C.ar    1  UNL1       -0.0496
     17 C          19.4332   45.9619   -7.8091 C.ar    1  UNL1       -0.0603
     18 C          19.3821   47.3359   -8.1177 C.ar    1  UNL1       -0.0496
     19 C          18.1700   47.9381   -8.5199 C.ar    1  UNL1        0.0376
     20 C          17.0012   47.1489   -8.5469 C.ar    1  UNL1       -0.0375
     21 C          18.1448   49.4082   -8.8469 C.2     1  UNL1        0.2466
     22 O          18.6242   50.1867   -8.0186 O.2     1  UNL1       -0.2700
     23 C          15.1109   41.5431   -9.1777 C.3     1  UNL1        0.1130
     24 C          15.2576   41.4349   -7.6399 C.3     1  UNL1       -0.0050
     25 N          14.9688   40.1109   -7.0362 N.4     1  UNL1        0.2321
     26 C          15.6252   38.9077   -7.5924 C.3     1  UNL1       -0.0076
     27 C          17.1147   39.0463   -7.8711 C.ar    1  UNL1       -0.0027
     28 C          18.0523   38.9500   -6.8254 C.ar    1  UNL1       -0.0535
     29 C          19.4218   39.1516   -7.0797 C.ar    1  UNL1       -0.0611
     30 C          19.8601   39.4601   -8.3822 C.ar    1  UNL1       -0.0583
     31 C          18.9324   39.5284   -9.4446 C.ar    1  UNL1       -0.0444
     32 C          17.5710   39.2676   -9.1872 C.ar    1  UNL1       -0.0501
     33 C          19.3708   39.9083  -10.8520 C.3     1  UNL1       -0.0215
     34 C          20.4360   38.9499  -11.3870 C.3     1  UNL1       -0.0586
     35 C          19.8304   41.3731  -10.9228 C.3     1  UNL1       -0.0586
     36 O          14.0599   40.7273   -9.6399 O.3     1  UNL1       -0.3847
     37 C          13.3998   44.5996  -12.7436 C.3     1  UNL1       -0.0624
     38 H          14.1815   45.1782  -10.8719 H       1  UNL1        0.0299
     39 H          13.9260   43.3237   -9.2270 H       1  UNL1        0.0526
     40 H          16.0205   41.2079   -9.6613 H       1  UNL1        0.0666
     41 H          16.7804   53.1454  -10.2151 H       1  UNL1        0.0245
     42 H          16.5779   52.0722   -8.8407 H       1  UNL1        0.0245
     43 H          15.7026   51.7630  -10.3380 H       1  UNL1        0.0245
     44 H          17.9128   51.3486  -11.5153 H       1  UNL1        0.0462
     45 H          18.7633   51.6556  -10.0488 H       1  UNL1        0.0462
     46 H          16.0610   48.6055  -10.6031 H       1  UNL1        0.0464
     47 H          16.5273   49.7058  -11.8202 H       1  UNL1        0.0464
     48 H          18.7112   48.4034  -12.1243 H       1  UNL1        0.0280
     49 H          18.0488   47.1534  -11.1128 H       1  UNL1        0.0280
     50 H          16.8520   48.1941  -13.7154 H       1  UNL1        0.0266
     51 H          17.7087   46.6988  -13.5510 H       1  UNL1        0.0266
     52 H          15.0924   47.2436  -12.0427 H       1  UNL1        0.0265
     53 H          15.1401   46.6362  -13.6605 H       1  UNL1        0.0265
     54 H          16.3026   44.6067  -12.9940 H       1  UNL1        0.0268
     55 H          16.5805   45.2265  -11.3975 H       1  UNL1        0.0268
     56 H          13.9586   42.4933  -11.5246 H       1  UNL1        0.0286
     57 H          15.6723   42.7028  -11.6408 H       1  UNL1        0.0286
     58 H          16.8998   43.6028   -9.4618 H       1  UNL1        0.1494
     59 H          18.3274   44.1151   -7.6797 H       1  UNL1        0.0625
     60 H          20.3677   45.5096   -7.5126 H       1  UNL1        0.0618
     61 H          20.2859   47.9256   -8.0566 H       1  UNL1        0.0625
     62 H          16.0596   47.5986   -8.7978 H       1  UNL1        0.0633
     63 H          16.2484   41.7643   -7.3228 H       1  UNL1        0.0840
     64 H          14.5477   42.1352   -7.2062 H       1  UNL1        0.0840
     65 H          15.1837   40.1719   -6.0476 H       1  UNL1        0.2018
     66 H          15.4601   38.1500   -6.8402 H       1  UNL1        0.0866
     67 H          15.1063   38.5762   -8.4923 H       1  UNL1        0.0866
     68 H          17.7183   38.7448   -5.8180 H       1  UNL1        0.0622
     69 H          20.1334   39.0924   -6.2693 H       1  UNL1        0.0618
     70 H          20.9095   39.6464   -8.5583 H       1  UNL1        0.0620
     71 H          16.8645   39.2784  -10.0037 H       1  UNL1        0.0625
     72 H          18.5054   39.8126  -11.5102 H       1  UNL1        0.0343
     73 H          20.0592   37.9304  -11.3268 H       1  UNL1        0.0235
     74 H          21.3593   39.0022  -10.8127 H       1  UNL1        0.0235
     75 H          20.6779   39.1623  -12.4282 H       1  UNL1        0.0235
     76 H          19.0384   42.0475  -10.5903 H       1  UNL1        0.0235
     77 H          20.0965   41.6515  -11.9422 H       1  UNL1        0.0235
     78 H          20.7037   41.5506  -10.2936 H       1  UNL1        0.0235
     79 H          13.2495   40.9499   -9.1826 H       1  UNL1        0.2101
     80 H          13.6358   44.0161  -13.6333 H       1  UNL1        0.0232
     81 H          13.1578   45.6122  -13.0613 H       1  UNL1        0.0232
     82 H          12.4851   44.1815  -12.3218 H       1  UNL1        0.0232
     83 H          13.9724   39.9542   -7.0968 H       1  UNL1        0.2018
@<TRIPOS>BOND
     1     1     2    1
     2     1    41    1
     3     1    42    1
     4     1    43    1
     5     2     3    1
     6     2    44    1
     7     2    45    1
     8     3    21   am
     9     3     4    1
    10     4     5    1
    11     4    46    1
    12     4    47    1
    13     5     6    1
    14     5    48    1
    15     5    49    1
    16     6     7    1
    17     6    50    1
    18     6    51    1
    19     7     8    1
    20     7    52    1
    21     7    53    1
    22     8     9    1
    23     8    54    1
    24     8    55    1
    25     9    38    1
    26     9    10    1
    27     9    37    1
    28    10    11    1
    29    10    56    1
    30    10    57    1
    31    11    39    1
    32    11    12    1
    33    11    23    1
    34    12    13   am
    35    12    58    1
    36    13    14    2
    37    13    15    1
    38    15    20   ar
    39    15    16   ar
    40    16    17   ar
    41    16    59    1
    42    17    18   ar
    43    17    60    1
    44    18    19   ar
    45    18    61    1
    46    19    20   ar
    47    19    21    1
    48    20    62    1
    49    21    22    2
    50    23    40    1
    51    23    24    1
    52    23    36    1
    53    24    25    1
    54    24    63    1
    55    24    64    1
    56    25    26    1
    57    25    65    1
    58    25    83    1
    59    26    27    1
    60    26    66    1
    61    26    67    1
    62    27    32   ar
    63    27    28   ar
    64    28    29   ar
    65    28    68    1
    66    29    30   ar
    67    29    69    1
    68    30    31   ar
    69    30    70    1
    70    31    32   ar
    71    31    33    1
    72    32    71    1
    73    33    34    1
    74    33    35    1
    75    33    72    1
    76    34    73    1
    77    34    74    1
    78    34    75    1
    79    35    76    1
    80    35    77    1
    81    35    78    1
    82    36    79    1
    83    37    80    1
    84    37    81    1
    85    37    82    1
