@<TRIPOS>MOLECULE
BACE_17.smi:1
 62 64 0 0 0
SMALL
GASTEIGER
****
Structure written by MMmdl.
@<TRIPOS>ATOM
      1 C          20.3784   48.2936   -8.4402 C.3     1  UNL1        0.0031
      2 N          19.5700   48.0720   -7.2373 N.am    1  UNL1       -0.3036
      3 C          18.7953   49.2310   -6.7891 C.3     1  UNL1        0.0031
      4 C          19.4444   46.8831   -6.5995 C.2     1  UNL1        0.2463
      5 O          18.7214   46.7320   -5.6106 O.2     1  UNL1       -0.2700
      6 C          20.2393   45.7069   -7.1024 C.ar    1  UNL1        0.0410
      7 C          21.0711   44.9690   -6.2283 C.ar    1  UNL1       -0.0078
      8 C          20.0609   45.2572   -8.4299 C.ar    1  UNL1       -0.0373
      9 C          20.6623   44.0601   -8.8688 C.ar    1  UNL1        0.0409
     10 C          21.5159   43.3567   -7.9964 C.ar    1  UNL1       -0.0078
     11 C          21.7123   43.7887   -6.6729 C.ar    1  UNL1        0.1219
     12 C          20.3630   43.5041  -10.2271 C.2     1  UNL1        0.2445
     13 O          20.5130   44.1732  -11.2484 O.2     1  UNL1       -0.2702
     14 N          19.9165   42.2382  -10.2011 N.am    1  UNL1       -0.3056
     15 C          19.6237   41.3696  -11.3428 C.3     1  UNL1        0.0554
     16 C          18.0969   41.3688  -11.6433 C.3     1  UNL1        0.0968
     17 O          17.3935   40.9636  -10.4847 O.3     1  UNL1       -0.3877
     18 C          17.5146   42.7527  -12.0072 C.3     1  UNL1        0.0719
     19 O          18.0601   43.2087  -13.2300 O.3     1  UNL1       -0.3924
     20 C          20.1952   39.9625  -11.0160 C.3     1  UNL1       -0.0066
     21 C          19.6059   39.3186   -9.7637 C.ar    1  UNL1       -0.0421
     22 C          20.1731   39.5757   -8.4950 C.ar    1  UNL1       -0.0167
     23 C          19.5913   39.0398   -7.3175 C.ar    1  UNL1        0.1208
     24 C          18.4601   38.2092   -7.4383 C.ar    1  UNL1       -0.0199
     25 C          17.9117   37.9179   -8.7010 C.ar    1  UNL1       -0.0580
     26 C          18.4810   38.4730   -9.8612 C.ar    1  UNL1       -0.0583
     27 O          20.0497   39.2821   -6.0400 O.3     1  UNL1       -0.4920
     28 C          21.0989   40.2246   -5.8663 C.3     1  UNL1        0.0897
     29 C          21.2135   40.5754   -4.3776 C.3     1  UNL1       -0.0156
     30 C          22.4015   41.4914   -4.0171 C.3     1  UNL1       -0.0156
     31 C          22.2366   42.9449   -4.4882 C.3     1  UNL1        0.0897
     32 O          22.5123   42.9988   -5.8813 O.3     1  UNL1       -0.4919
     33 H          20.1498   41.7459  -12.2223 H       1  UNL1        0.0528
     34 H          17.8877   40.6528  -12.4399 H       1  UNL1        0.0635
     35 H          21.3831   48.6175   -8.1676 H       1  UNL1        0.0428
     36 H          19.9402   49.0665   -9.0730 H       1  UNL1        0.0428
     37 H          20.4567   47.3992   -9.0598 H       1  UNL1        0.0428
     38 H          17.7440   49.1112   -7.0589 H       1  UNL1        0.0428
     39 H          19.1545   50.1614   -7.2315 H       1  UNL1        0.0428
     40 H          18.8598   49.3502   -5.7057 H       1  UNL1        0.0428
     41 H          21.1933   45.3044   -5.2090 H       1  UNL1        0.0662
     42 H          19.3947   45.7925   -9.0921 H       1  UNL1        0.0633
     43 H          21.9969   42.4471   -8.3260 H       1  UNL1        0.0662
     44 H          19.7728   41.8325   -9.2881 H       1  UNL1        0.1494
     45 H          17.6713   41.5339   -9.7775 H       1  UNL1        0.2100
     46 H          16.4274   42.7099  -12.0809 H       1  UNL1        0.0583
     47 H          17.7500   43.5051  -11.2573 H       1  UNL1        0.0583
     48 H          18.9867   43.3928  -13.0865 H       1  UNL1        0.2095
     49 H          20.0735   39.2853  -11.8604 H       1  UNL1        0.0332
     50 H          21.2746   40.0417  -10.8788 H       1  UNL1        0.0332
     51 H          21.0482   40.2049   -8.4442 H       1  UNL1        0.0657
     52 H          18.0051   37.7975   -6.5493 H       1  UNL1        0.0654
     53 H          17.0439   37.2786   -8.7796 H       1  UNL1        0.0619
     54 H          18.0349   38.2555  -10.8204 H       1  UNL1        0.0620
     55 H          22.0368   39.8122   -6.2406 H       1  UNL1        0.0696
     56 H          20.8697   41.1315   -6.4215 H       1  UNL1        0.0696
     57 H          20.2811   41.0377   -4.0549 H       1  UNL1        0.0299
     58 H          21.2995   39.6547   -3.8041 H       1  UNL1        0.0299
     59 H          22.5038   41.4982   -2.9313 H       1  UNL1        0.0299
     60 H          23.3351   41.0739   -4.3954 H       1  UNL1        0.0299
     61 H          21.2336   43.2860   -4.2295 H       1  UNL1        0.0696
     62 H          22.9453   43.5935   -3.9723 H       1  UNL1        0.0696
@<TRIPOS>BOND
     1     1     2    1
     2     1    35    1
     3     1    36    1
     4     1    37    1
     5     2     3    1
     6     2     4   am
     7     3    38    1
     8     3    39    1
     9     3    40    1
    10     4     5    2
    11     4     6    1
    12     6     7   ar
    13     6     8   ar
    14     7    11   ar
    15     7    41    1
    16     8     9   ar
    17     8    42    1
    18     9    10   ar
    19     9    12    1
    20    10    11   ar
    21    10    43    1
    22    11    32    1
    23    12    13    2
    24    12    14   am
    25    14    15    1
    26    14    44    1
    27    15    33    1
    28    15    16    1
    29    15    20    1
    30    16    34    1
    31    16    17    1
    32    16    18    1
    33    17    45    1
    34    18    19    1
    35    18    46    1
    36    18    47    1
    37    19    48    1
    38    20    21    1
    39    20    49    1
    40    20    50    1
    41    21    26   ar
    42    21    22   ar
    43    22    23   ar
    44    22    51    1
    45    23    24   ar
    46    23    27    1
    47    24    25   ar
    48    24    52    1
    49    25    26   ar
    50    25    53    1
    51    26    54    1
    52    27    28    1
    53    28    29    1
    54    28    55    1
    55    28    56    1
    56    29    30    1
    57    29    57    1
    58    29    58    1
    59    30    31    1
    60    30    59    1
    61    30    60    1
    62    31    32    1
    63    31    61    1
    64    31    62    1
