@<TRIPOS>MOLECULE
BACE_20.smi:1
 78 79 0 0 0
SMALL
GASTEIGER
****
Structure written by MMmdl.
@<TRIPOS>ATOM
      1 C          23.1102   46.5020  -16.2907 C.3     1  UNL1       -0.0652
      2 C          23.4762   46.7836  -14.8288 C.3     1  UNL1       -0.0545
      3 C          24.6835   45.9651  -14.3540 C.3     1  UNL1       -0.0377
      4 C          25.0985   46.3095  -12.9180 C.3     1  UNL1        0.0104
      5 N          26.2474   45.5272  -12.4849 N.pl3   1  UNL1       -0.3289
      6 C          26.1149   44.2413  -11.9475 C.ar    1  UNL1        0.1232
      7 C          24.9443   43.7803  -11.3105 C.ar    1  UNL1       -0.0095
      8 C          24.9358   42.4902  -10.7338 C.ar    1  UNL1        0.0450
      9 C          26.1080   41.7062  -10.8399 C.ar    1  UNL1        0.0122
     10 C          27.2211   42.2410  -11.5181 C.ar    1  UNL1        0.2168
     11 N          27.2220   43.4852  -12.0541 N.ar    1  UNL1       -0.1981
     12 O          28.3633   41.4793  -11.6392 O.3     1  UNL1       -0.4796
     13 C          29.4630   42.0255  -12.3597 C.3     1  UNL1        0.0804
     14 C          23.7012   41.9927  -10.0339 C.2     1  UNL1        0.2446
     15 O          22.5996   42.4738  -10.3000 O.2     1  UNL1       -0.2702
     16 N          23.9054   41.1170   -9.0322 N.am    1  UNL1       -0.3057
     17 C          22.9488   40.7517   -7.9731 C.3     1  UNL1        0.0533
     18 C          22.6549   42.0430   -7.1465 C.3     1  UNL1       -0.0068
     19 C          22.0229   41.9172   -5.7652 C.ar    1  UNL1       -0.0455
     20 C          22.4614   40.9535   -4.8297 C.ar    1  UNL1       -0.0585
     21 C          21.8916   40.8951   -3.5454 C.ar    1  UNL1       -0.0615
     22 C          20.8876   41.8082   -3.1715 C.ar    1  UNL1       -0.0617
     23 C          20.4602   42.7841   -4.0883 C.ar    1  UNL1       -0.0615
     24 C          21.0239   42.8379   -5.3782 C.ar    1  UNL1       -0.0585
     25 C          21.6861   40.0207   -8.5398 C.3     1  UNL1        0.0745
     26 C          20.9026   39.1921   -7.4836 C.3     1  UNL1       -0.0143
     27 C          19.3543   39.2598   -7.5046 C.3     1  UNL1        0.0351
     28 C          18.7961   40.6928   -7.5715 C.3     1  UNL1       -0.0540
     29 C          18.6958   38.4020   -8.5903 C.2     1  UNL1        0.2159
     30 O          19.1013   38.4252   -9.7511 O.2     1  UNL1       -0.2755
     31 N          17.6180   37.7016   -8.2051 N.am    1  UNL1       -0.3151
     32 C          16.6659   37.0666   -9.1055 C.3     1  UNL1        0.0116
     33 C          15.4471   37.9730   -9.3735 C.3     1  UNL1       -0.0376
     34 C          15.7934   39.3488   -9.9756 C.3     1  UNL1       -0.0545
     35 C          14.5639   40.1731  -10.3717 C.3     1  UNL1       -0.0652
     36 O          22.0598   39.1407   -9.5867 O.3     1  UNL1       -0.3899
     37 H          23.4987   40.0455   -7.3517 H       1  UNL1        0.0527
     38 H          21.0371   40.7661   -8.9927 H       1  UNL1        0.0612
     39 H          19.0353   38.8457   -6.5454 H       1  UNL1        0.0392
     40 H          22.2424   47.0867  -16.5928 H       1  UNL1        0.0230
     41 H          22.8668   45.4497  -16.4402 H       1  UNL1        0.0230
     42 H          23.9310   46.7529  -16.9618 H       1  UNL1        0.0230
     43 H          22.6168   46.5656  -14.1918 H       1  UNL1        0.0263
     44 H          23.6833   47.8484  -14.7116 H       1  UNL1        0.0263
     45 H          25.5262   46.1535  -15.0178 H       1  UNL1        0.0280
     46 H          24.4607   44.9000  -14.4277 H       1  UNL1        0.0280
     47 H          24.2585   46.2021  -12.2341 H       1  UNL1        0.0461
     48 H          25.3827   47.3617  -12.8720 H       1  UNL1        0.0461
     49 H          27.1366   45.7325  -12.9147 H       1  UNL1        0.1475
     50 H          24.0640   44.3986  -11.2279 H       1  UNL1        0.0659
     51 H          26.1600   40.7020  -10.4448 H       1  UNL1        0.0678
     52 H          30.3036   41.3341  -12.3331 H       1  UNL1        0.0660
     53 H          29.8054   42.9643  -11.9212 H       1  UNL1        0.0660
     54 H          29.2014   42.1937  -13.4051 H       1  UNL1        0.0660
     55 H          24.8465   40.7656   -8.9307 H       1  UNL1        0.1494
     56 H          23.5897   42.5816   -6.9875 H       1  UNL1        0.0332
     57 H          22.0308   42.7099   -7.7434 H       1  UNL1        0.0332
     58 H          23.2413   40.2528   -5.0856 H       1  UNL1        0.0620
     59 H          22.2310   40.1510   -2.8407 H       1  UNL1        0.0618
     60 H          20.4496   41.7645   -2.1849 H       1  UNL1        0.0618
     61 H          19.6960   43.4907   -3.8032 H       1  UNL1        0.0618
     62 H          20.6869   43.5952   -6.0694 H       1  UNL1        0.0620
     63 H          21.2036   39.4944   -6.4891 H       1  UNL1        0.0298
     64 H          21.2181   38.1501   -7.5263 H       1  UNL1        0.0298
     65 H          19.2964   41.3409   -6.8567 H       1  UNL1        0.0237
     66 H          17.7358   40.7059   -7.3155 H       1  UNL1        0.0237
     67 H          18.8943   41.1367   -8.5627 H       1  UNL1        0.0237
     68 H          17.3550   37.6982   -7.2268 H       1  UNL1        0.1487
     69 H          16.3320   36.1410   -8.6357 H       1  UNL1        0.0462
     70 H          17.1463   36.7814  -10.0402 H       1  UNL1        0.0462
     71 H          14.8952   38.1222   -8.4436 H       1  UNL1        0.0280
     72 H          14.7738   37.4399  -10.0400 H       1  UNL1        0.0280
     73 H          16.4453   39.2271  -10.8403 H       1  UNL1        0.0263
     74 H          16.3590   39.9253   -9.2467 H       1  UNL1        0.0263
     75 H          14.8512   41.1926  -10.6269 H       1  UNL1        0.0230
     76 H          13.8432   40.2260   -9.5540 H       1  UNL1        0.0230
     77 H          14.0599   39.7497  -11.2375 H       1  UNL1        0.0230
     78 H          22.8152   38.6352   -9.3193 H       1  UNL1        0.2099
@<TRIPOS>BOND
     1     1     2    1
     2     1    40    1
     3     1    41    1
     4     1    42    1
     5     2     3    1
     6     2    43    1
     7     2    44    1
     8     3     4    1
     9     3    45    1
    10     3    46    1
    11     4     5    1
    12     4    47    1
    13     4    48    1
    14     5     6    1
    15     5    49    1
    16     6    11   ar
    17     6     7   ar
    18     7     8   ar
    19     7    50    1
    20     8     9   ar
    21     8    14    1
    22     9    10   ar
    23     9    51    1
    24    10    11   ar
    25    10    12    1
    26    12    13    1
    27    13    52    1
    28    13    53    1
    29    13    54    1
    30    14    15    2
    31    14    16   am
    32    16    17    1
    33    16    55    1
    34    17    37    1
    35    17    18    1
    36    17    25    1
    37    18    19    1
    38    18    56    1
    39    18    57    1
    40    19    24   ar
    41    19    20   ar
    42    20    21   ar
    43    20    58    1
    44    21    22   ar
    45    21    59    1
    46    22    23   ar
    47    22    60    1
    48    23    24   ar
    49    23    61    1
    50    24    62    1
    51    25    38    1
    52    25    26    1
    53    25    36    1
    54    26    27    1
    55    26    63    1
    56    26    64    1
    57    27    39    1
    58    27    28    1
    59    27    29    1
    60    28    65    1
    61    28    66    1
    62    28    67    1
    63    29    30    2
    64    29    31   am
    65    31    32    1
    66    31    68    1
    67    32    33    1
    68    32    69    1
    69    32    70    1
    70    33    34    1
    71    33    71    1
    72    33    72    1
    73    34    35    1
    74    34    73    1
    75    34    74    1
    76    35    75    1
    77    35    76    1
    78    35    77    1
    79    36    78    1
