@<TRIPOS>MOLECULE
BACE_4.smi:1
 89 91 0 0 0
SMALL
GASTEIGER
****
Structure written by MMmdl.
@<TRIPOS>ATOM
      1 C          21.2763   44.9573   -5.2384 C.3     1  UNL1       -0.0624
      2 C          22.5807   44.3463   -4.7344 C.3     1  UNL1       -0.0421
      3 C          23.6938   44.5281   -5.7897 C.3     1  UNL1       -0.0504
      4 C          23.5703   45.8369   -6.5930 C.3     1  UNL1       -0.0528
      5 C          23.7085   47.1225   -5.7520 C.3     1  UNL1       -0.0530
      6 C          23.4915   48.4253   -6.5541 C.3     1  UNL1       -0.0510
      7 C          22.1075   48.5733   -7.2273 C.3     1  UNL1       -0.0294
      8 C          20.9196   48.5478   -6.2430 C.3     1  UNL1        0.0483
      9 O          19.5354   48.6935   -6.9141 O.3     1  UNL1       -0.3706
     10 C          19.0914   47.5037   -7.8101 C.3     1  UNL1        0.1238
     11 C          18.8914   46.1559   -7.1001 C.2     1  UNL1        0.2417
     12 O          18.6796   46.1112   -5.8994 O.2     1  UNL1       -0.2731
     13 N          18.9392   45.0688   -7.8850 N.am    1  UNL1       -0.2914
     14 C          18.8600   43.6935   -7.3447 C.3     1  UNL1        0.0991
     15 C          20.2701   43.1172   -7.0911 C.2     1  UNL1        0.2336
     16 O          21.1472   43.2032   -7.9348 O.2     1  UNL1       -0.2738
     17 N          20.4507   42.5252   -5.8977 N.am    1  UNL1       -0.3084
     18 C          21.7136   41.9552   -5.4124 C.3     1  UNL1        0.0505
     19 C          22.3238   42.8792   -4.3171 C.3     1  UNL1       -0.0295
     20 C          21.5085   40.4706   -4.9757 C.3     1  UNL1        0.0859
     21 C          20.9750   39.5397   -6.0867 C.3     1  UNL1        0.0245
     22 N          19.5159   39.4166   -6.0417 N.3     1  UNL1       -0.3042
     23 C          18.8816   38.9237   -7.2740 C.3     1  UNL1        0.0447
     24 C          17.3728   38.9299   -7.3346 C.3     1  UNL1       -0.0285
     25 C          18.1174   37.6237   -7.1954 C.3     1  UNL1       -0.0285
     26 C          19.6399   39.2190   -8.5601 C.ar    1  UNL1       -0.0271
     27 C          20.8326   38.5252   -8.8522 C.ar    1  UNL1       -0.0568
     28 C          21.5401   38.7958  -10.0359 C.ar    1  UNL1       -0.0612
     29 C          21.0630   39.7645  -10.9376 C.ar    1  UNL1       -0.0580
     30 C          19.8713   40.4843  -10.6751 C.ar    1  UNL1       -0.0417
     31 C          19.1735   40.1938   -9.4726 C.ar    1  UNL1       -0.0531
     32 C          19.3795   41.5449  -11.6890 C.3     1  UNL1       -0.0127
     33 C          19.9687   41.2456  -13.0872 C.3     1  UNL1       -0.0560
     34 C          17.8353   41.5161  -11.7693 C.3     1  UNL1       -0.0560
     35 C          19.7934   42.9902  -11.3153 C.3     1  UNL1       -0.0560
     36 O          22.7336   39.9181   -4.5317 O.3     1  UNL1       -0.3887
     37 C          18.1805   42.7989   -8.3774 C.3     1  UNL1       -0.0379
     38 C          19.1958   45.2692   -9.2969 C.3     1  UNL1        0.0040
     39 H          22.8396   44.9277   -3.8495 H       1  UNL1        0.0299
     40 H          18.2421   43.6331   -6.4488 H       1  UNL1        0.0594
     41 H          22.4030   41.9516   -6.2563 H       1  UNL1        0.0524
     42 H          20.8145   40.4181   -4.1357 H       1  UNL1        0.0624
     43 H          21.4055   46.0016   -5.5221 H       1  UNL1        0.0232
     44 H          20.4975   44.9363   -4.4769 H       1  UNL1        0.0232
     45 H          20.8964   44.4264   -6.1121 H       1  UNL1        0.0232
     46 H          24.6727   44.4617   -5.3149 H       1  UNL1        0.0268
     47 H          23.6600   43.7074   -6.5062 H       1  UNL1        0.0268
     48 H          22.6072   45.8247   -7.1033 H       1  UNL1        0.0265
     49 H          24.3219   45.8444   -7.3824 H       1  UNL1        0.0265
     50 H          23.0151   47.0985   -4.9113 H       1  UNL1        0.0265
     51 H          24.7015   47.1457   -5.3031 H       1  UNL1        0.0265
     52 H          24.2641   48.5022   -7.3191 H       1  UNL1        0.0266
     53 H          23.6552   49.2758   -5.8922 H       1  UNL1        0.0266
     54 H          22.0886   49.5134   -7.7786 H       1  UNL1        0.0287
     55 H          21.9872   47.7975   -7.9834 H       1  UNL1        0.0287
     56 H          21.0459   49.3569   -5.5236 H       1  UNL1        0.0560
     57 H          20.9366   47.6303   -5.6548 H       1  UNL1        0.0560
     58 H          19.7984   47.3810   -8.6305 H       1  UNL1        0.0657
     59 H          18.1386   47.7520   -8.2776 H       1  UNL1        0.0657
     60 H          19.6566   42.5048   -5.2740 H       1  UNL1        0.1491
     61 H          21.6580   42.8744   -3.4542 H       1  UNL1        0.0286
     62 H          23.2546   42.4385   -3.9598 H       1  UNL1        0.0286
     63 H          21.4198   38.5517   -5.9617 H       1  UNL1        0.0450
     64 H          21.2991   39.8937   -7.0649 H       1  UNL1        0.0450
     65 H          19.0891   40.2906   -5.7516 H       1  UNL1        0.1229
     66 H          16.8340   39.2993   -6.4620 H       1  UNL1        0.0287
     67 H          16.9071   39.1456   -8.2963 H       1  UNL1        0.0287
     68 H          18.1496   36.9660   -8.0640 H       1  UNL1        0.0287
     69 H          18.0766   37.1197   -6.2298 H       1  UNL1        0.0287
     70 H          21.2105   37.7798   -8.1674 H       1  UNL1        0.0621
     71 H          22.4520   38.2592  -10.2535 H       1  UNL1        0.0618
     72 H          21.6321   39.9466  -11.8369 H       1  UNL1        0.0620
     73 H          18.2636   40.7131   -9.2169 H       1  UNL1        0.0624
     74 H          21.0594   41.2455  -13.0664 H       1  UNL1        0.0238
     75 H          19.6599   41.9926  -13.8197 H       1  UNL1        0.0238
     76 H          19.6510   40.2780  -13.4760 H       1  UNL1        0.0238
     77 H          17.3837   41.7115  -10.7957 H       1  UNL1        0.0238
     78 H          17.4529   40.5569  -12.1183 H       1  UNL1        0.0238
     79 H          17.4564   42.2721  -12.4584 H       1  UNL1        0.0238
     80 H          19.3835   43.2969  -10.3520 H       1  UNL1        0.0238
     81 H          19.4300   43.7101  -12.0500 H       1  UNL1        0.0238
     82 H          20.8773   43.1082  -11.2764 H       1  UNL1        0.0238
     83 H          23.0054   40.3789   -3.7527 H       1  UNL1        0.2099
     84 H          18.0733   41.7783   -8.0074 H       1  UNL1        0.0252
     85 H          18.7407   42.7521   -9.3118 H       1  UNL1        0.0252
     86 H          17.1789   43.1599   -8.6141 H       1  UNL1        0.0252
     87 H          19.0574   44.3701   -9.8944 H       1  UNL1        0.0429
     88 H          20.2162   45.6152   -9.4663 H       1  UNL1        0.0429
     89 H          18.5026   45.9953   -9.7236 H       1  UNL1        0.0429
@<TRIPOS>BOND
     1     1     2    1
     2     1    43    1
     3     1    44    1
     4     1    45    1
     5     2    39    1
     6     2    19    1
     7     2     3    1
     8     3     4    1
     9     3    46    1
    10     3    47    1
    11     4     5    1
    12     4    48    1
    13     4    49    1
    14     5     6    1
    15     5    50    1
    16     5    51    1
    17     6     7    1
    18     6    52    1
    19     6    53    1
    20     7     8    1
    21     7    54    1
    22     7    55    1
    23     8     9    1
    24     8    56    1
    25     8    57    1
    26     9    10    1
    27    10    11    1
    28    10    58    1
    29    10    59    1
    30    11    12    2
    31    11    13   am
    32    13    14    1
    33    13    38    1
    34    14    40    1
    35    14    15    1
    36    14    37    1
    37    15    16    2
    38    15    17   am
    39    17    18    1
    40    17    60    1
    41    18    41    1
    42    18    19    1
    43    18    20    1
    44    19    61    1
    45    19    62    1
    46    20    42    1
    47    20    21    1
    48    20    36    1
    49    21    22    1
    50    21    63    1
    51    21    64    1
    52    22    23    1
    53    22    65    1
    54    23    25    1
    55    23    24    1
    56    23    26    1
    57    24    25    1
    58    24    66    1
    59    24    67    1
    60    25    68    1
    61    25    69    1
    62    26    31   ar
    63    26    27   ar
    64    27    28   ar
    65    27    70    1
    66    28    29   ar
    67    28    71    1
    68    29    30   ar
    69    29    72    1
    70    30    31   ar
    71    30    32    1
    72    31    73    1
    73    32    33    1
    74    32    34    1
    75    32    35    1
    76    33    74    1
    77    33    75    1
    78    33    76    1
    79    34    77    1
    80    34    78    1
    81    34    79    1
    82    35    80    1
    83    35    81    1
    84    35    82    1
    85    36    83    1
    86    37    84    1
    87    37    85    1
    88    37    86    1
    89    38    87    1
    90    38    88    1
    91    38    89    1
