@<TRIPOS>MOLECULE
BACE_5.smi:1
 79 80 0 0 0
SMALL
GASTEIGER
****
Structure written by MMmdl.
@<TRIPOS>ATOM
      1 C          21.6778   38.6902   -9.1709 C.3     1  UNL1       -0.0649
      2 C          21.9851   39.0464   -7.7066 C.3     1  UNL1       -0.0504
      3 C          20.9577   39.9774   -7.0395 C.3     1  UNL1       -0.0089
      4 C          19.5481   39.4517   -7.0615 C.ar    1  UNL1        0.0631
      5 C          18.3905   40.0437   -7.6397 C.ar    1  UNL1       -0.0168
      6 C          17.3747   39.1822   -7.3367 C.ar    1  UNL1        0.0501
      7 N          17.9454   38.1505   -6.6404 N.ar    1  UNL1       -0.2801
      8 N          19.2637   38.3187   -6.4421 N.ar    1  UNL1       -0.1786
      9 C          15.9238   39.2074   -7.6682 C.3     1  UNL1        0.0380
     10 N          15.7799   39.2440   -9.1183 N.3     1  UNL1       -0.3081
     11 C          14.7792   40.1732   -9.6199 C.3     1  UNL1        0.0240
     12 C          15.1844   40.6453  -11.0330 C.3     1  UNL1        0.0859
     13 C          16.4069   41.6176  -11.1165 C.3     1  UNL1        0.0505
     14 C          17.7601   40.8622  -11.2324 C.3     1  UNL1       -0.0295
     15 C          19.0256   41.7120  -11.5272 C.3     1  UNL1       -0.0421
     16 C          19.6903   42.2484  -10.2428 C.3     1  UNL1       -0.0504
     17 C          20.7310   43.3552  -10.4623 C.3     1  UNL1       -0.0528
     18 C          21.1879   43.9690   -9.1300 C.3     1  UNL1       -0.0530
     19 C          22.1772   45.1450   -9.2579 C.3     1  UNL1       -0.0510
     20 C          21.6713   46.3669  -10.0523 C.3     1  UNL1       -0.0294
     21 C          20.2716   46.8572   -9.6608 C.3     1  UNL1        0.0483
     22 O          20.2210   47.1387   -8.2657 O.3     1  UNL1       -0.3706
     23 C          18.9207   47.4320   -7.7633 C.3     1  UNL1        0.1238
     24 C          18.0637   46.1498   -7.6913 C.2     1  UNL1        0.2417
     25 O          18.3354   45.3508   -6.7939 O.2     1  UNL1       -0.2731
     26 N          17.0932   45.9164   -8.6185 N.am    1  UNL1       -0.2914
     27 C          16.3759   44.6142   -8.6700 C.3     1  UNL1        0.0991
     28 C          16.4447   43.8751  -10.0257 C.2     1  UNL1        0.2336
     29 O          16.5086   44.4913  -11.0915 O.2     1  UNL1       -0.2738
     30 N          16.4117   42.5312   -9.9716 N.am    1  UNL1       -0.3084
     31 C          14.9266   44.7945   -8.1849 C.3     1  UNL1       -0.0379
     32 C          16.6467   46.9731   -9.5414 C.3     1  UNL1        0.0040
     33 C          20.0434   40.8810  -12.3324 C.3     1  UNL1       -0.0624
     34 O          14.0599   41.2487  -11.6392 O.3     1  UNL1       -0.3887
     35 H          17.4250   37.3408   -6.2981 H       1  UNL1        0.1886
     36 H          15.3856   39.7612  -11.6398 H       1  UNL1        0.0624
     37 H          16.3113   42.1862  -12.0402 H       1  UNL1        0.0524
     38 H          18.7267   42.5570  -12.1503 H       1  UNL1        0.0299
     39 H          16.8323   43.9199   -7.9614 H       1  UNL1        0.0594
     40 H          22.4584   38.0424   -9.5764 H       1  UNL1        0.0230
     41 H          21.6347   39.5836   -9.7965 H       1  UNL1        0.0230
     42 H          20.7277   38.1569   -9.2644 H       1  UNL1        0.0230
     43 H          22.9721   39.5081   -7.6602 H       1  UNL1        0.0266
     44 H          22.0569   38.1260   -7.1292 H       1  UNL1        0.0266
     45 H          20.9882   40.9503   -7.5285 H       1  UNL1        0.0329
     46 H          21.2587   40.1559   -6.0089 H       1  UNL1        0.0329
     47 H          18.3066   40.9723   -8.1708 H       1  UNL1        0.0654
     48 H          15.4753   40.0810   -7.1950 H       1  UNL1        0.0489
     49 H          15.4121   38.3369   -7.2558 H       1  UNL1        0.0489
     50 H          15.5437   38.3116   -9.4379 H       1  UNL1        0.1224
     51 H          14.6503   41.0251   -8.9556 H       1  UNL1        0.0450
     52 H          13.8121   39.6685   -9.6427 H       1  UNL1        0.0450
     53 H          17.9387   40.2400  -10.3582 H       1  UNL1        0.0286
     54 H          17.6421   40.1496  -12.0446 H       1  UNL1        0.0286
     55 H          18.9348   42.6493   -9.5741 H       1  UNL1        0.0268
     56 H          20.1501   41.4255   -9.6989 H       1  UNL1        0.0268
     57 H          20.2997   44.1287  -11.0990 H       1  UNL1        0.0265
     58 H          21.5995   42.9654  -10.9936 H       1  UNL1        0.0265
     59 H          20.3188   44.2931   -8.5535 H       1  UNL1        0.0265
     60 H          21.6553   43.1920   -8.5226 H       1  UNL1        0.0265
     61 H          23.1039   44.7856   -9.7073 H       1  UNL1        0.0266
     62 H          22.4483   45.4716   -8.2524 H       1  UNL1        0.0266
     63 H          22.3862   47.1819   -9.9321 H       1  UNL1        0.0287
     64 H          21.6721   46.1270  -11.1165 H       1  UNL1        0.0287
     65 H          19.5455   46.1019   -9.9500 H       1  UNL1        0.0560
     66 H          20.0260   47.7615  -10.2163 H       1  UNL1        0.0560
     67 H          18.4742   48.2508   -8.3252 H       1  UNL1        0.0657
     68 H          19.0431   47.8085   -6.7463 H       1  UNL1        0.0657
     69 H          16.3595   42.1006   -9.0568 H       1  UNL1        0.1491
     70 H          14.4510   43.8241   -8.0359 H       1  UNL1        0.0252
     71 H          14.3306   45.3285   -8.9219 H       1  UNL1        0.0252
     72 H          14.8853   45.3475   -7.2447 H       1  UNL1        0.0252
     73 H          15.7355   46.7020  -10.0767 H       1  UNL1        0.0429
     74 H          17.4081   47.1904  -10.2906 H       1  UNL1        0.0429
     75 H          16.4095   47.8912   -9.0040 H       1  UNL1        0.0429
     76 H          20.9187   41.4623  -12.6200 H       1  UNL1        0.0232
     77 H          19.6012   40.4989  -13.2487 H       1  UNL1        0.0232
     78 H          20.3904   40.0175  -11.7637 H       1  UNL1        0.0232
     79 H          13.2913   40.8505  -11.2412 H       1  UNL1        0.2099
@<TRIPOS>BOND
     1     1     2    1
     2     1    40    1
     3     1    41    1
     4     1    42    1
     5     2     3    1
     6     2    43    1
     7     2    44    1
     8     3    45    1
     9     3    46    1
    10     3     4    1
    11     4     8   ar
    12     4     5   ar
    13     5     6   ar
    14     5    47    1
    15     6     7   ar
    16     6     9    1
    17     7     8   ar
    18     7    35    1
    19     9    10    1
    20     9    48    1
    21     9    49    1
    22    10    11    1
    23    10    50    1
    24    11    12    1
    25    11    51    1
    26    11    52    1
    27    12    36    1
    28    12    13    1
    29    12    34    1
    30    13    37    1
    31    13    30    1
    32    13    14    1
    33    14    15    1
    34    14    53    1
    35    14    54    1
    36    15    38    1
    37    15    16    1
    38    15    33    1
    39    16    17    1
    40    16    55    1
    41    16    56    1
    42    17    18    1
    43    17    57    1
    44    17    58    1
    45    18    19    1
    46    18    59    1
    47    18    60    1
    48    19    20    1
    49    19    61    1
    50    19    62    1
    51    20    21    1
    52    20    63    1
    53    20    64    1
    54    21    22    1
    55    21    65    1
    56    21    66    1
    57    22    23    1
    58    23    24    1
    59    23    67    1
    60    23    68    1
    61    24    25    2
    62    24    26   am
    63    26    27    1
    64    26    32    1
    65    27    39    1
    66    27    28    1
    67    27    31    1
    68    28    29    2
    69    28    30   am
    70    30    69    1
    71    31    70    1
    72    31    71    1
    73    31    72    1
    74    32    73    1
    75    32    74    1
    76    32    75    1
    77    33    76    1
    78    33    77    1
    79    33    78    1
    80    34    79    1
