@<TRIPOS>MOLECULE
BACE_13.smi:1
 77 80 0 0 0
SMALL
GASTEIGER
****
Structure written by MMmdl.
@<TRIPOS>ATOM
      1 C          19.9646   42.2336   -2.1297 C.3     1  UNL1        0.0369
      2 O          20.9894   41.3065   -2.4586 O.3     1  UNL1       -0.3784
      3 C          21.9057   41.7620   -3.4488 C.3     1  UNL1        0.0724
      4 C          21.4156   41.5320   -4.8705 C.ar    1  UNL1       -0.0195
      5 C          20.5704   42.4756   -5.4852 C.ar    1  UNL1       -0.0442
      6 C          20.0582   42.2531   -6.7826 C.ar    1  UNL1        0.0388
      7 C          20.4716   41.1007   -7.4933 C.ar    1  UNL1       -0.0287
      8 C          21.3335   40.1470   -6.8944 C.ar    1  UNL1        0.0282
      9 C          21.7927   40.3717   -5.5788 C.ar    1  UNL1       -0.0355
     10 N          21.7385   38.9670   -7.5452 N.pl3   1  UNL1       -0.3438
     11 C          21.0293   38.4783   -8.7212 C.3     1  UNL1        0.0092
     12 C          21.5415   39.0988  -10.0250 C.3     1  UNL1       -0.0344
     13 C          20.4367   39.1524  -11.0931 C.3     1  UNL1       -0.0172
     14 C          20.8921   39.8157  -12.4059 C.3     1  UNL1        0.0896
     15 O          21.6598   40.9940  -12.1896 O.3     1  UNL1       -0.4920
     16 C          21.0854   42.1160  -11.6400 C.ar    1  UNL1        0.1208
     17 C          21.9629   43.1441  -11.2410 C.ar    1  UNL1       -0.0199
     18 C          21.4677   44.3352  -10.6787 C.ar    1  UNL1       -0.0580
     19 C          20.0838   44.5010  -10.4987 C.ar    1  UNL1       -0.0583
     20 C          19.1963   43.4735  -10.8799 C.ar    1  UNL1       -0.0421
     21 C          19.6935   42.2949  -11.4702 C.ar    1  UNL1       -0.0167
     22 C          17.7106   43.6125  -10.6138 C.3     1  UNL1       -0.0064
     23 C          17.3298   43.6291   -9.1105 C.3     1  UNL1        0.0586
     24 N          18.2316   42.7797   -8.3094 N.am    1  UNL1       -0.3055
     25 C          19.0713   43.2383   -7.3578 C.2     1  UNL1        0.2444
     26 O          19.0159   44.3888   -6.9206 O.2     1  UNL1       -0.2702
     27 C          15.8096   43.3422   -8.9094 C.3     1  UNL1        0.1182
     28 C          15.2954   41.9035   -8.5922 C.3     1  UNL1        0.0296
     29 C          15.6912   40.8824   -9.6846 C.3     1  UNL1        0.0935
     30 O          15.2822   39.5587   -9.3494 O.3     1  UNL1       -0.3634
     31 C          15.8128   39.0848   -8.1113 C.3     1  UNL1        0.1216
     32 C          15.2678   40.0100   -7.0042 C.3     1  UNL1       -0.0041
     33 N          15.6654   41.4142   -7.2401 N.4     1  UNL1        0.2346
     34 C          17.3565   38.9693   -8.2130 C.3     1  UNL1        0.0785
     35 O          17.9029   37.8696   -7.5112 O.3     1  UNL1       -0.3802
     36 C          18.1767   38.1503   -6.1506 C.3     1  UNL1        0.0366
     37 O          15.2671   44.3134   -8.0400 O.3     1  UNL1       -0.3843
     38 H          17.5058   44.6675   -8.8218 H       1  UNL1        0.0529
     39 H          15.3297   43.6057   -9.8536 H       1  UNL1        0.0670
     40 H          14.2055   41.9473   -8.5946 H       1  UNL1        0.0900
     41 H          15.4056   38.0836   -7.9641 H       1  UNL1        0.0673
     42 H          19.3001   41.7958   -1.3846 H       1  UNL1        0.0524
     43 H          19.3547   42.4958   -2.9927 H       1  UNL1        0.0524
     44 H          20.3840   43.1497   -1.7122 H       1  UNL1        0.0524
     45 H          22.8362   41.2079   -3.3130 H       1  UNL1        0.0610
     46 H          22.1598   42.8129   -3.2957 H       1  UNL1        0.0610
     47 H          20.2789   43.3576   -4.9338 H       1  UNL1        0.0628
     48 H          20.1119   40.9436   -8.4972 H       1  UNL1        0.0643
     49 H          22.4356   39.6462   -5.1010 H       1  UNL1        0.0639
     50 H          22.2816   38.2953   -7.0213 H       1  UNL1        0.1461
     51 H          19.9710   38.6839   -8.5938 H       1  UNL1        0.0461
     52 H          21.1146   37.3934   -8.7986 H       1  UNL1        0.0461
     53 H          22.4059   38.5424  -10.3875 H       1  UNL1        0.0281
     54 H          21.9001   40.1100   -9.8303 H       1  UNL1        0.0281
     55 H          19.5876   39.6932  -10.6813 H       1  UNL1        0.0298
     56 H          20.0601   38.1504  -11.2999 H       1  UNL1        0.0298
     57 H          20.0519   40.0206  -13.0679 H       1  UNL1        0.0696
     58 H          21.5345   39.1211  -12.9477 H       1  UNL1        0.0696
     59 H          23.0283   43.0143  -11.3698 H       1  UNL1        0.0654
     60 H          22.1523   45.1148  -10.3772 H       1  UNL1        0.0619
     61 H          19.7074   45.4060  -10.0458 H       1  UNL1        0.0620
     62 H          18.9958   41.5319  -11.7755 H       1  UNL1        0.0657
     63 H          17.1968   42.7985  -11.1240 H       1  UNL1        0.0332
     64 H          17.3539   44.5249  -11.0940 H       1  UNL1        0.0332
     65 H          18.3727   41.8306   -8.6201 H       1  UNL1        0.1494
     66 H          16.7639   40.9011   -9.8744 H       1  UNL1        0.0617
     67 H          15.2162   41.1515  -10.6287 H       1  UNL1        0.0617
     68 H          15.5840   39.7037   -6.0099 H       1  UNL1        0.0840
     69 H          14.1790   39.9516   -6.9886 H       1  UNL1        0.0840
     70 H          16.6606   41.4975   -7.0891 H       1  UNL1        0.2019
     71 H          17.6097   38.7697   -9.2557 H       1  UNL1        0.0587
     72 H          17.8635   39.8994   -7.9546 H       1  UNL1        0.0587
     73 H          18.4599   37.2325   -5.6406 H       1  UNL1        0.0524
     74 H          17.3086   38.5502   -5.6401 H       1  UNL1        0.0524
     75 H          18.9906   38.8659   -6.0442 H       1  UNL1        0.0524
     76 H          15.5856   44.1563   -7.1545 H       1  UNL1        0.2101
     77 H          15.1999   41.9818   -6.5333 H       1  UNL1        0.2019
@<TRIPOS>BOND
     1     1     2    1
     2     1    42    1
     3     1    43    1
     4     1    44    1
     5     2     3    1
     6     3     4    1
     7     3    45    1
     8     3    46    1
     9     4     9   ar
    10     4     5   ar
    11     5     6   ar
    12     5    47    1
    13     6    25    1
    14     6     7   ar
    15     7     8   ar
    16     7    48    1
    17     8     9   ar
    18     8    10    1
    19     9    49    1
    20    10    11    1
    21    10    50    1
    22    11    12    1
    23    11    51    1
    24    11    52    1
    25    12    13    1
    26    12    53    1
    27    12    54    1
    28    13    14    1
    29    13    55    1
    30    13    56    1
    31    14    15    1
    32    14    57    1
    33    14    58    1
    34    15    16    1
    35    16    21   ar
    36    16    17   ar
    37    17    18   ar
    38    17    59    1
    39    18    19   ar
    40    18    60    1
    41    19    20   ar
    42    19    61    1
    43    20    21   ar
    44    20    22    1
    45    21    62    1
    46    22    23    1
    47    22    63    1
    48    22    64    1
    49    23    38    1
    50    23    24    1
    51    23    27    1
    52    24    25   am
    53    24    65    1
    54    25    26    2
    55    27    39    1
    56    27    28    1
    57    27    37    1
    58    28    40    1
    59    28    33    1
    60    28    29    1
    61    29    30    1
    62    29    66    1
    63    29    67    1
    64    30    31    1
    65    31    41    1
    66    31    32    1
    67    31    34    1
    68    32    33    1
    69    32    68    1
    70    32    69    1
    71    33    70    1
    72    33    77    1
    73    34    35    1
    74    34    71    1
    75    34    72    1
    76    35    36    1
    77    36    73    1
    78    36    74    1
    79    36    75    1
    80    37    76    1
