@<TRIPOS>MOLECULE
BACE_10.smi:1
 85 87 0 0 0
SMALL
GASTEIGER
****
Structure written by MMmdl.
@<TRIPOS>ATOM
      1 C          20.5622   38.7727   -7.1742 C.3     1  UNL1       -0.0623
      2 C          20.2172   39.4651   -8.5081 C.3     1  UNL1       -0.0400
      3 C          19.8511   38.4295   -9.5998 C.3     1  UNL1       -0.0268
      4 C          18.5984   37.5929   -9.3070 C.3     1  UNL1        0.0479
      5 O          17.4944   38.4443   -9.0660 O.3     1  UNL1       -0.3797
      6 C          16.2559   37.7546   -9.0210 C.3     1  UNL1        0.0477
      7 C          15.1783   38.6392   -8.3828 C.3     1  UNL1       -0.0281
      8 C          15.0959   40.0498   -8.9901 C.3     1  UNL1       -0.0354
      9 C          15.9787   41.0674   -8.2460 C.3     1  UNL1        0.0092
     10 N          15.9267   42.3823   -8.8691 N.pl3   1  UNL1       -0.3438
     11 C          16.7496   42.7519   -9.9408 C.ar    1  UNL1        0.0282
     12 C          16.5160   44.0112  -10.5297 C.ar    1  UNL1       -0.0355
     13 C          17.3032   44.4624  -11.6058 C.ar    1  UNL1       -0.0195
     14 C          18.3398   43.6432  -12.0910 C.ar    1  UNL1       -0.0442
     15 C          18.6216   42.4006  -11.4924 C.ar    1  UNL1        0.0388
     16 C          17.7949   41.9385  -10.4406 C.ar    1  UNL1       -0.0287
     17 C          19.7595   41.5779  -12.0311 C.2     1  UNL1        0.2444
     18 O          19.8121   41.3482  -13.2379 O.2     1  UNL1       -0.2702
     19 N          20.7298   41.1561  -11.2005 N.am    1  UNL1       -0.3060
     20 C          21.0326   41.5966   -9.8323 C.3     1  UNL1        0.0508
     21 C          21.3894   40.3859   -8.9325 C.3     1  UNL1       -0.0294
     22 C          22.1645   42.6661   -9.8389 C.3     1  UNL1        0.0859
     23 C          23.4873   42.2619  -10.5293 C.3     1  UNL1        0.0240
     24 N          24.3270   41.4410   -9.6532 N.3     1  UNL1       -0.3095
     25 C          25.5734   40.9727  -10.2700 C.3     1  UNL1        0.0213
     26 C          26.6601   42.0216  -10.4478 C.ar    1  UNL1       -0.0333
     27 C          26.7245   43.1850   -9.6484 C.ar    1  UNL1       -0.0573
     28 C          27.7759   44.1044   -9.8230 C.ar    1  UNL1       -0.0612
     29 C          28.7684   43.8660  -10.7915 C.ar    1  UNL1       -0.0583
     30 C          28.7154   42.7050  -11.5928 C.ar    1  UNL1       -0.0445
     31 C          27.6593   41.7877  -11.4116 C.ar    1  UNL1       -0.0539
     32 C          29.7828   42.4275  -12.6434 C.3     1  UNL1       -0.0215
     33 C          31.1486   42.1581  -11.9936 C.3     1  UNL1       -0.0586
     34 C          29.8515   43.5530  -13.6880 C.3     1  UNL1       -0.0586
     35 O          21.6739   43.8332  -10.4735 O.3     1  UNL1       -0.3887
     36 C          17.0110   45.8132  -12.2409 C.3     1  UNL1        0.0724
     37 O          18.0565   46.3176  -13.0641 O.3     1  UNL1       -0.3784
     38 C          19.1466   46.8623  -12.3334 C.3     1  UNL1        0.0369
     39 H          19.3485   40.0958   -8.3157 H       1  UNL1        0.0299
     40 H          20.1663   42.0750   -9.3750 H       1  UNL1        0.0524
     41 H          22.3803   42.9612   -8.8110 H       1  UNL1        0.0624
     42 H          21.4470   38.1440   -7.2714 H       1  UNL1        0.0232
     43 H          19.7444   38.1541   -6.8108 H       1  UNL1        0.0232
     44 H          20.7663   39.5048   -6.3932 H       1  UNL1        0.0232
     45 H          19.6785   38.9301  -10.5490 H       1  UNL1        0.0290
     46 H          20.6959   37.7590   -9.7651 H       1  UNL1        0.0290
     47 H          18.3954   36.9465  -10.1618 H       1  UNL1        0.0560
     48 H          18.7504   36.9487   -8.4443 H       1  UNL1        0.0560
     49 H          15.9694   37.4703  -10.0344 H       1  UNL1        0.0560
     50 H          16.3488   36.8332   -8.4402 H       1  UNL1        0.0560
     51 H          14.2101   38.1506   -8.5067 H       1  UNL1        0.0288
     52 H          15.3347   38.7020   -7.3035 H       1  UNL1        0.0288
     53 H          15.3504   40.0131  -10.0476 H       1  UNL1        0.0281
     54 H          14.0599   40.3916   -8.9381 H       1  UNL1        0.0281
     55 H          15.6148   41.1735   -7.2218 H       1  UNL1        0.0461
     56 H          17.0058   40.7188   -8.1538 H       1  UNL1        0.0461
     57 H          15.2605   43.0389   -8.4899 H       1  UNL1        0.1461
     58 H          15.7182   44.6391  -10.1556 H       1  UNL1        0.0639
     59 H          18.9523   43.9865  -12.9116 H       1  UNL1        0.0628
     60 H          17.9902   40.9625  -10.0217 H       1  UNL1        0.0643
     61 H          21.4469   40.5917  -11.6339 H       1  UNL1        0.1494
     62 H          21.8391   40.7897   -8.0249 H       1  UNL1        0.0286
     63 H          22.1700   39.7807   -9.3981 H       1  UNL1        0.0286
     64 H          23.2775   41.7507  -11.4642 H       1  UNL1        0.0450
     65 H          24.0408   43.1599  -10.8022 H       1  UNL1        0.0450
     66 H          23.8120   40.6369   -9.3142 H       1  UNL1        0.1223
     67 H          26.0084   40.1929   -9.6426 H       1  UNL1        0.0473
     68 H          25.3653   40.5151  -11.2368 H       1  UNL1        0.0473
     69 H          25.9746   43.3705   -8.8929 H       1  UNL1        0.0621
     70 H          27.8211   44.9911   -9.2079 H       1  UNL1        0.0618
     71 H          29.5743   44.5745  -10.9106 H       1  UNL1        0.0620
     72 H          27.6217   40.8883  -12.0117 H       1  UNL1        0.0623
     73 H          29.4961   41.5188  -13.1761 H       1  UNL1        0.0343
     74 H          31.0823   41.3279  -11.2915 H       1  UNL1        0.0235
     75 H          31.5138   43.0269  -11.4459 H       1  UNL1        0.0235
     76 H          31.8952   41.8973  -12.7435 H       1  UNL1        0.0235
     77 H          28.8738   43.7197  -14.1416 H       1  UNL1        0.0235
     78 H          30.5503   43.3017  -14.4866 H       1  UNL1        0.0235
     79 H          30.1791   44.4947  -13.2457 H       1  UNL1        0.0235
     80 H          22.3356   44.5017  -10.4064 H       1  UNL1        0.2099
     81 H          16.1261   45.6938  -12.8654 H       1  UNL1        0.0610
     82 H          16.7462   46.5426  -11.4724 H       1  UNL1        0.0610
     83 H          19.9008   47.2274  -13.0288 H       1  UNL1        0.0524
     84 H          19.6218   46.1230  -11.6878 H       1  UNL1        0.0524
     85 H          18.8245   47.7008  -11.7150 H       1  UNL1        0.0524
@<TRIPOS>BOND
     1     1     2    1
     2     1    42    1
     3     1    43    1
     4     1    44    1
     5     2    39    1
     6     2    21    1
     7     2     3    1
     8     3     4    1
     9     3    45    1
    10     3    46    1
    11     4     5    1
    12     4    47    1
    13     4    48    1
    14     5     6    1
    15     6     7    1
    16     6    49    1
    17     6    50    1
    18     7     8    1
    19     7    51    1
    20     7    52    1
    21     8     9    1
    22     8    53    1
    23     8    54    1
    24     9    10    1
    25     9    55    1
    26     9    56    1
    27    10    11    1
    28    10    57    1
    29    11    16   ar
    30    11    12   ar
    31    12    13   ar
    32    12    58    1
    33    13    14   ar
    34    13    36    1
    35    14    15   ar
    36    14    59    1
    37    15    16   ar
    38    15    17    1
    39    16    60    1
    40    17    18    2
    41    17    19   am
    42    19    20    1
    43    19    61    1
    44    20    40    1
    45    20    21    1
    46    20    22    1
    47    21    62    1
    48    21    63    1
    49    22    41    1
    50    22    23    1
    51    22    35    1
    52    23    24    1
    53    23    64    1
    54    23    65    1
    55    24    25    1
    56    24    66    1
    57    25    26    1
    58    25    67    1
    59    25    68    1
    60    26    31   ar
    61    26    27   ar
    62    27    28   ar
    63    27    69    1
    64    28    29   ar
    65    28    70    1
    66    29    30   ar
    67    29    71    1
    68    30    31   ar
    69    30    32    1
    70    31    72    1
    71    32    33    1
    72    32    34    1
    73    32    73    1
    74    33    74    1
    75    33    75    1
    76    33    76    1
    77    34    77    1
    78    34    78    1
    79    34    79    1
    80    35    80    1
    81    36    37    1
    82    36    81    1
    83    36    82    1
    84    37    38    1
    85    38    83    1
    86    38    84    1
    87    38    85    1
