@<TRIPOS>MOLECULE
BACE_10.smi:1
 86 88 0 0 0
SMALL
GASTEIGER
****
Structure written by MMmdl.
@<TRIPOS>ATOM
      1 C          21.0389   38.5598   -7.2983 C.3     1  UNL1       -0.0623
      2 C          20.3683   39.4110   -8.3911 C.3     1  UNL1       -0.0400
      3 C          19.6497   38.5111   -9.4256 C.3     1  UNL1       -0.0268
      4 C          18.3400   37.8999   -8.9113 C.3     1  UNL1        0.0479
      5 O          17.5082   38.9713   -8.5089 O.3     1  UNL1       -0.3797
      6 C          16.1924   38.5846   -8.1538 C.3     1  UNL1        0.0477
      7 C          15.5978   39.6384   -7.2136 C.3     1  UNL1       -0.0281
      8 C          15.7817   41.0793   -7.7105 C.3     1  UNL1       -0.0354
      9 C          15.1359   41.3373   -9.0764 C.3     1  UNL1        0.0092
     10 N          15.3648   42.7003   -9.5282 N.pl3   1  UNL1       -0.3438
     11 C          16.4366   43.0469  -10.3611 C.ar    1  UNL1        0.0282
     12 C          16.3987   44.3307  -10.9351 C.ar    1  UNL1       -0.0355
     13 C          17.3984   44.7514  -11.8308 C.ar    1  UNL1       -0.0195
     14 C          18.4489   43.8692  -12.1538 C.ar    1  UNL1       -0.0442
     15 C          18.5191   42.5860  -11.5761 C.ar    1  UNL1        0.0388
     16 C          17.5115   42.1754  -10.6716 C.ar    1  UNL1       -0.0287
     17 C          19.5950   41.6449  -12.0387 C.2     1  UNL1        0.2444
     18 O          19.6610   41.3502  -13.2273 O.2     1  UNL1       -0.2702
     19 N          20.4933   41.1577  -11.1672 N.am    1  UNL1       -0.3058
     20 C          20.7975   41.5827   -9.8001 C.3     1  UNL1        0.0545
     21 C          21.4002   40.3781   -9.0208 C.3     1  UNL1       -0.0292
     22 C          21.7641   42.8102   -9.7880 C.3     1  UNL1        0.1130
     23 C          22.8649   42.8668  -10.8800 C.3     1  UNL1       -0.0050
     24 N          23.8189   41.7395  -10.7989 N.4     1  UNL1        0.2321
     25 C          24.8425   41.7830   -9.7313 C.3     1  UNL1       -0.0076
     26 C          25.9664   42.7504  -10.0559 C.ar    1  UNL1       -0.0027
     27 C          25.8860   44.0957   -9.6390 C.ar    1  UNL1       -0.0535
     28 C          26.9249   44.9936   -9.9474 C.ar    1  UNL1       -0.0611
     29 C          28.0555   44.5463  -10.6547 C.ar    1  UNL1       -0.0583
     30 C          28.1630   43.1997  -11.0585 C.ar    1  UNL1       -0.0444
     31 C          27.1111   42.3019  -10.7536 C.ar    1  UNL1       -0.0501
     32 C          29.4244   42.7383  -11.7819 C.3     1  UNL1       -0.0215
     33 C          29.1531   41.7361  -12.9144 C.3     1  UNL1       -0.0586
     34 C          30.4594   42.1976  -10.7857 C.3     1  UNL1       -0.0586
     35 O          21.0032   43.9982   -9.8798 O.3     1  UNL1       -0.3847
     36 C          17.2895   46.1184  -12.4810 C.3     1  UNL1        0.0724
     37 O          18.4791   46.5531  -13.1229 O.3     1  UNL1       -0.3784
     38 C          19.4565   47.0529  -12.2192 C.3     1  UNL1        0.0369
     39 H          19.6261   40.0317   -7.8877 H       1  UNL1        0.0299
     40 H          19.8785   41.8656   -9.2816 H       1  UNL1        0.0526
     41 H          22.2388   42.8808   -8.8064 H       1  UNL1        0.0666
     42 H          21.8300   37.9353   -7.7150 H       1  UNL1        0.0232
     43 H          20.3185   37.9098   -6.8039 H       1  UNL1        0.0232
     44 H          21.4837   39.1836   -6.5218 H       1  UNL1        0.0232
     45 H          19.3859   39.0787  -10.3133 H       1  UNL1        0.0290
     46 H          20.3214   37.7239   -9.7672 H       1  UNL1        0.0290
     47 H          17.8590   37.3252   -9.7042 H       1  UNL1        0.0560
     48 H          18.5124   37.2235   -8.0733 H       1  UNL1        0.0560
     49 H          15.5916   38.4623   -9.0560 H       1  UNL1        0.0560
     50 H          16.1977   37.6320   -7.6416 H       1  UNL1        0.0560
     51 H          14.5403   39.4292   -7.0476 H       1  UNL1        0.0288
     52 H          16.0718   39.5475   -6.2354 H       1  UNL1        0.0288
     53 H          15.3477   41.7500   -6.9705 H       1  UNL1        0.0281
     54 H          16.8446   41.3216   -7.7455 H       1  UNL1        0.0281
     55 H          15.4836   40.6319   -9.8287 H       1  UNL1        0.0461
     56 H          14.0602   41.1810   -8.9997 H       1  UNL1        0.0461
     57 H          14.6429   43.3768   -9.3292 H       1  UNL1        0.1461
     58 H          15.5824   44.9987  -10.7055 H       1  UNL1        0.0639
     59 H          19.2165   44.1785  -12.8444 H       1  UNL1        0.0628
     60 H          17.5548   41.1781  -10.2494 H       1  UNL1        0.0643
     61 H          21.0995   40.4486  -11.5533 H       1  UNL1        0.1494
     62 H          22.0029   40.7713   -8.2025 H       1  UNL1        0.0286
     63 H          22.0980   39.8143   -9.6430 H       1  UNL1        0.0286
     64 H          22.4109   42.8579  -11.8695 H       1  UNL1        0.0840
     65 H          23.4092   43.8106  -10.8247 H       1  UNL1        0.0840
     66 H          23.2870   40.8892  -10.6805 H       1  UNL1        0.2018
     67 H          24.3971   42.0283   -8.7670 H       1  UNL1        0.0866
     68 H          25.2621   40.7819   -9.6235 H       1  UNL1        0.0866
     69 H          25.0282   44.4460   -9.0824 H       1  UNL1        0.0622
     70 H          26.8592   46.0253   -9.6327 H       1  UNL1        0.0618
     71 H          28.8506   45.2423  -10.8760 H       1  UNL1        0.0620
     72 H          27.1806   41.2626  -11.0414 H       1  UNL1        0.0625
     73 H          29.8629   43.6218  -12.2471 H       1  UNL1        0.0343
     74 H          28.4574   42.1519  -13.6415 H       1  UNL1        0.0235
     75 H          28.7444   40.7942  -12.5439 H       1  UNL1        0.0235
     76 H          30.0734   41.4940  -13.4485 H       1  UNL1        0.0235
     77 H          30.7432   42.9559  -10.0541 H       1  UNL1        0.0235
     78 H          31.3639   41.8705  -11.3005 H       1  UNL1        0.0235
     79 H          30.0585   41.3501  -10.2426 H       1  UNL1        0.0235
     80 H          20.3566   43.9990   -9.1902 H       1  UNL1        0.2101
     81 H          16.5061   46.0618  -13.2370 H       1  UNL1        0.0610
     82 H          16.9606   46.8585  -11.7444 H       1  UNL1        0.0610
     83 H          20.3535   47.3350  -12.7719 H       1  UNL1        0.0524
     84 H          19.7423   46.3079  -11.4754 H       1  UNL1        0.0524
     85 H          19.0919   47.9396  -11.6988 H       1  UNL1        0.0524
     86 H          24.2852   41.6504  -11.6988 H       1  UNL1        0.2018
@<TRIPOS>BOND
     1     1     2    1
     2     1    42    1
     3     1    43    1
     4     1    44    1
     5     2    39    1
     6     2    21    1
     7     2     3    1
     8     3     4    1
     9     3    45    1
    10     3    46    1
    11     4     5    1
    12     4    47    1
    13     4    48    1
    14     5     6    1
    15     6     7    1
    16     6    49    1
    17     6    50    1
    18     7     8    1
    19     7    51    1
    20     7    52    1
    21     8     9    1
    22     8    53    1
    23     8    54    1
    24     9    10    1
    25     9    55    1
    26     9    56    1
    27    10    11    1
    28    10    57    1
    29    11    16   ar
    30    11    12   ar
    31    12    13   ar
    32    12    58    1
    33    13    14   ar
    34    13    36    1
    35    14    15   ar
    36    14    59    1
    37    15    16   ar
    38    15    17    1
    39    16    60    1
    40    17    18    2
    41    17    19   am
    42    19    20    1
    43    19    61    1
    44    20    40    1
    45    20    21    1
    46    20    22    1
    47    21    62    1
    48    21    63    1
    49    22    41    1
    50    22    23    1
    51    22    35    1
    52    23    24    1
    53    23    64    1
    54    23    65    1
    55    24    25    1
    56    24    66    1
    57    24    86    1
    58    25    26    1
    59    25    67    1
    60    25    68    1
    61    26    31   ar
    62    26    27   ar
    63    27    28   ar
    64    27    69    1
    65    28    29   ar
    66    28    70    1
    67    29    30   ar
    68    29    71    1
    69    30    31   ar
    70    30    32    1
    71    31    72    1
    72    32    33    1
    73    32    34    1
    74    32    73    1
    75    33    74    1
    76    33    75    1
    77    33    76    1
    78    34    77    1
    79    34    78    1
    80    34    79    1
    81    35    80    1
    82    36    37    1
    83    36    81    1
    84    36    82    1
    85    37    38    1
    86    38    83    1
    87    38    84    1
    88    38    85    1
