@<TRIPOS>MOLECULE
BACE_4.smi:1
 90 92 0 0 0
SMALL
GASTEIGER
****
Structure written by MMmdl.
@<TRIPOS>ATOM
      1 C          12.3293   44.0566   -9.1011 C.3     1  UNL1       -0.0624
      2 C          13.5107   44.1465  -10.0846 C.3     1  UNL1       -0.0421
      3 C          12.9973   44.5629  -11.4818 C.3     1  UNL1       -0.0504
      4 C          14.0817   45.0603  -12.4549 C.3     1  UNL1       -0.0528
      5 C          14.6836   46.4223  -12.0858 C.3     1  UNL1       -0.0530
      6 C          15.7243   46.9075  -13.0985 C.3     1  UNL1       -0.0510
      7 C          16.3787   48.2483  -12.7222 C.3     1  UNL1       -0.0294
      8 C          17.3865   48.1246  -11.5728 C.3     1  UNL1        0.0483
      9 O          18.4939   47.3663  -12.0346 O.3     1  UNL1       -0.3706
     10 C          19.3794   46.9274  -11.0112 C.3     1  UNL1        0.1238
     11 C          18.8057   45.6778  -10.3176 C.2     1  UNL1        0.2417
     12 O          18.6150   44.6789  -11.0169 O.2     1  UNL1       -0.2731
     13 N          18.5483   45.6834   -8.9824 N.am    1  UNL1       -0.2914
     14 C          18.1940   44.4078   -8.3120 C.3     1  UNL1        0.0991
     15 C          16.6786   44.1511   -8.3604 C.2     1  UNL1        0.2336
     16 O          15.8793   45.0290   -8.0400 O.2     1  UNL1       -0.2738
     17 N          16.3314   42.9159   -8.7521 N.am    1  UNL1       -0.3083
     18 C          15.0039   42.3106   -8.8576 C.3     1  UNL1        0.0543
     19 C          14.2927   42.8027  -10.1564 C.3     1  UNL1       -0.0293
     20 C          15.2221   40.7668   -8.8371 C.3     1  UNL1        0.1130
     21 C          15.6589   40.1982   -7.4641 C.3     1  UNL1       -0.0044
     22 N          15.8910   38.7331   -7.5214 N.4     1  UNL1        0.2365
     23 C          17.0159   38.2676   -8.3729 C.3     1  UNL1        0.0145
     24 C          16.9297   36.7943   -8.7258 C.3     1  UNL1        0.0032
     25 C          16.5850   37.8321   -9.7573 C.3     1  UNL1        0.0032
     26 C          18.3558   38.9073   -8.1129 C.ar    1  UNL1        0.0035
     27 C          18.9496   38.8027   -6.8388 C.ar    1  UNL1       -0.0529
     28 C          20.2283   39.3448   -6.6065 C.ar    1  UNL1       -0.0610
     29 C          20.9399   39.9635   -7.6524 C.ar    1  UNL1       -0.0580
     30 C          20.3757   40.0704   -8.9446 C.ar    1  UNL1       -0.0415
     31 C          19.0664   39.5692   -9.1415 C.ar    1  UNL1       -0.0493
     32 C          21.1521   40.6709  -10.1329 C.3     1  UNL1       -0.0127
     33 C          21.1928   39.6559  -11.2946 C.3     1  UNL1       -0.0560
     34 C          20.4646   41.9631  -10.6086 C.3     1  UNL1       -0.0560
     35 C          22.6184   41.0195   -9.7843 C.3     1  UNL1       -0.0560
     36 O          14.0600   40.0586   -9.2394 O.3     1  UNL1       -0.3847
     37 C          18.6562   44.3583   -6.8371 C.3     1  UNL1       -0.0379
     38 C          18.5474   46.9275   -8.1971 C.3     1  UNL1        0.0040
     39 H          14.1589   44.9438   -9.7321 H       1  UNL1        0.0299
     40 H          18.7041   43.5831   -8.8061 H       1  UNL1        0.0594
     41 H          14.4171   42.5780   -7.9785 H       1  UNL1        0.0526
     42 H          15.9852   40.5348   -9.5804 H       1  UNL1        0.0666
     43 H          11.7122   44.9538   -9.1288 H       1  UNL1        0.0232
     44 H          12.6654   43.9398   -8.0722 H       1  UNL1        0.0232
     45 H          11.6800   43.2117   -9.3352 H       1  UNL1        0.0232
     46 H          12.4705   43.7216  -11.9321 H       1  UNL1        0.0268
     47 H          12.2514   45.3491  -11.3855 H       1  UNL1        0.0268
     48 H          13.6232   45.1409  -13.4407 H       1  UNL1        0.0265
     49 H          14.8739   44.3195  -12.5592 H       1  UNL1        0.0265
     50 H          13.8845   47.1559  -12.0398 H       1  UNL1        0.0265
     51 H          15.1417   46.3637  -11.1006 H       1  UNL1        0.0265
     52 H          15.2268   47.0332  -14.0551 H       1  UNL1        0.0266
     53 H          16.4932   46.1476  -13.2395 H       1  UNL1        0.0266
     54 H          16.8929   48.6582  -13.5939 H       1  UNL1        0.0287
     55 H          15.6117   48.9724  -12.4575 H       1  UNL1        0.0287
     56 H          16.9082   47.6681  -10.7066 H       1  UNL1        0.0560
     57 H          17.7315   49.1126  -11.2656 H       1  UNL1        0.0560
     58 H          19.6509   47.7438  -10.3417 H       1  UNL1        0.0657
     59 H          20.3086   46.6235  -11.4954 H       1  UNL1        0.0657
     60 H          17.1028   42.3120   -8.9885 H       1  UNL1        0.1491
     61 H          15.0411   42.8395  -10.9470 H       1  UNL1        0.0286
     62 H          13.5695   42.0631  -10.5024 H       1  UNL1        0.0286
     63 H          14.8820   40.3865   -6.7209 H       1  UNL1        0.0840
     64 H          16.5541   40.7010   -7.0985 H       1  UNL1        0.0840
     65 H          15.0394   38.3120   -7.8627 H       1  UNL1        0.2023
     66 H          17.8633   36.2532   -8.8656 H       1  UNL1        0.0329
     67 H          16.0901   36.1949   -8.3876 H       1  UNL1        0.0329
     68 H          15.5332   37.8967  -10.0362 H       1  UNL1        0.0329
     69 H          17.2866   37.9512  -10.5755 H       1  UNL1        0.0329
     70 H          18.4335   38.2951   -6.0365 H       1  UNL1        0.0622
     71 H          20.6785   39.2620   -5.6312 H       1  UNL1        0.0618
     72 H          21.9315   40.3277   -7.4322 H       1  UNL1        0.0620
     73 H          18.6163   39.6566  -10.1178 H       1  UNL1        0.0625
     74 H          21.6564   38.7254  -10.9656 H       1  UNL1        0.0238
     75 H          21.7719   40.0349  -12.1381 H       1  UNL1        0.0238
     76 H          20.1990   39.4153  -11.6762 H       1  UNL1        0.0238
     77 H          20.4870   42.7220   -9.8278 H       1  UNL1        0.0238
     78 H          19.4222   41.7971  -10.8866 H       1  UNL1        0.0238
     79 H          20.9706   42.3823  -11.4803 H       1  UNL1        0.0238
     80 H          22.6784   41.7852   -9.0092 H       1  UNL1        0.0238
     81 H          23.1508   41.4081  -10.6540 H       1  UNL1        0.0238
     82 H          23.1711   40.1427   -9.4419 H       1  UNL1        0.0238
     83 H          13.3080   40.4014   -8.7562 H       1  UNL1        0.2101
     84 H          18.5744   43.3443   -6.4509 H       1  UNL1        0.0252
     85 H          18.0642   44.9934   -6.1798 H       1  UNL1        0.0252
     86 H          19.7006   44.6513   -6.7469 H       1  UNL1        0.0252
     87 H          17.9913   46.8464   -7.2616 H       1  UNL1        0.0429
     88 H          18.0646   47.7449   -8.7322 H       1  UNL1        0.0429
     89 H          19.5706   47.2291   -7.9544 H       1  UNL1        0.0429
     90 H          16.0355   38.3705   -6.5835 H       1  UNL1        0.2023
@<TRIPOS>BOND
     1     1     2    1
     2     1    43    1
     3     1    44    1
     4     1    45    1
     5     2    39    1
     6     2    19    1
     7     2     3    1
     8     3     4    1
     9     3    46    1
    10     3    47    1
    11     4     5    1
    12     4    48    1
    13     4    49    1
    14     5     6    1
    15     5    50    1
    16     5    51    1
    17     6     7    1
    18     6    52    1
    19     6    53    1
    20     7     8    1
    21     7    54    1
    22     7    55    1
    23     8     9    1
    24     8    56    1
    25     8    57    1
    26     9    10    1
    27    10    11    1
    28    10    58    1
    29    10    59    1
    30    11    12    2
    31    11    13   am
    32    13    14    1
    33    13    38    1
    34    14    40    1
    35    14    15    1
    36    14    37    1
    37    15    16    2
    38    15    17   am
    39    17    18    1
    40    17    60    1
    41    18    41    1
    42    18    19    1
    43    18    20    1
    44    19    61    1
    45    19    62    1
    46    20    42    1
    47    20    21    1
    48    20    36    1
    49    21    22    1
    50    21    63    1
    51    21    64    1
    52    22    23    1
    53    22    65    1
    54    22    90    1
    55    23    25    1
    56    23    24    1
    57    23    26    1
    58    24    25    1
    59    24    66    1
    60    24    67    1
    61    25    68    1
    62    25    69    1
    63    26    31   ar
    64    26    27   ar
    65    27    28   ar
    66    27    70    1
    67    28    29   ar
    68    28    71    1
    69    29    30   ar
    70    29    72    1
    71    30    31   ar
    72    30    32    1
    73    31    73    1
    74    32    33    1
    75    32    34    1
    76    32    35    1
    77    33    74    1
    78    33    75    1
    79    33    76    1
    80    34    77    1
    81    34    78    1
    82    34    79    1
    83    35    80    1
    84    35    81    1
    85    35    82    1
    86    36    83    1
    87    37    84    1
    88    37    85    1
    89    37    86    1
    90    38    87    1
    91    38    88    1
    92    38    89    1
