@<TRIPOS>MOLECULE
BACE_12.smi:1
 78 81 0 0 0
SMALL
GASTEIGER
****
Structure written by MMmdl.
@<TRIPOS>ATOM
      1 C          16.1080   46.7261  -11.5858 C.3     1  UNL1       -0.0586
      2 C          15.1282   45.9902  -12.5225 C.3     1  UNL1       -0.0215
      3 C          14.2752   47.0112  -13.2988 C.3     1  UNL1       -0.0586
      4 C          14.2662   44.9149  -11.8458 C.ar    1  UNL1       -0.0445
      5 C          13.2576   44.2447  -12.5787 C.ar    1  UNL1       -0.0583
      6 C          12.4591   43.2550  -11.9748 C.ar    1  UNL1       -0.0612
      7 C          12.6496   42.9276  -10.6205 C.ar    1  UNL1       -0.0573
      8 C          13.6510   43.5817   -9.8771 C.ar    1  UNL1       -0.0333
      9 C          14.4597   44.5503  -10.4935 C.ar    1  UNL1       -0.0539
     10 C          13.8254   43.2793   -8.4026 C.3     1  UNL1        0.0213
     11 N          14.8947   42.3378   -8.0708 N.3     1  UNL1       -0.3095
     12 C          14.8965   41.0558   -8.7903 C.3     1  UNL1        0.0240
     13 C          15.8184   40.0111   -8.1151 C.3     1  UNL1        0.0862
     14 C          17.3335   40.1305   -8.4591 C.3     1  UNL1        0.0545
     15 C          18.1478   38.9859   -7.7953 C.3     1  UNL1       -0.0067
     16 C          19.6344   39.2556   -7.5971 C.ar    1  UNL1       -0.0453
     17 C          20.5288   39.1744   -8.6849 C.ar    1  UNL1       -0.0585
     18 C          21.9067   39.3824   -8.4798 C.ar    1  UNL1       -0.0612
     19 C          22.3969   39.6661   -7.1901 C.ar    1  UNL1       -0.0586
     20 C          21.5111   39.7447   -6.0943 C.ar    1  UNL1       -0.0471
     21 C          20.1302   39.5525   -6.3095 C.ar    1  UNL1       -0.0553
     22 C          22.0406   39.9896   -4.6874 C.3     1  UNL1       -0.0276
     23 C          22.5375   41.4252   -4.4677 C.3     1  UNL1       -0.0476
     24 C          21.4148   42.4748   -4.4425 C.3     1  UNL1       -0.0371
     25 C          21.8092   43.7315   -5.2304 C.3     1  UNL1        0.0104
     26 N          20.7576   44.7340   -5.2410 N.pl3   1  UNL1       -0.3289
     27 C          19.7607   44.7497   -6.2145 C.ar    1  UNL1        0.1232
     28 C          19.4639   43.6267   -7.0126 C.ar    1  UNL1       -0.0095
     29 C          18.4331   43.7264   -7.9660 C.ar    1  UNL1        0.0450
     30 C          17.7925   44.9711   -8.1272 C.ar    1  UNL1        0.0122
     31 C          18.1484   46.0353   -7.2791 C.ar    1  UNL1        0.2168
     32 N          19.0994   45.9200   -6.3205 N.ar    1  UNL1       -0.1981
     33 O          17.4943   47.2413   -7.4240 O.3     1  UNL1       -0.4796
     34 C          17.8439   48.3085   -6.5477 C.3     1  UNL1        0.0804
     35 C          18.0242   42.5331   -8.7735 C.2     1  UNL1        0.2446
     36 O          17.7800   42.6173   -9.9785 O.2     1  UNL1       -0.2702
     37 N          17.8646   41.4237   -8.0347 N.am    1  UNL1       -0.3057
     38 O          15.3735   38.7316   -8.5291 O.3     1  UNL1       -0.3887
     39 H          15.6721   40.0564   -7.0333 H       1  UNL1        0.0624
     40 H          17.4673   40.0464   -9.5389 H       1  UNL1        0.0527
     41 H          16.8085   46.0345  -11.1161 H       1  UNL1        0.0235
     42 H          15.5947   47.2829  -10.8015 H       1  UNL1        0.0235
     43 H          16.7098   47.4430  -12.1438 H       1  UNL1        0.0235
     44 H          15.7541   45.4617  -13.2400 H       1  UNL1        0.0343
     45 H          13.7051   46.5509  -14.1052 H       1  UNL1        0.0235
     46 H          14.9005   47.7800  -13.7530 H       1  UNL1        0.0235
     47 H          13.5602   47.5049  -12.6431 H       1  UNL1        0.0235
     48 H          13.0969   44.4634  -13.6237 H       1  UNL1        0.0620
     49 H          11.7008   42.7489  -12.5553 H       1  UNL1        0.0618
     50 H          12.0358   42.1694  -10.1516 H       1  UNL1        0.0621
     51 H          15.2052   45.0379   -9.8897 H       1  UNL1        0.0623
     52 H          14.0256   44.2240   -7.8982 H       1  UNL1        0.0473
     53 H          12.8729   42.9500   -7.9993 H       1  UNL1        0.0473
     54 H          14.8746   42.1683   -7.0637 H       1  UNL1        0.1223
     55 H          13.8880   40.6511   -8.8408 H       1  UNL1        0.0450
     56 H          15.1971   41.2020   -9.8289 H       1  UNL1        0.0450
     57 H          17.7234   38.7632   -6.8148 H       1  UNL1        0.0332
     58 H          18.0344   38.0655   -8.3709 H       1  UNL1        0.0332
     59 H          20.1615   38.9420   -9.6737 H       1  UNL1        0.0620
     60 H          22.5951   39.3137   -9.3105 H       1  UNL1        0.0618
     61 H          23.4581   39.8029   -7.0420 H       1  UNL1        0.0620
     62 H          19.4452   39.6190   -5.4762 H       1  UNL1        0.0623
     63 H          21.2709   39.7503   -3.9538 H       1  UNL1        0.0313
     64 H          22.8583   39.2946   -4.4961 H       1  UNL1        0.0313
     65 H          23.0899   41.4811   -3.5292 H       1  UNL1        0.0269
     66 H          23.2597   41.6691   -5.2452 H       1  UNL1        0.0269
     67 H          20.4948   42.0534   -4.8454 H       1  UNL1        0.0280
     68 H          21.1853   42.7368   -3.4075 H       1  UNL1        0.0280
     69 H          22.6983   44.1748   -4.7803 H       1  UNL1        0.0461
     70 H          22.0811   43.4711   -6.2546 H       1  UNL1        0.0461
     71 H          20.8602   45.5345   -4.6317 H       1  UNL1        0.1475
     72 H          19.9950   42.6936   -6.8983 H       1  UNL1        0.0659
     73 H          17.0191   45.0948   -8.8639 H       1  UNL1        0.0678
     74 H          17.2401   49.1842   -6.7847 H       1  UNL1        0.0660
     75 H          18.8915   48.5909   -6.6596 H       1  UNL1        0.0660
     76 H          17.6551   48.0450   -5.5061 H       1  UNL1        0.0660
     77 H          18.0565   41.5106   -7.0441 H       1  UNL1        0.1494
     78 H          15.5309   38.1163   -7.8233 H       1  UNL1        0.2099
@<TRIPOS>BOND
     1     1     2    1
     2     1    41    1
     3     1    42    1
     4     1    43    1
     5     2     3    1
     6     2     4    1
     7     2    44    1
     8     3    45    1
     9     3    46    1
    10     3    47    1
    11     4     9   ar
    12     4     5   ar
    13     5     6   ar
    14     5    48    1
    15     6     7   ar
    16     6    49    1
    17     7     8   ar
    18     7    50    1
    19     8     9   ar
    20     8    10    1
    21     9    51    1
    22    10    11    1
    23    10    52    1
    24    10    53    1
    25    11    12    1
    26    11    54    1
    27    12    13    1
    28    12    55    1
    29    12    56    1
    30    13    39    1
    31    13    14    1
    32    13    38    1
    33    14    40    1
    34    14    37    1
    35    14    15    1
    36    15    16    1
    37    15    57    1
    38    15    58    1
    39    16    21   ar
    40    16    17   ar
    41    17    18   ar
    42    17    59    1
    43    18    19   ar
    44    18    60    1
    45    19    20   ar
    46    19    61    1
    47    20    21   ar
    48    20    22    1
    49    21    62    1
    50    22    23    1
    51    22    63    1
    52    22    64    1
    53    23    24    1
    54    23    65    1
    55    23    66    1
    56    24    25    1
    57    24    67    1
    58    24    68    1
    59    25    26    1
    60    25    69    1
    61    25    70    1
    62    26    27    1
    63    26    71    1
    64    27    32   ar
    65    27    28   ar
    66    28    29   ar
    67    28    72    1
    68    29    30   ar
    69    29    35    1
    70    30    31   ar
    71    30    73    1
    72    31    32   ar
    73    31    33    1
    74    33    34    1
    75    34    74    1
    76    34    75    1
    77    34    76    1
    78    35    36    2
    79    35    37   am
    80    37    77    1
    81    38    78    1
