@<TRIPOS>MOLECULE
BACE_12.smi:1
 78 81 0 0 0
SMALL
GASTEIGER
****
Structure written by MMmdl.
@<TRIPOS>ATOM
      1 C          22.4483   42.3778   -3.2384 C.3     1  UNL1       -0.0586
      2 C          21.6906   42.7871   -4.5110 C.3     1  UNL1       -0.0215
      3 C          20.1997   43.0126   -4.2189 C.3     1  UNL1       -0.0586
      4 C          21.9233   41.7855   -5.6388 C.ar    1  UNL1       -0.0445
      5 C          21.2923   40.5215   -5.6263 C.ar    1  UNL1       -0.0583
      6 C          21.5350   39.5963   -6.6590 C.ar    1  UNL1       -0.0612
      7 C          22.4073   39.9227   -7.7126 C.ar    1  UNL1       -0.0573
      8 C          23.0450   41.1800   -7.7386 C.ar    1  UNL1       -0.0333
      9 C          22.7940   42.1100   -6.7049 C.ar    1  UNL1       -0.0539
     10 C          24.0144   41.5145   -8.8588 C.3     1  UNL1        0.0213
     11 N          23.4960   41.0903  -10.1577 N.3     1  UNL1       -0.3095
     12 C          23.0277   42.1940  -10.9956 C.3     1  UNL1        0.0240
     13 C          21.6045   41.9263  -11.5389 C.3     1  UNL1        0.0862
     14 C          20.5218   41.5291  -10.4907 C.3     1  UNL1        0.0545
     15 C          20.3942   39.9919  -10.3631 C.3     1  UNL1       -0.0067
     16 C          19.3225   39.5463   -9.3840 C.ar    1  UNL1       -0.0453
     17 C          19.5314   39.7063   -7.9988 C.ar    1  UNL1       -0.0585
     18 C          18.5437   39.2973   -7.0851 C.ar    1  UNL1       -0.0612
     19 C          17.3466   38.7241   -7.5521 C.ar    1  UNL1       -0.0586
     20 C          17.1290   38.5575   -8.9358 C.ar    1  UNL1       -0.0471
     21 C          18.1205   38.9696   -9.8512 C.ar    1  UNL1       -0.0553
     22 C          15.8304   37.9346   -9.4237 C.3     1  UNL1       -0.0276
     23 C          14.6397   38.9039   -9.3285 C.3     1  UNL1       -0.0476
     24 C          14.6154   39.9688  -10.4373 C.3     1  UNL1       -0.0371
     25 C          14.0139   41.2973   -9.9495 C.3     1  UNL1        0.0104
     26 N          13.9909   42.3244  -10.9809 N.pl3   1  UNL1       -0.3289
     27 C          15.0896   43.1727  -11.1872 C.ar    1  UNL1        0.1232
     28 C          16.3898   42.8378  -10.7514 C.ar    1  UNL1       -0.0095
     29 C          17.4522   43.7256  -11.0129 C.ar    1  UNL1        0.0450
     30 C          17.1635   44.9422  -11.6580 C.ar    1  UNL1        0.0122
     31 C          15.8386   45.2042  -12.0515 C.ar    1  UNL1        0.2168
     32 N          14.8258   44.3278  -11.8342 N.ar    1  UNL1       -0.1981
     33 O          15.5741   46.3991  -12.6879 O.3     1  UNL1       -0.4796
     34 C          16.6631   47.2668  -12.9771 C.3     1  UNL1        0.0804
     35 C          18.8500   43.3922  -10.5906 C.2     1  UNL1        0.2446
     36 O          19.6055   44.2593  -10.1584 O.2     1  UNL1       -0.2702
     37 N          19.2067   42.1126  -10.7719 N.am    1  UNL1       -0.3057
     38 O          21.6587   40.9203  -12.5373 O.3     1  UNL1       -0.3887
     39 H          21.2694   42.8149  -12.0766 H       1  UNL1        0.0624
     40 H          20.8393   41.8860   -9.5114 H       1  UNL1        0.0527
     41 H          23.5205   42.3058   -3.4234 H       1  UNL1        0.0235
     42 H          22.1075   41.4116   -2.8672 H       1  UNL1        0.0235
     43 H          22.2990   43.1067   -2.4418 H       1  UNL1        0.0235
     44 H          22.0972   43.7460   -4.8370 H       1  UNL1        0.0343
     45 H          19.6654   43.3238   -5.1156 H       1  UNL1        0.0235
     46 H          20.0636   43.7928   -3.4714 H       1  UNL1        0.0235
     47 H          19.7129   42.1161   -3.8356 H       1  UNL1        0.0235
     48 H          20.6206   40.2531   -4.8242 H       1  UNL1        0.0620
     49 H          21.0467   38.6318   -6.6486 H       1  UNL1        0.0618
     50 H          22.5912   39.2029   -8.4976 H       1  UNL1        0.0621
     51 H          23.2844   43.0723   -6.7284 H       1  UNL1        0.0623
     52 H          24.1887   42.5920   -8.8511 H       1  UNL1        0.0473
     53 H          24.9792   41.0485   -8.6639 H       1  UNL1        0.0473
     54 H          24.2481   40.6177  -10.6467 H       1  UNL1        0.1223
     55 H          23.0098   43.1013  -10.3911 H       1  UNL1        0.0450
     56 H          23.7247   42.3950  -11.8100 H       1  UNL1        0.0450
     57 H          20.1778   39.5445  -11.3319 H       1  UNL1        0.0332
     58 H          21.3475   39.5669  -10.0457 H       1  UNL1        0.0332
     59 H          20.4503   40.1398   -7.6337 H       1  UNL1        0.0620
     60 H          18.7055   39.4191   -6.0244 H       1  UNL1        0.0618
     61 H          16.5923   38.4121   -6.8444 H       1  UNL1        0.0620
     62 H          17.9563   38.8418  -10.9117 H       1  UNL1        0.0623
     63 H          15.9441   37.5638  -10.4429 H       1  UNL1        0.0313
     64 H          15.6311   37.0588   -8.8054 H       1  UNL1        0.0313
     65 H          13.7086   38.3389   -9.3796 H       1  UNL1        0.0269
     66 H          14.6429   39.3735   -8.3448 H       1  UNL1        0.0269
     67 H          15.6222   40.1312  -10.8145 H       1  UNL1        0.0280
     68 H          14.0483   39.5927  -11.2896 H       1  UNL1        0.0280
     69 H          12.9841   41.1352   -9.6306 H       1  UNL1        0.0461
     70 H          14.5479   41.6689   -9.0759 H       1  UNL1        0.0461
     71 H          13.0619   42.7069  -11.1688 H       1  UNL1        0.1475
     72 H          16.5849   41.9256  -10.2123 H       1  UNL1        0.0659
     73 H          17.9400   45.6674  -11.8575 H       1  UNL1        0.0678
     74 H          16.2863   48.1348  -13.5154 H       1  UNL1        0.0660
     75 H          17.4046   46.7831  -13.6138 H       1  UNL1        0.0660
     76 H          17.1501   47.6230  -12.0685 H       1  UNL1        0.0660
     77 H          18.4886   41.4852  -11.1097 H       1  UNL1        0.1494
     78 H          22.5555   40.8483  -12.8311 H       1  UNL1        0.2099
@<TRIPOS>BOND
     1     1     2    1
     2     1    41    1
     3     1    42    1
     4     1    43    1
     5     2     3    1
     6     2     4    1
     7     2    44    1
     8     3    45    1
     9     3    46    1
    10     3    47    1
    11     4     9   ar
    12     4     5   ar
    13     5     6   ar
    14     5    48    1
    15     6     7   ar
    16     6    49    1
    17     7     8   ar
    18     7    50    1
    19     8     9   ar
    20     8    10    1
    21     9    51    1
    22    10    11    1
    23    10    52    1
    24    10    53    1
    25    11    12    1
    26    11    54    1
    27    12    13    1
    28    12    55    1
    29    12    56    1
    30    13    39    1
    31    13    14    1
    32    13    38    1
    33    14    40    1
    34    14    37    1
    35    14    15    1
    36    15    16    1
    37    15    57    1
    38    15    58    1
    39    16    21   ar
    40    16    17   ar
    41    17    18   ar
    42    17    59    1
    43    18    19   ar
    44    18    60    1
    45    19    20   ar
    46    19    61    1
    47    20    21   ar
    48    20    22    1
    49    21    62    1
    50    22    23    1
    51    22    63    1
    52    22    64    1
    53    23    24    1
    54    23    65    1
    55    23    66    1
    56    24    25    1
    57    24    67    1
    58    24    68    1
    59    25    26    1
    60    25    69    1
    61    25    70    1
    62    26    27    1
    63    26    71    1
    64    27    32   ar
    65    27    28   ar
    66    28    29   ar
    67    28    72    1
    68    29    30   ar
    69    29    35    1
    70    30    31   ar
    71    30    73    1
    72    31    32   ar
    73    31    33    1
    74    33    34    1
    75    34    74    1
    76    34    75    1
    77    34    76    1
    78    35    36    2
    79    35    37   am
    80    37    77    1
    81    38    78    1
