@<TRIPOS>MOLECULE
BACE_10.smi:1
 86 88 0 0 0
SMALL
GASTEIGER
****
Structure written by MMmdl.
@<TRIPOS>ATOM
      1 C          20.2993   38.5498   -7.0544 C.3     1  UNL1       -0.0623
      2 C          19.7845   39.3296   -8.2760 C.3     1  UNL1       -0.0400
      3 C          19.1348   38.3812   -9.3183 C.3     1  UNL1       -0.0268
      4 C          17.7645   37.8366   -8.8866 C.3     1  UNL1        0.0479
      5 O          16.9585   38.9625   -8.6026 O.3     1  UNL1       -0.3797
      6 C          15.6287   38.6661   -8.2166 C.3     1  UNL1        0.0477
      7 C          15.1235   39.8358   -7.3585 C.3     1  UNL1       -0.0281
      8 C          15.3969   41.2239   -7.9646 C.3     1  UNL1       -0.0354
      9 C          14.8181   41.4078   -9.3743 C.3     1  UNL1        0.0092
     10 N          15.0744   42.7444   -9.8937 N.pl3   1  UNL1       -0.3438
     11 C          16.2278   43.0727  -10.6214 C.ar    1  UNL1        0.0282
     12 C          16.3005   44.3768  -11.1526 C.ar    1  UNL1       -0.0355
     13 C          17.3904   44.7766  -11.9500 C.ar    1  UNL1       -0.0195
     14 C          18.4266   43.8571  -12.2135 C.ar    1  UNL1       -0.0442
     15 C          18.3908   42.5584  -11.6652 C.ar    1  UNL1        0.0388
     16 C          17.2903   42.1652  -10.8670 C.ar    1  UNL1       -0.0287
     17 C          19.4629   41.5802  -12.0448 C.2     1  UNL1        0.2444
     18 O          19.6647   41.3500  -13.2340 O.2     1  UNL1       -0.2702
     19 N          20.1989   40.9813  -11.0920 N.am    1  UNL1       -0.3058
     20 C          20.4438   41.4199   -9.7151 C.3     1  UNL1        0.0545
     21 C          20.9128   40.2078   -8.8629 C.3     1  UNL1       -0.0292
     22 C          21.4971   42.5737   -9.6674 C.3     1  UNL1        0.1130
     23 C          22.6751   42.5025  -10.6727 C.3     1  UNL1       -0.0050
     24 N          23.5834   41.3560  -10.4400 N.4     1  UNL1        0.2321
     25 C          24.5732   41.5036   -9.3495 C.3     1  UNL1       -0.0076
     26 C          25.6522   42.5308   -9.6426 C.ar    1  UNL1       -0.0027
     27 C          25.5602   43.8318   -9.1040 C.ar    1  UNL1       -0.0535
     28 C          26.5871   44.7640   -9.3412 C.ar    1  UNL1       -0.0611
     29 C          27.7039   44.4019  -10.1166 C.ar    1  UNL1       -0.0583
     30 C          27.8110   43.1051  -10.6604 C.ar    1  UNL1       -0.0444
     31 C          26.7767   42.1706  -10.4234 C.ar    1  UNL1       -0.0501
     32 C          29.0477   42.7445  -11.4819 C.3     1  UNL1       -0.0215
     33 C          28.7000   42.0018  -12.7784 C.3     1  UNL1       -0.0586
     34 C          30.0598   41.9377  -10.6608 C.3     1  UNL1       -0.0586
     35 O          20.8335   43.8065   -9.8643 O.3     1  UNL1       -0.3847
     36 C          17.4267   46.1873  -12.5117 C.3     1  UNL1        0.0724
     37 O          18.4549   46.3736  -13.4681 O.3     1  UNL1       -0.3784
     38 C          18.4395   47.6676  -14.0469 C.3     1  UNL1        0.0369
     39 H          19.0228   40.0144   -7.8994 H       1  UNL1        0.0299
     40 H          19.5156   41.7816   -9.2697 H       1  UNL1        0.0526
     41 H          21.8974   42.6551   -8.6573 H       1  UNL1        0.0666
     42 H          21.1053   37.8692   -7.3222 H       1  UNL1        0.0232
     43 H          19.5068   37.9666   -6.5885 H       1  UNL1        0.0232
     44 H          20.6810   39.2234   -6.2854 H       1  UNL1        0.0232
     45 H          18.9759   38.9044  -10.2586 H       1  UNL1        0.0290
     46 H          19.8082   37.5546   -9.5472 H       1  UNL1        0.0290
     47 H          17.3187   37.2452   -9.6900 H       1  UNL1        0.0560
     48 H          17.8493   37.1940   -8.0093 H       1  UNL1        0.0560
     49 H          15.0120   38.5232   -9.1076 H       1  UNL1        0.0560
     50 H          15.5687   37.7473   -7.6400 H       1  UNL1        0.0560
     51 H          14.0579   39.7094   -7.1671 H       1  UNL1        0.0288
     52 H          15.6043   39.7853   -6.3784 H       1  UNL1        0.0288
     53 H          14.9767   41.9748   -7.2945 H       1  UNL1        0.0281
     54 H          16.4724   41.4064   -7.9776 H       1  UNL1        0.0281
     55 H          15.2000   40.6552  -10.0625 H       1  UNL1        0.0461
     56 H          13.7389   41.2599   -9.3442 H       1  UNL1        0.0461
     57 H          14.3815   43.4523   -9.7040 H       1  UNL1        0.1461
     58 H          15.5024   45.0795  -10.9644 H       1  UNL1        0.0639
     59 H          19.2593   44.1509  -12.8382 H       1  UNL1        0.0628
     60 H          17.2612   41.1580  -10.4758 H       1  UNL1        0.0643
     61 H          20.7876   40.2347  -11.4305 H       1  UNL1        0.1494
     62 H          21.4754   40.5938   -8.0129 H       1  UNL1        0.0286
     63 H          21.6200   39.5858   -9.4116 H       1  UNL1        0.0286
     64 H          22.2994   42.4341  -11.6944 H       1  UNL1        0.0840
     65 H          23.2463   43.4318  -10.6466 H       1  UNL1        0.0840
     66 H          23.0301   40.5308  -10.2590 H       1  UNL1        0.2018
     67 H          24.0782   41.7295   -8.4030 H       1  UNL1        0.0866
     68 H          25.0666   40.5474   -9.2153 H       1  UNL1        0.0866
     69 H          24.7118   44.1149   -8.4987 H       1  UNL1        0.0622
     70 H          26.5206   45.7576   -8.9251 H       1  UNL1        0.0618
     71 H          28.4870   45.1278  -10.2825 H       1  UNL1        0.0620
     72 H          26.8555   41.1645  -10.8138 H       1  UNL1        0.0625
     73 H          29.5309   43.6810  -11.7700 H       1  UNL1        0.0343
     74 H          27.9489   42.5466  -13.3479 H       1  UNL1        0.0235
     75 H          28.3156   41.0039  -12.5712 H       1  UNL1        0.0235
     76 H          29.5792   41.8848  -13.4112 H       1  UNL1        0.0235
     77 H          30.3021   42.4372   -9.7210 H       1  UNL1        0.0235
     78 H          30.9872   41.7953  -11.2148 H       1  UNL1        0.0235
     79 H          29.6602   40.9502  -10.4403 H       1  UNL1        0.0235
     80 H          20.1224   43.8762   -9.2423 H       1  UNL1        0.2101
     81 H          16.4575   46.3975  -12.9694 H       1  UNL1        0.0610
     82 H          17.5572   46.8868  -11.6844 H       1  UNL1        0.0610
     83 H          19.2517   47.7560  -14.7675 H       1  UNL1        0.0524
     84 H          18.5738   48.4423  -13.2905 H       1  UNL1        0.0524
     85 H          17.5021   47.8507  -14.5742 H       1  UNL1        0.0524
     86 H          24.0713   41.1943  -11.3158 H       1  UNL1        0.2018
@<TRIPOS>BOND
     1     1     2    1
     2     1    42    1
     3     1    43    1
     4     1    44    1
     5     2    39    1
     6     2    21    1
     7     2     3    1
     8     3     4    1
     9     3    45    1
    10     3    46    1
    11     4     5    1
    12     4    47    1
    13     4    48    1
    14     5     6    1
    15     6     7    1
    16     6    49    1
    17     6    50    1
    18     7     8    1
    19     7    51    1
    20     7    52    1
    21     8     9    1
    22     8    53    1
    23     8    54    1
    24     9    10    1
    25     9    55    1
    26     9    56    1
    27    10    11    1
    28    10    57    1
    29    11    16   ar
    30    11    12   ar
    31    12    13   ar
    32    12    58    1
    33    13    14   ar
    34    13    36    1
    35    14    15   ar
    36    14    59    1
    37    15    16   ar
    38    15    17    1
    39    16    60    1
    40    17    18    2
    41    17    19   am
    42    19    20    1
    43    19    61    1
    44    20    40    1
    45    20    21    1
    46    20    22    1
    47    21    62    1
    48    21    63    1
    49    22    41    1
    50    22    23    1
    51    22    35    1
    52    23    24    1
    53    23    64    1
    54    23    65    1
    55    24    25    1
    56    24    66    1
    57    24    86    1
    58    25    26    1
    59    25    67    1
    60    25    68    1
    61    26    31   ar
    62    26    27   ar
    63    27    28   ar
    64    27    69    1
    65    28    29   ar
    66    28    70    1
    67    29    30   ar
    68    29    71    1
    69    30    31   ar
    70    30    32    1
    71    31    72    1
    72    32    33    1
    73    32    34    1
    74    32    73    1
    75    33    74    1
    76    33    75    1
    77    33    76    1
    78    34    77    1
    79    34    78    1
    80    34    79    1
    81    35    80    1
    82    36    37    1
    83    36    81    1
    84    36    82    1
    85    37    38    1
    86    38    83    1
    87    38    84    1
    88    38    85    1
