@<TRIPOS>MOLECULE
BACE_2.smi:1
 95 97 0 0 0
SMALL
GASTEIGER
****
Structure written by MMmdl.
@<TRIPOS>ATOM
      1 C          22.7271   50.5207   -3.1103 C.ar    1  UNL1       -0.0193
      2 C          23.7604   50.4314   -2.1574 C.ar    1  UNL1       -0.0549
      3 C          24.5976   49.3000   -2.1308 C.ar    1  UNL1       -0.0443
      4 C          25.7144   49.2028   -1.1013 C.3     1  UNL1       -0.0215
      5 C          26.5695   50.4815   -1.0527 C.3     1  UNL1       -0.0586
      6 C          25.1859   48.8128    0.2905 C.3     1  UNL1       -0.0586
      7 C          24.3976   48.2561   -3.0540 C.ar    1  UNL1       -0.0502
      8 C          23.3627   48.3421   -4.0081 C.ar    1  UNL1        0.0115
      9 C          22.5261   49.4865   -4.0460 C.ar    1  UNL1        0.1260
     10 C          23.1485   47.2028   -4.9879 C.3     1  UNL1        0.0400
     11 C          21.7935   47.3154   -5.6914 C.3     1  UNL1        0.0062
     12 C          21.5367   48.7707   -6.0962 C.3     1  UNL1        0.1068
     13 O          21.4951   49.6180   -4.9497 O.3     1  UNL1       -0.4859
     14 C          22.6160   49.2622   -7.0565 C.3     1  UNL1       -0.0251
     15 C          20.2054   48.8826   -6.8337 C.3     1  UNL1       -0.0251
     16 N          23.2593   45.9088   -4.2972 N.3     1  UNL1       -0.3066
     17 C          22.7133   44.7520   -5.0130 C.3     1  UNL1        0.0242
     18 C          23.5166   44.4366   -6.2941 C.3     1  UNL1        0.0859
     19 O          24.7757   43.9429   -5.8768 O.3     1  UNL1       -0.3887
     20 C          22.8322   43.4188   -7.2602 C.3     1  UNL1        0.0505
     21 N          21.5717   43.9702   -7.7733 N.am    1  UNL1       -0.3084
     22 C          20.3597   43.4121   -7.6538 C.2     1  UNL1        0.2336
     23 O          20.1615   42.3738   -7.0446 O.2     1  UNL1       -0.2738
     24 C          19.2018   44.1964   -8.3160 C.3     1  UNL1        0.0991
     25 C          18.5181   45.0088   -7.2200 C.3     1  UNL1       -0.0379
     26 C          23.7282   42.9397   -8.4413 C.3     1  UNL1       -0.0295
     27 C          23.1660   41.7581   -9.2635 C.3     1  UNL1       -0.0421
     28 C          21.7347   42.0742   -9.6881 C.3     1  UNL1       -0.0624
     29 C          23.2342   40.3990   -8.5345 C.3     1  UNL1       -0.0504
     30 C          22.4352   39.2830   -9.2373 C.3     1  UNL1       -0.0528
     31 C          20.9209   39.3794   -8.9726 C.3     1  UNL1       -0.0530
     32 C          20.0844   38.3541   -9.7620 C.3     1  UNL1       -0.0531
     33 C          18.5919   38.3167   -9.3586 C.3     1  UNL1       -0.0530
     34 C          17.8666   39.6799   -9.3523 C.3     1  UNL1       -0.0526
     35 C          17.7659   40.3575  -10.7359 C.3     1  UNL1       -0.0448
     36 C          17.2830   41.8269  -10.6691 C.3     1  UNL1        0.0242
     37 C          18.3575   42.8027  -10.1760 C.2     1  UNL1        0.2159
     38 O          19.2955   43.0780  -10.9059 O.2     1  UNL1       -0.2756
     39 N          18.1996   43.3044   -8.9415 N.am    1  UNL1       -0.2932
     40 C          17.0464   42.8695   -8.1796 C.3     1  UNL1        0.0039
     41 H          23.9502   47.2383   -5.7254 H       1  UNL1        0.0512
     42 H          23.7023   45.3793   -6.8106 H       1  UNL1        0.0624
     43 H          22.5753   42.5399   -6.6699 H       1  UNL1        0.0524
     44 H          19.5850   44.9243   -9.0311 H       1  UNL1        0.0594
     45 H          23.7259   41.6764  -10.1952 H       1  UNL1        0.0299
     46 H          22.0875   51.3908   -3.1246 H       1  UNL1        0.0654
     47 H          23.9095   51.2311   -1.4471 H       1  UNL1        0.0622
     48 H          26.3800   48.3979   -1.4156 H       1  UNL1        0.0343
     49 H          26.9890   50.7103   -2.0330 H       1  UNL1        0.0235
     50 H          27.4051   50.3675   -0.3615 H       1  UNL1        0.0235
     51 H          25.9930   51.3478   -0.7272 H       1  UNL1        0.0235
     52 H          24.6358   47.8719    0.2516 H       1  UNL1        0.0235
     53 H          24.5196   49.5708    0.7030 H       1  UNL1        0.0235
     54 H          26.0056   48.6796    0.9972 H       1  UNL1        0.0235
     55 H          25.0391   47.3877   -3.0253 H       1  UNL1        0.0625
     56 H          21.7577   46.6544   -6.5574 H       1  UNL1        0.0322
     57 H          21.0004   46.9917   -5.0174 H       1  UNL1        0.0322
     58 H          22.6429   48.6580   -7.9642 H       1  UNL1        0.0268
     59 H          23.6137   49.2334   -6.6191 H       1  UNL1        0.0268
     60 H          22.4328   50.2941   -7.3585 H       1  UNL1        0.0268
     61 H          20.1850   48.2501   -7.7220 H       1  UNL1        0.0268
     62 H          20.0141   49.9070   -7.1555 H       1  UNL1        0.0268
     63 H          19.3704   48.5844   -6.1985 H       1  UNL1        0.0268
     64 H          24.2266   45.7368   -4.0424 H       1  UNL1        0.1226
     65 H          22.7421   43.8770   -4.3633 H       1  UNL1        0.0450
     66 H          21.6630   44.9164   -5.2536 H       1  UNL1        0.0450
     67 H          24.9534   44.2705   -5.0084 H       1  UNL1        0.2099
     68 H          21.6212   44.8412   -8.2822 H       1  UNL1        0.1491
     69 H          19.2149   45.7026   -6.7477 H       1  UNL1        0.0252
     70 H          18.1058   44.3724   -6.4362 H       1  UNL1        0.0252
     71 H          17.6983   45.6045   -7.6228 H       1  UNL1        0.0252
     72 H          23.9055   43.7842   -9.1072 H       1  UNL1        0.0286
     73 H          24.7126   42.6729   -8.0566 H       1  UNL1        0.0286
     74 H          21.3028   41.2687  -10.2813 H       1  UNL1        0.0232
     75 H          21.6820   42.9717  -10.3032 H       1  UNL1        0.0232
     76 H          21.0857   42.2275   -8.8251 H       1  UNL1        0.0232
     77 H          24.2793   40.0990   -8.4579 H       1  UNL1        0.0268
     78 H          22.8823   40.4945   -7.5073 H       1  UNL1        0.0268
     79 H          22.7892   38.3147   -8.8834 H       1  UNL1        0.0265
     80 H          22.6377   39.3003  -10.3082 H       1  UNL1        0.0265
     81 H          20.7366   39.2571   -7.9053 H       1  UNL1        0.0265
     82 H          20.5756   40.3826   -9.2225 H       1  UNL1        0.0265
     83 H          20.5042   37.3583   -9.6201 H       1  UNL1        0.0265
     84 H          20.1760   38.5577  -10.8289 H       1  UNL1        0.0265
     85 H          18.0604   37.6248  -10.0120 H       1  UNL1        0.0265
     86 H          18.5161   37.8864   -8.3601 H       1  UNL1        0.0265
     87 H          18.3594   40.3413   -8.6397 H       1  UNL1        0.0265
     88 H          16.8603   39.5428   -8.9565 H       1  UNL1        0.0265
     89 H          18.7219   40.3152  -11.2579 H       1  UNL1        0.0270
     90 H          17.0772   39.7812  -11.3535 H       1  UNL1        0.0270
     91 H          16.3803   41.9067  -10.0634 H       1  UNL1        0.0358
     92 H          16.9878   42.1615  -11.6635 H       1  UNL1        0.0358
     93 H          16.9098   43.4143   -7.2474 H       1  UNL1        0.0429
     94 H          17.1182   41.8112   -7.9257 H       1  UNL1        0.0429
     95 H          16.1233   43.0360   -8.7363 H       1  UNL1        0.0429
@<TRIPOS>BOND
     1     1     9   ar
     2     1     2   ar
     3     1    46    1
     4     2     3   ar
     5     2    47    1
     6     3     4    1
     7     3     7   ar
     8     4     5    1
     9     4     6    1
    10     4    48    1
    11     5    49    1
    12     5    50    1
    13     5    51    1
    14     6    52    1
    15     6    53    1
    16     6    54    1
    17     7     8   ar
    18     7    55    1
    19     8     9   ar
    20     8    10    1
    21     9    13    1
    22    10    41    1
    23    10    11    1
    24    10    16    1
    25    11    12    1
    26    11    56    1
    27    11    57    1
    28    12    13    1
    29    12    14    1
    30    12    15    1
    31    14    58    1
    32    14    59    1
    33    14    60    1
    34    15    61    1
    35    15    62    1
    36    15    63    1
    37    16    17    1
    38    16    64    1
    39    17    18    1
    40    17    65    1
    41    17    66    1
    42    18    42    1
    43    18    19    1
    44    18    20    1
    45    19    67    1
    46    20    43    1
    47    20    21    1
    48    20    26    1
    49    21    22   am
    50    21    68    1
    51    22    23    2
    52    22    24    1
    53    24    44    1
    54    24    39    1
    55    24    25    1
    56    25    69    1
    57    25    70    1
    58    25    71    1
    59    26    27    1
    60    26    72    1
    61    26    73    1
    62    27    45    1
    63    27    28    1
    64    27    29    1
    65    28    74    1
    66    28    75    1
    67    28    76    1
    68    29    30    1
    69    29    77    1
    70    29    78    1
    71    30    31    1
    72    30    79    1
    73    30    80    1
    74    31    32    1
    75    31    81    1
    76    31    82    1
    77    32    33    1
    78    32    83    1
    79    32    84    1
    80    33    34    1
    81    33    85    1
    82    33    86    1
    83    34    35    1
    84    34    87    1
    85    34    88    1
    86    35    36    1
    87    35    89    1
    88    35    90    1
    89    36    37    1
    90    36    91    1
    91    36    92    1
    92    37    38    2
    93    37    39   am
    94    39    40    1
    95    40    93    1
    96    40    94    1
    97    40    95    1
