@<TRIPOS>MOLECULE
BACE_10.smi:1
 85 87 0 0 0
SMALL
GASTEIGER
****
Structure written by MMmdl.
@<TRIPOS>ATOM
      1 C          20.2804   38.7776   -7.0691 C.3     1  UNL1       -0.0623
      2 C          19.8898   39.4545   -8.3956 C.3     1  UNL1       -0.0400
      3 C          19.5770   38.4000   -9.4850 C.3     1  UNL1       -0.0268
      4 C          18.3294   37.5490   -9.2105 C.3     1  UNL1        0.0479
      5 O          17.1992   38.3948   -9.0814 O.3     1  UNL1       -0.3797
      6 C          15.9773   37.6766   -9.0921 C.3     1  UNL1        0.0477
      7 C          14.8129   38.5693   -8.6411 C.3     1  UNL1       -0.0281
      8 C          14.7151   39.9028   -9.3980 C.3     1  UNL1       -0.0354
      9 C          15.4091   41.0515   -8.6518 C.3     1  UNL1        0.0092
     10 N          15.3004   42.3091   -9.3758 N.pl3   1  UNL1       -0.3438
     11 C          16.2575   42.7222  -10.3129 C.ar    1  UNL1        0.0282
     12 C          16.1046   44.0041  -10.8852 C.ar    1  UNL1       -0.0355
     13 C          17.0306   44.4880  -11.8295 C.ar    1  UNL1       -0.0195
     14 C          18.1307   43.6906  -12.1970 C.ar    1  UNL1       -0.0442
     15 C          18.3076   42.4146  -11.6229 C.ar    1  UNL1        0.0388
     16 C          17.3588   41.9239  -10.7003 C.ar    1  UNL1       -0.0287
     17 C          19.4766   41.5766  -12.0427 C.2     1  UNL1        0.2444
     18 O          19.6601   41.3497  -13.2366 O.2     1  UNL1       -0.2702
     19 N          20.3176   41.1045  -11.1047 N.am    1  UNL1       -0.3060
     20 C          20.5404   41.6120   -9.7490 C.3     1  UNL1        0.0508
     21 C          20.9963   40.4537   -8.8229 C.3     1  UNL1       -0.0294
     22 C          21.5803   42.7769   -9.7730 C.3     1  UNL1        0.0859
     23 C          22.7032   42.6706  -10.8294 C.3     1  UNL1        0.0240
     24 N          23.6678   41.6153  -10.5182 N.3     1  UNL1       -0.3095
     25 C          24.7674   42.0107   -9.6365 C.3     1  UNL1        0.0213
     26 C          25.8947   42.7211  -10.3700 C.ar    1  UNL1       -0.0333
     27 C          25.8281   44.1106  -10.6149 C.ar    1  UNL1       -0.0573
     28 C          26.8723   44.7643  -11.2992 C.ar    1  UNL1       -0.0612
     29 C          28.0017   44.0369  -11.7173 C.ar    1  UNL1       -0.0583
     30 C          28.0968   42.6476  -11.4564 C.ar    1  UNL1       -0.0445
     31 C          27.0302   41.9950  -10.7950 C.ar    1  UNL1       -0.0539
     32 C          29.3513   41.8726  -11.8431 C.3     1  UNL1       -0.0215
     33 C          30.5406   42.3046  -10.9791 C.3     1  UNL1       -0.0586
     34 C          29.6834   41.9795  -13.3404 C.3     1  UNL1       -0.0586
     35 O          20.8840   43.9867  -10.0003 O.3     1  UNL1       -0.3887
     36 C          16.8781   45.8842  -12.4038 C.3     1  UNL1        0.0724
     37 O          15.5521   46.1507  -12.8352 O.3     1  UNL1       -0.3784
     38 C          15.4140   47.4735  -13.3300 C.3     1  UNL1        0.0369
     39 H          18.9840   40.0298   -8.2013 H       1  UNL1        0.0299
     40 H          19.6145   41.9931   -9.3174 H       1  UNL1        0.0524
     41 H          22.0264   42.8878   -8.7859 H       1  UNL1        0.0624
     42 H          21.1642   38.1507   -7.1835 H       1  UNL1        0.0232
     43 H          19.4745   38.1545   -6.6818 H       1  UNL1        0.0232
     44 H          20.4988   39.5152   -6.2948 H       1  UNL1        0.0232
     45 H          19.4098   38.8738  -10.4472 H       1  UNL1        0.0290
     46 H          20.4414   37.7507   -9.6207 H       1  UNL1        0.0290
     47 H          18.1852   36.8544  -10.0396 H       1  UNL1        0.0560
     48 H          18.4488   36.9499   -8.3081 H       1  UNL1        0.0560
     49 H          15.7931   37.3053  -10.0984 H       1  UNL1        0.0560
     50 H          16.0461   36.8055   -8.4411 H       1  UNL1        0.0560
     51 H          13.8802   38.0278   -8.7938 H       1  UNL1        0.0288
     52 H          14.8764   38.7456   -7.5652 H       1  UNL1        0.0288
     53 H          15.1097   39.7927  -10.4085 H       1  UNL1        0.0281
     54 H          13.6602   40.1556   -9.5147 H       1  UNL1        0.0281
     55 H          14.9316   41.1861   -7.6810 H       1  UNL1        0.0461
     56 H          16.4485   40.8128   -8.4295 H       1  UNL1        0.0461
     57 H          14.5795   42.9491   -9.0770 H       1  UNL1        0.1461
     58 H          15.2707   44.6283  -10.5944 H       1  UNL1        0.0639
     59 H          18.8594   44.0630  -12.8993 H       1  UNL1        0.0628
     60 H          17.4959   40.9323  -10.2913 H       1  UNL1        0.0643
     61 H          21.0482   40.4960  -11.4434 H       1  UNL1        0.1494
     62 H          21.3923   40.9084   -7.9176 H       1  UNL1        0.0286
     63 H          21.8423   39.9214   -9.2610 H       1  UNL1        0.0286
     64 H          22.2763   42.4911  -11.8169 H       1  UNL1        0.0450
     65 H          23.2069   43.6272  -10.9252 H       1  UNL1        0.0450
     66 H          24.0604   41.2827  -11.4021 H       1  UNL1        0.1223
     67 H          24.4086   42.6232   -8.8094 H       1  UNL1        0.0473
     68 H          25.1895   41.1117   -9.1896 H       1  UNL1        0.0473
     69 H          24.9797   44.6839  -10.2789 H       1  UNL1        0.0621
     70 H          26.8074   45.8266  -11.4933 H       1  UNL1        0.0618
     71 H          28.8073   44.5545  -12.2180 H       1  UNL1        0.0620
     72 H          27.0911   40.9317  -10.5935 H       1  UNL1        0.0623
     73 H          29.1636   40.8196  -11.6381 H       1  UNL1        0.0343
     74 H          30.3370   42.1487   -9.9182 H       1  UNL1        0.0235
     75 H          30.7681   43.3636  -11.1187 H       1  UNL1        0.0235
     76 H          31.4383   41.7430  -11.2381 H       1  UNL1        0.0235
     77 H          28.8601   41.6306  -13.9640 H       1  UNL1        0.0235
     78 H          30.5521   41.3661  -13.5898 H       1  UNL1        0.0235
     79 H          29.9126   43.0044  -13.6345 H       1  UNL1        0.0235
     80 H          20.2125   44.0752   -9.3400 H       1  UNL1        0.2099
     81 H          17.1739   46.5980  -11.6331 H       1  UNL1        0.0610
     82 H          17.5685   46.0074  -13.2391 H       1  UNL1        0.0610
     83 H          14.3920   47.6334  -13.6723 H       1  UNL1        0.0524
     84 H          16.0835   47.6528  -14.1703 H       1  UNL1        0.0524
     85 H          15.6290   48.2076  -12.5513 H       1  UNL1        0.0524
@<TRIPOS>BOND
     1     1     2    1
     2     1    42    1
     3     1    43    1
     4     1    44    1
     5     2    39    1
     6     2    21    1
     7     2     3    1
     8     3     4    1
     9     3    45    1
    10     3    46    1
    11     4     5    1
    12     4    47    1
    13     4    48    1
    14     5     6    1
    15     6     7    1
    16     6    49    1
    17     6    50    1
    18     7     8    1
    19     7    51    1
    20     7    52    1
    21     8     9    1
    22     8    53    1
    23     8    54    1
    24     9    10    1
    25     9    55    1
    26     9    56    1
    27    10    11    1
    28    10    57    1
    29    11    16   ar
    30    11    12   ar
    31    12    13   ar
    32    12    58    1
    33    13    14   ar
    34    13    36    1
    35    14    15   ar
    36    14    59    1
    37    15    16   ar
    38    15    17    1
    39    16    60    1
    40    17    18    2
    41    17    19   am
    42    19    20    1
    43    19    61    1
    44    20    40    1
    45    20    21    1
    46    20    22    1
    47    21    62    1
    48    21    63    1
    49    22    41    1
    50    22    23    1
    51    22    35    1
    52    23    24    1
    53    23    64    1
    54    23    65    1
    55    24    25    1
    56    24    66    1
    57    25    26    1
    58    25    67    1
    59    25    68    1
    60    26    31   ar
    61    26    27   ar
    62    27    28   ar
    63    27    69    1
    64    28    29   ar
    65    28    70    1
    66    29    30   ar
    67    29    71    1
    68    30    31   ar
    69    30    32    1
    70    31    72    1
    71    32    33    1
    72    32    34    1
    73    32    73    1
    74    33    74    1
    75    33    75    1
    76    33    76    1
    77    34    77    1
    78    34    78    1
    79    34    79    1
    80    35    80    1
    81    36    37    1
    82    36    81    1
    83    36    82    1
    84    37    38    1
    85    38    83    1
    86    38    84    1
    87    38    85    1
