@<TRIPOS>MOLECULE
BACE_19.smi:1
 76 77 0 0 0
SMALL
GASTEIGER
****
Structure written by MMmdl.
@<TRIPOS>ATOM
      1 C          27.3990   43.7608  -12.8413 C.3     1  UNL1       -0.0652
      2 C          28.3424   42.7483  -12.1778 C.3     1  UNL1       -0.0545
      3 C          27.9386   42.3337  -10.7510 C.3     1  UNL1       -0.0376
      4 C          26.7122   41.4027  -10.6467 C.3     1  UNL1        0.0116
      5 N          25.4444   42.0303  -11.0018 N.am    1  UNL1       -0.3151
      6 C          24.8311   43.0334  -10.3603 C.2     1  UNL1        0.2159
      7 O          25.2988   43.5876   -9.3657 O.2     1  UNL1       -0.2755
      8 C          23.4747   43.4697  -10.9348 C.3     1  UNL1        0.0351
      9 C          23.6668   44.6262  -11.9319 C.3     1  UNL1       -0.0540
     10 C          22.4712   43.8445   -9.8157 C.3     1  UNL1       -0.0143
     11 C          20.9852   43.6696  -10.2090 C.3     1  UNL1        0.0742
     12 C          20.3692   42.3060   -9.7765 C.3     1  UNL1        0.0493
     13 C          21.1138   41.0603  -10.3429 C.3     1  UNL1       -0.0295
     14 C          20.5884   39.6483   -9.9654 C.3     1  UNL1       -0.0418
     15 C          20.2952   39.4987   -8.4473 C.3     1  UNL1       -0.0464
     16 C          19.5804   38.2082   -7.9906 C.3     1  UNL1       -0.0274
     17 C          18.0738   38.2470   -8.1983 C.ar    1  UNL1       -0.0470
     18 C          17.4394   37.2532   -8.9709 C.ar    1  UNL1       -0.0586
     19 C          16.0602   37.3407   -9.2402 C.ar    1  UNL1       -0.0612
     20 C          15.3083   38.4225   -8.7430 C.ar    1  UNL1       -0.0570
     21 C          15.9332   39.4141   -7.9591 C.ar    1  UNL1       -0.0263
     22 C          17.3052   39.3024   -7.6584 C.ar    1  UNL1       -0.0538
     23 C          15.1539   40.6444   -7.5273 C.3     1  UNL1        0.0907
     24 S          15.7734   42.1491   -8.4267 S.O2    1  UNL1       -0.0263
     25 O          14.7042   43.1611   -8.4447 O.2     1  UNL1       -0.1740
     26 O          17.1004   42.5135   -7.9042 O.2     1  UNL1       -0.1740
     27 C          16.0213   41.5432  -10.1637 C.3     1  UNL1        0.0769
     28 C          16.7334   42.5345  -11.1237 C.3     1  UNL1        0.0520
     29 C          18.2681   42.4139  -11.1771 C.2     1  UNL1        0.2177
     30 O          18.8397   42.4706  -12.2669 O.2     1  UNL1       -0.2755
     31 N          18.9192   42.2721  -10.0121 N.am    1  UNL1       -0.3097
     32 C          16.2930   44.0027  -11.0065 C.3     1  UNL1       -0.0526
     33 C          19.4664   39.1723  -10.9054 C.3     1  UNL1       -0.0623
     34 O          20.2621   44.7044   -9.5621 O.3     1  UNL1       -0.3899
     35 H          23.0769   42.6196  -11.4906 H       1  UNL1        0.0392
     36 H          20.8735   43.8207  -11.2840 H       1  UNL1        0.0612
     37 H          20.4753   42.2730   -8.6925 H       1  UNL1        0.0524
     38 H          21.4145   38.9669  -10.1779 H       1  UNL1        0.0299
     39 H          16.4359   42.2054  -12.1159 H       1  UNL1        0.0407
     40 H          27.8553   44.1785  -13.7379 H       1  UNL1        0.0230
     41 H          27.1667   44.5898  -12.1689 H       1  UNL1        0.0230
     42 H          26.4611   43.2930  -13.1422 H       1  UNL1        0.0230
     43 H          28.4500   41.8670  -12.8117 H       1  UNL1        0.0263
     44 H          29.3343   43.1999  -12.1258 H       1  UNL1        0.0263
     45 H          28.7863   41.7995  -10.3219 H       1  UNL1        0.0280
     46 H          27.8109   43.2157  -10.1242 H       1  UNL1        0.0280
     47 H          26.8555   40.5493  -11.3080 H       1  UNL1        0.0462
     48 H          26.6301   40.9963   -9.6400 H       1  UNL1        0.0462
     49 H          24.9593   41.6269  -11.7962 H       1  UNL1        0.1487
     50 H          24.3354   44.3413  -12.7445 H       1  UNL1        0.0237
     51 H          24.0900   45.5084  -11.4483 H       1  UNL1        0.0237
     52 H          22.7202   44.9193  -12.3856 H       1  UNL1        0.0237
     53 H          22.6662   43.2781   -8.9041 H       1  UNL1        0.0298
     54 H          22.6626   44.8836   -9.5398 H       1  UNL1        0.0298
     55 H          21.1789   41.1408  -11.4287 H       1  UNL1        0.0286
     56 H          22.1449   41.1068   -9.9925 H       1  UNL1        0.0286
     57 H          21.2553   39.5452   -7.9324 H       1  UNL1        0.0271
     58 H          19.7352   40.3489   -8.0677 H       1  UNL1        0.0271
     59 H          20.0135   37.3504   -8.5028 H       1  UNL1        0.0313
     60 H          19.7530   38.0581   -6.9247 H       1  UNL1        0.0313
     61 H          18.0119   36.4353   -9.3814 H       1  UNL1        0.0620
     62 H          15.5846   36.5843   -9.8469 H       1  UNL1        0.0618
     63 H          14.2561   38.4948   -8.9806 H       1  UNL1        0.0621
     64 H          17.7772   40.0643   -7.0550 H       1  UNL1        0.0623
     65 H          14.0879   40.5133   -7.7430 H       1  UNL1        0.0549
     66 H          15.2519   40.8147   -6.4521 H       1  UNL1        0.0549
     67 H          16.5785   40.6110  -10.1308 H       1  UNL1        0.0507
     68 H          15.0320   41.2881  -10.5412 H       1  UNL1        0.0507
     69 H          18.3386   42.2534   -9.1783 H       1  UNL1        0.1491
     70 H          16.7387   44.6117  -11.7943 H       1  UNL1        0.0237
     71 H          16.5951   44.4382  -10.0532 H       1  UNL1        0.0237
     72 H          15.2107   44.0950  -11.0901 H       1  UNL1        0.0237
     73 H          18.5091   39.6224  -10.6614 H       1  UNL1        0.0232
     74 H          19.3400   38.0917  -10.8513 H       1  UNL1        0.0232
     75 H          19.6888   39.4075  -11.9463 H       1  UNL1        0.0232
     76 H          20.2520   44.5268   -8.6342 H       1  UNL1        0.2099
@<TRIPOS>BOND
     1     1     2    1
     2     1    40    1
     3     1    41    1
     4     1    42    1
     5     2     3    1
     6     2    43    1
     7     2    44    1
     8     3     4    1
     9     3    45    1
    10     3    46    1
    11     4     5    1
    12     4    47    1
    13     4    48    1
    14     5     6   am
    15     5    49    1
    16     6     7    2
    17     6     8    1
    18     8    35    1
    19     8     9    1
    20     8    10    1
    21     9    50    1
    22     9    51    1
    23     9    52    1
    24    10    11    1
    25    10    53    1
    26    10    54    1
    27    11    36    1
    28    11    12    1
    29    11    34    1
    30    12    37    1
    31    12    31    1
    32    12    13    1
    33    13    14    1
    34    13    55    1
    35    13    56    1
    36    14    38    1
    37    14    15    1
    38    14    33    1
    39    15    16    1
    40    15    57    1
    41    15    58    1
    42    16    17    1
    43    16    59    1
    44    16    60    1
    45    17    22   ar
    46    17    18   ar
    47    18    19   ar
    48    18    61    1
    49    19    20   ar
    50    19    62    1
    51    20    21   ar
    52    20    63    1
    53    21    22   ar
    54    21    23    1
    55    22    64    1
    56    23    24    1
    57    23    65    1
    58    23    66    1
    59    24    25    2
    60    24    26    2
    61    24    27    1
    62    27    28    1
    63    27    67    1
    64    27    68    1
    65    28    39    1
    66    28    29    1
    67    28    32    1
    68    29    30    2
    69    29    31   am
    70    31    69    1
    71    32    70    1
    72    32    71    1
    73    32    72    1
    74    33    73    1
    75    33    74    1
    76    33    75    1
    77    34    76    1
