@<TRIPOS>MOLECULE
BACE_11.smi:1
 81 83 0 0 0
SMALL
GASTEIGER
****
Structure written by MMmdl.
@<TRIPOS>ATOM
      1 C          21.9021   41.9103   -4.6936 C.3     1  UNL1       -0.0379
      2 C          21.6742   41.7078   -6.2040 C.3     1  UNL1        0.0991
      3 C          20.9629   40.3894   -6.5782 C.2     1  UNL1        0.2336
      4 O          21.3301   39.3500   -6.0400 O.2     1  UNL1       -0.2738
      5 N          20.0182   40.4074   -7.5359 N.am    1  UNL1       -0.3080
      6 C          19.4263   39.2522   -8.2274 C.3     1  UNL1        0.0580
      7 C          20.4546   38.5806   -9.1669 C.3     1  UNL1       -0.0065
      8 C          20.9324   39.5594  -10.2173 C.ar    1  UNL1       -0.0421
      9 C          20.2296   39.6822  -11.4304 C.ar    1  UNL1       -0.0583
     10 C          20.6024   40.6705  -12.3559 C.ar    1  UNL1       -0.0580
     11 C          21.6600   41.5495  -12.0555 C.ar    1  UNL1       -0.0199
     12 C          22.3760   41.4328  -10.8399 C.ar    1  UNL1        0.1208
     13 C          22.0199   40.4117   -9.9437 C.ar    1  UNL1       -0.0167
     14 O          23.4062   42.2608  -10.4528 O.3     1  UNL1       -0.4920
     15 C          23.7657   43.3422  -11.2973 C.3     1  UNL1        0.0896
     16 C          24.7821   44.2390  -10.5733 C.3     1  UNL1       -0.0186
     17 C          24.1627   45.2087   -9.5441 C.3     1  UNL1       -0.0495
     18 C          24.3497   44.8311   -8.0566 C.3     1  UNL1       -0.0447
     19 C          23.5135   43.6495   -7.5123 C.3     1  UNL1        0.0242
     20 C          21.9919   43.8938   -7.4144 C.2     1  UNL1        0.2159
     21 O          21.5304   44.9499   -7.8528 O.2     1  UNL1       -0.2756
     22 N          21.1900   42.9608   -6.8346 N.am    1  UNL1       -0.2932
     23 C          19.7658   43.2835   -6.6687 C.3     1  UNL1        0.0039
     24 C          18.7048   38.2422   -7.3034 C.3     1  UNL1        0.1132
     25 C          17.7241   38.8333   -6.2867 C.3     1  UNL1       -0.0049
     26 N          16.6991   39.7500   -6.8401 N.4     1  UNL1        0.2321
     27 C          15.6082   39.2246   -7.6805 C.3     1  UNL1       -0.0076
     28 C          15.6356   40.0814   -8.9263 C.ar    1  UNL1       -0.0027
     29 C          16.3527   39.6548  -10.0601 C.ar    1  UNL1       -0.0535
     30 C          16.5843   40.5505  -11.1184 C.ar    1  UNL1       -0.0611
     31 C          16.0600   41.8549  -11.0698 C.ar    1  UNL1       -0.0583
     32 C          15.2814   42.2693   -9.9702 C.ar    1  UNL1       -0.0444
     33 C          15.0812   41.3781   -8.8944 C.ar    1  UNL1       -0.0501
     34 C          14.6992   43.6752   -9.9356 C.3     1  UNL1       -0.0215
     35 C          15.3660   44.5296   -8.8470 C.3     1  UNL1       -0.0586
     36 C          13.1695   43.6487   -9.7899 C.3     1  UNL1       -0.0586
     37 O          18.0120   37.2643   -8.0519 O.3     1  UNL1       -0.3847
     38 H          22.6638   41.4846   -6.5970 H       1  UNL1        0.0594
     39 H          18.6676   39.6917   -8.8677 H       1  UNL1        0.0529
     40 H          19.4754   37.7491   -6.7202 H       1  UNL1        0.0666
     41 H          22.3317   41.0215   -4.2294 H       1  UNL1        0.0252
     42 H          20.9662   42.1293   -4.1787 H       1  UNL1        0.0252
     43 H          22.5875   42.7362   -4.5021 H       1  UNL1        0.0252
     44 H          19.8066   41.3133   -7.9294 H       1  UNL1        0.1491
     45 H          21.3061   38.1910   -8.6064 H       1  UNL1        0.0332
     46 H          20.0093   37.7238   -9.6738 H       1  UNL1        0.0332
     47 H          19.3947   39.0308  -11.6467 H       1  UNL1        0.0620
     48 H          20.0689   40.7578  -13.2895 H       1  UNL1        0.0619
     49 H          21.9466   42.2811  -12.7921 H       1  UNL1        0.0654
     50 H          22.5628   40.3156   -9.0152 H       1  UNL1        0.0657
     51 H          24.2132   42.9497  -12.2111 H       1  UNL1        0.0696
     52 H          22.8948   43.9325  -11.5855 H       1  UNL1        0.0696
     53 H          25.5749   43.6391  -10.1255 H       1  UNL1        0.0298
     54 H          25.2726   44.8437  -11.3365 H       1  UNL1        0.0298
     55 H          24.6553   46.1724   -9.6794 H       1  UNL1        0.0266
     56 H          23.1174   45.4033   -9.7793 H       1  UNL1        0.0266
     57 H          25.4055   44.6240   -7.8788 H       1  UNL1        0.0270
     58 H          24.1296   45.7110   -7.4499 H       1  UNL1        0.0270
     59 H          23.7102   42.7575   -8.1025 H       1  UNL1        0.0358
     60 H          23.8780   43.4335   -6.5078 H       1  UNL1        0.0358
     61 H          19.2591   43.3093   -7.6339 H       1  UNL1        0.0429
     62 H          19.6337   44.2535   -6.1859 H       1  UNL1        0.0429
     63 H          19.2600   42.5548   -6.0402 H       1  UNL1        0.0429
     64 H          17.2600   38.0800   -5.6803 H       1  UNL1        0.0840
     65 H          18.3392   39.3500   -5.5613 H       1  UNL1        0.0840
     66 H          16.2635   40.2049   -6.0464 H       1  UNL1        0.2018
     67 H          15.7052   38.1661   -7.9152 H       1  UNL1        0.0866
     68 H          14.6579   39.3440   -7.1565 H       1  UNL1        0.0866
     69 H          16.7899   38.6667  -10.0939 H       1  UNL1        0.0622
     70 H          17.1859   40.2439  -11.9611 H       1  UNL1        0.0618
     71 H          16.2684   42.5376  -11.8773 H       1  UNL1        0.0620
     72 H          14.5355   41.7024   -8.0193 H       1  UNL1        0.0625
     73 H          14.9197   44.1464  -10.8938 H       1  UNL1        0.0343
     74 H          16.4442   44.5860   -9.0009 H       1  UNL1        0.0235
     75 H          15.1984   44.1131   -7.8545 H       1  UNL1        0.0235
     76 H          14.9787   45.5478   -8.8486 H       1  UNL1        0.0235
     77 H          12.7109   43.0556  -10.5817 H       1  UNL1        0.0235
     78 H          12.7475   44.6503   -9.8433 H       1  UNL1        0.0235
     79 H          12.8632   43.2172   -8.8379 H       1  UNL1        0.0235
     80 H          17.4774   36.7506   -7.4504 H       1  UNL1        0.2101
     81 H          17.1741   40.4673   -7.3655 H       1  UNL1        0.2018
@<TRIPOS>BOND
     1     1     2    1
     2     1    41    1
     3     1    42    1
     4     1    43    1
     5     2    38    1
     6     2    22    1
     7     2     3    1
     8     3     4    2
     9     3     5   am
    10     5     6    1
    11     5    44    1
    12     6    39    1
    13     6     7    1
    14     6    24    1
    15     7     8    1
    16     7    45    1
    17     7    46    1
    18     8    13   ar
    19     8     9   ar
    20     9    10   ar
    21     9    47    1
    22    10    11   ar
    23    10    48    1
    24    11    12   ar
    25    11    49    1
    26    12    13   ar
    27    12    14    1
    28    13    50    1
    29    14    15    1
    30    15    16    1
    31    15    51    1
    32    15    52    1
    33    16    17    1
    34    16    53    1
    35    16    54    1
    36    17    18    1
    37    17    55    1
    38    17    56    1
    39    18    19    1
    40    18    57    1
    41    18    58    1
    42    19    20    1
    43    19    59    1
    44    19    60    1
    45    20    21    2
    46    20    22   am
    47    22    23    1
    48    23    61    1
    49    23    62    1
    50    23    63    1
    51    24    40    1
    52    24    25    1
    53    24    37    1
    54    25    26    1
    55    25    64    1
    56    25    65    1
    57    26    27    1
    58    26    66    1
    59    26    81    1
    60    27    28    1
    61    27    67    1
    62    27    68    1
    63    28    33   ar
    64    28    29   ar
    65    29    30   ar
    66    29    69    1
    67    30    31   ar
    68    30    70    1
    69    31    32   ar
    70    31    71    1
    71    32    33   ar
    72    32    34    1
    73    33    72    1
    74    34    35    1
    75    34    36    1
    76    34    73    1
    77    35    74    1
    78    35    75    1
    79    35    76    1
    80    36    77    1
    81    36    78    1
    82    36    79    1
    83    37    80    1
