@<TRIPOS>MOLECULE
BACE_17.smi:1
 62 64 0 0 0
SMALL
GASTEIGER
****
Structure written by MMmdl.
@<TRIPOS>ATOM
      1 C          19.7910   48.6678   -9.8358 C.3     1  UNL1        0.0031
      2 N          19.8820   47.2097   -9.9362 N.am    1  UNL1       -0.3036
      3 C          19.1847   46.4754   -8.8740 C.3     1  UNL1        0.0031
      4 C          20.6542   46.6348  -10.8910 C.2     1  UNL1        0.2463
      5 O          21.3880   47.2861  -11.6347 O.2     1  UNL1       -0.2700
      6 C          20.6150   45.1401  -11.0423 C.ar    1  UNL1        0.0410
      7 C          21.8236   44.4077  -11.0452 C.ar    1  UNL1       -0.0078
      8 C          19.3892   44.4640  -11.2449 C.ar    1  UNL1       -0.0373
      9 C          19.3686   43.0629  -11.3953 C.ar    1  UNL1        0.0409
     10 C          20.5798   42.3468  -11.4005 C.ar    1  UNL1       -0.0078
     11 C          21.8059   43.0053  -11.2191 C.ar    1  UNL1        0.1219
     12 C          18.0828   42.3274  -11.5752 C.2     1  UNL1        0.2445
     13 O          17.2599   42.6823  -12.4188 O.2     1  UNL1       -0.2702
     14 N          17.9463   41.2840  -10.7457 N.am    1  UNL1       -0.3056
     15 C          16.9006   40.2644  -10.7397 C.3     1  UNL1        0.0554
     16 C          15.7020   40.6356   -9.8178 C.3     1  UNL1        0.0968
     17 O          16.1609   41.2591   -8.6309 O.3     1  UNL1       -0.3877
     18 C          14.6831   41.5792  -10.4866 C.3     1  UNL1        0.0719
     19 O          14.0600   40.9500  -11.5916 O.3     1  UNL1       -0.3924
     20 C          17.5205   38.8844  -10.4065 C.3     1  UNL1       -0.0066
     21 C          18.3912   38.8515   -9.1603 C.ar    1  UNL1       -0.0421
     22 C          19.7796   39.1063   -9.2446 C.ar    1  UNL1       -0.0167
     23 C          20.5810   39.1048   -8.0757 C.ar    1  UNL1        0.1208
     24 C          19.9741   38.8253   -6.8392 C.ar    1  UNL1       -0.0199
     25 C          18.5975   38.5497   -6.7507 C.ar    1  UNL1       -0.0580
     26 C          17.8071   38.5582   -7.9116 C.ar    1  UNL1       -0.0583
     27 O          21.9335   39.3650   -8.0538 O.3     1  UNL1       -0.4920
     28 C          22.4957   40.0443   -9.1654 C.3     1  UNL1        0.0897
     29 C          23.8687   40.5972   -8.7538 C.3     1  UNL1       -0.0156
     30 C          24.6603   41.2905   -9.8834 C.3     1  UNL1       -0.0156
     31 C          24.0166   42.5847  -10.4079 C.3     1  UNL1        0.0897
     32 O          22.9276   42.2181  -11.2391 O.3     1  UNL1       -0.4919
     33 H          16.5148   40.1706  -11.7512 H       1  UNL1        0.0528
     34 H          15.1768   39.7249   -9.5256 H       1  UNL1        0.0635
     35 H          20.6817   49.0672   -9.3496 H       1  UNL1        0.0428
     36 H          18.9192   48.9821   -9.2608 H       1  UNL1        0.0428
     37 H          19.7059   49.1312  -10.8208 H       1  UNL1        0.0428
     38 H          18.1879   46.1804   -9.2026 H       1  UNL1        0.0428
     39 H          19.0693   47.0853   -7.9771 H       1  UNL1        0.0428
     40 H          19.7273   45.5792   -8.5678 H       1  UNL1        0.0428
     41 H          22.7625   44.9289  -10.9247 H       1  UNL1        0.0662
     42 H          18.4606   45.0161  -11.2743 H       1  UNL1        0.0633
     43 H          20.5794   41.2761  -11.5453 H       1  UNL1        0.0662
     44 H          18.6610   41.1622  -10.0426 H       1  UNL1        0.1494
     45 H          15.5058   41.1667   -7.9523 H       1  UNL1        0.2100
     46 H          13.9040   41.8625   -9.7772 H       1  UNL1        0.0583
     47 H          15.1611   42.5017  -10.8138 H       1  UNL1        0.0583
     48 H          13.3981   40.3576  -11.2417 H       1  UNL1        0.2095
     49 H          16.7377   38.1299  -10.3195 H       1  UNL1        0.0332
     50 H          18.1432   38.5619  -11.2401 H       1  UNL1        0.0332
     51 H          20.2161   39.3042  -10.2114 H       1  UNL1        0.0657
     52 H          20.5777   38.8330   -5.9454 H       1  UNL1        0.0654
     53 H          18.1424   38.3349   -5.7942 H       1  UNL1        0.0619
     54 H          16.7495   38.3490   -7.8310 H       1  UNL1        0.0620
     55 H          22.5850   39.3687  -10.0176 H       1  UNL1        0.0696
     56 H          21.8431   40.8692   -9.4419 H       1  UNL1        0.0696
     57 H          23.7442   41.2885   -7.9197 H       1  UNL1        0.0299
     58 H          24.4601   39.7670   -8.3688 H       1  UNL1        0.0299
     59 H          25.6526   41.5321   -9.5028 H       1  UNL1        0.0299
     60 H          24.8228   40.5953  -10.7088 H       1  UNL1        0.0299
     61 H          23.7178   43.2115   -9.5660 H       1  UNL1        0.0696
     62 H          24.7325   43.1506  -11.0043 H       1  UNL1        0.0696
@<TRIPOS>BOND
     1     1     2    1
     2     1    35    1
     3     1    36    1
     4     1    37    1
     5     2     3    1
     6     2     4   am
     7     3    38    1
     8     3    39    1
     9     3    40    1
    10     4     5    2
    11     4     6    1
    12     6     7   ar
    13     6     8   ar
    14     7    11   ar
    15     7    41    1
    16     8     9   ar
    17     8    42    1
    18     9    10   ar
    19     9    12    1
    20    10    11   ar
    21    10    43    1
    22    11    32    1
    23    12    13    2
    24    12    14   am
    25    14    15    1
    26    14    44    1
    27    15    33    1
    28    15    16    1
    29    15    20    1
    30    16    34    1
    31    16    17    1
    32    16    18    1
    33    17    45    1
    34    18    19    1
    35    18    46    1
    36    18    47    1
    37    19    48    1
    38    20    21    1
    39    20    49    1
    40    20    50    1
    41    21    26   ar
    42    21    22   ar
    43    22    23   ar
    44    22    51    1
    45    23    24   ar
    46    23    27    1
    47    24    25   ar
    48    24    52    1
    49    25    26   ar
    50    25    53    1
    51    26    54    1
    52    27    28    1
    53    28    29    1
    54    28    55    1
    55    28    56    1
    56    29    30    1
    57    29    57    1
    58    29    58    1
    59    30    31    1
    60    30    59    1
    61    30    60    1
    62    31    32    1
    63    31    61    1
    64    31    62    1
