@<TRIPOS>MOLECULE
BACE_4.smi:1
 89 91 0 0 0
SMALL
GASTEIGER
****
Structure written by MMmdl.
@<TRIPOS>ATOM
      1 C          21.3504   44.8350   -5.1765 C.3     1  UNL1       -0.0624
      2 C          22.5980   44.0962   -4.7008 C.3     1  UNL1       -0.0421
      3 C          23.7565   44.3151   -5.6986 C.3     1  UNL1       -0.0504
      4 C          23.7385   45.7040   -6.3650 C.3     1  UNL1       -0.0528
      5 C          23.9221   46.8862   -5.3914 C.3     1  UNL1       -0.0530
      6 C          23.8104   48.2749   -6.0600 C.3     1  UNL1       -0.0510
      7 C          22.4622   48.5762   -6.7542 C.3     1  UNL1       -0.0294
      8 C          21.2407   48.5243   -5.8130 C.3     1  UNL1        0.0483
      9 O          19.8921   48.8231   -6.5054 O.3     1  UNL1       -0.3706
     10 C          19.4110   47.7605   -7.5326 C.3     1  UNL1        0.1238
     11 C          19.1072   46.3625   -6.9724 C.2     1  UNL1        0.2417
     12 O          18.8509   46.2090   -5.7896 O.2     1  UNL1       -0.2731
     13 N          19.1190   45.3601   -7.8642 N.am    1  UNL1       -0.2914
     14 C          18.9401   43.9445   -7.4720 C.3     1  UNL1        0.0991
     15 C          20.3041   43.2591   -7.2387 C.2     1  UNL1        0.2336
     16 O          21.2140   43.3759   -8.0429 O.2     1  UNL1       -0.2738
     17 N          20.4073   42.5386   -6.1084 N.am    1  UNL1       -0.3084
     18 C          21.6166   41.8449   -5.6483 C.3     1  UNL1        0.0505
     19 C          22.2409   42.6130   -4.4456 C.3     1  UNL1       -0.0295
     20 C          21.3094   40.3391   -5.3741 C.3     1  UNL1        0.0859
     21 C          20.8557   39.5377   -6.6141 C.3     1  UNL1        0.0245
     22 N          19.4298   39.7250   -6.8932 N.3     1  UNL1       -0.3042
     23 C          19.0009   39.3910   -8.2601 C.3     1  UNL1        0.0447
     24 C          19.7130   38.2578   -8.9593 C.3     1  UNL1       -0.0285
     25 C          19.9630   39.6845   -9.3863 C.3     1  UNL1       -0.0285
     26 C          17.5150   39.5681   -8.5382 C.ar    1  UNL1       -0.0271
     27 C          16.5988   38.5710   -8.1440 C.ar    1  UNL1       -0.0568
     28 C          15.2259   38.7261   -8.4013 C.ar    1  UNL1       -0.0612
     29 C          14.7566   39.8785   -9.0576 C.ar    1  UNL1       -0.0580
     30 C          15.6481   40.8985   -9.4723 C.ar    1  UNL1       -0.0417
     31 C          17.0309   40.7196   -9.2014 C.ar    1  UNL1       -0.0531
     32 C          15.0951   42.1504  -10.1946 C.3     1  UNL1       -0.0127
     33 C          14.5051   43.1350   -9.1583 C.3     1  UNL1       -0.0560
     34 C          16.2328   42.8507  -10.9736 C.3     1  UNL1       -0.0560
     35 C          13.9728   41.8266  -11.2122 C.3     1  UNL1       -0.0560
     36 O          22.4599   39.6904   -4.8656 O.3     1  UNL1       -0.3887
     37 C          18.2462   43.2036   -8.6114 C.3     1  UNL1       -0.0379
     38 C          19.4367   45.6869   -9.2396 C.3     1  UNL1        0.0040
     39 H          22.8592   44.5672   -3.7531 H       1  UNL1        0.0299
     40 H          18.2884   43.8316   -6.6056 H       1  UNL1        0.0594
     41 H          22.3340   41.8845   -6.4675 H       1  UNL1        0.0524
     42 H          20.5318   40.2461   -4.6147 H       1  UNL1        0.0624
     43 H          21.5506   45.8927   -5.3464 H       1  UNL1        0.0232
     44 H          20.5452   44.7849   -4.4443 H       1  UNL1        0.0232
     45 H          20.9711   44.4204   -6.1112 H       1  UNL1        0.0232
     46 H          24.7124   44.1401   -5.2049 H       1  UNL1        0.0268
     47 H          23.7000   43.5753   -6.4971 H       1  UNL1        0.0268
     48 H          22.7950   45.8036   -6.9016 H       1  UNL1        0.0265
     49 H          24.5167   45.7452   -7.1271 H       1  UNL1        0.0265
     50 H          23.1992   46.8198   -4.5783 H       1  UNL1        0.0265
     51 H          24.8983   46.8020   -4.9138 H       1  UNL1        0.0265
     52 H          24.6128   48.3812   -6.7900 H       1  UNL1        0.0266
     53 H          24.0003   49.0417   -5.3090 H       1  UNL1        0.0266
     54 H          22.5180   49.5669   -7.2053 H       1  UNL1        0.0287
     55 H          22.3234   47.8903   -7.5899 H       1  UNL1        0.0287
     56 H          21.3888   49.2466   -5.0101 H       1  UNL1        0.0560
     57 H          21.1831   47.5524   -5.3229 H       1  UNL1        0.0560
     58 H          20.1382   47.6785   -8.3404 H       1  UNL1        0.0657
     59 H          18.4916   48.1138   -7.9994 H       1  UNL1        0.0657
     60 H          19.5918   42.5040   -5.5135 H       1  UNL1        0.1491
     61 H          21.5458   42.5617   -3.6076 H       1  UNL1        0.0286
     62 H          23.1309   42.0813   -4.1090 H       1  UNL1        0.0286
     63 H          21.0482   38.4787   -6.4382 H       1  UNL1        0.0450
     64 H          21.4548   39.8121   -7.4818 H       1  UNL1        0.0450
     65 H          19.1359   40.6661   -6.6522 H       1  UNL1        0.1229
     66 H          20.5070   37.7477   -8.4139 H       1  UNL1        0.0287
     67 H          19.1250   37.6270   -9.6259 H       1  UNL1        0.0287
     68 H          19.5421   40.0075  -10.3385 H       1  UNL1        0.0287
     69 H          20.9241   40.1282   -9.1265 H       1  UNL1        0.0287
     70 H          16.9464   37.6806   -7.6404 H       1  UNL1        0.0621
     71 H          14.5300   37.9589   -8.0949 H       1  UNL1        0.0618
     72 H          13.6957   39.9642   -9.2390 H       1  UNL1        0.0620
     73 H          17.7571   41.4598   -9.4978 H       1  UNL1        0.0624
     74 H          13.7055   42.6701   -8.5798 H       1  UNL1        0.0238
     75 H          14.0833   44.0179   -9.6404 H       1  UNL1        0.0238
     76 H          15.2523   43.4936   -8.4502 H       1  UNL1        0.0238
     77 H          16.6823   42.1803  -11.7074 H       1  UNL1        0.0238
     78 H          17.0323   43.2009  -10.3207 H       1  UNL1        0.0238
     79 H          15.8677   43.7243  -11.5155 H       1  UNL1        0.0238
     80 H          14.3191   41.1625  -12.0055 H       1  UNL1        0.0238
     81 H          13.6079   42.7304  -11.7022 H       1  UNL1        0.0238
     82 H          13.1086   41.3631  -10.7343 H       1  UNL1        0.0238
     83 H          23.1485   39.7523   -5.5098 H       1  UNL1        0.2099
     84 H          18.0663   42.1593   -8.3526 H       1  UNL1        0.0252
     85 H          18.8354   43.2175   -9.5289 H       1  UNL1        0.0252
     86 H          17.2766   43.6482   -8.8384 H       1  UNL1        0.0252
     87 H          19.2670   44.8637   -9.9310 H       1  UNL1        0.0429
     88 H          20.4809   45.9845   -9.3424 H       1  UNL1        0.0429
     89 H          18.8028   46.4942   -9.6086 H       1  UNL1        0.0429
@<TRIPOS>BOND
     1     1     2    1
     2     1    43    1
     3     1    44    1
     4     1    45    1
     5     2    39    1
     6     2    19    1
     7     2     3    1
     8     3     4    1
     9     3    46    1
    10     3    47    1
    11     4     5    1
    12     4    48    1
    13     4    49    1
    14     5     6    1
    15     5    50    1
    16     5    51    1
    17     6     7    1
    18     6    52    1
    19     6    53    1
    20     7     8    1
    21     7    54    1
    22     7    55    1
    23     8     9    1
    24     8    56    1
    25     8    57    1
    26     9    10    1
    27    10    11    1
    28    10    58    1
    29    10    59    1
    30    11    12    2
    31    11    13   am
    32    13    14    1
    33    13    38    1
    34    14    40    1
    35    14    15    1
    36    14    37    1
    37    15    16    2
    38    15    17   am
    39    17    18    1
    40    17    60    1
    41    18    41    1
    42    18    19    1
    43    18    20    1
    44    19    61    1
    45    19    62    1
    46    20    42    1
    47    20    21    1
    48    20    36    1
    49    21    22    1
    50    21    63    1
    51    21    64    1
    52    22    23    1
    53    22    65    1
    54    23    25    1
    55    23    24    1
    56    23    26    1
    57    24    25    1
    58    24    66    1
    59    24    67    1
    60    25    68    1
    61    25    69    1
    62    26    31   ar
    63    26    27   ar
    64    27    28   ar
    65    27    70    1
    66    28    29   ar
    67    28    71    1
    68    29    30   ar
    69    29    72    1
    70    30    31   ar
    71    30    32    1
    72    31    73    1
    73    32    33    1
    74    32    34    1
    75    32    35    1
    76    33    74    1
    77    33    75    1
    78    33    76    1
    79    34    77    1
    80    34    78    1
    81    34    79    1
    82    35    80    1
    83    35    81    1
    84    35    82    1
    85    36    83    1
    86    37    84    1
    87    37    85    1
    88    37    86    1
    89    38    87    1
    90    38    88    1
    91    38    89    1
