@<TRIPOS>MOLECULE
BACE_9.smi:1
 87 89 0 0 0
SMALL
GASTEIGER
****
Structure written by MMmdl.
@<TRIPOS>ATOM
      1 C          21.0688   46.1457   -7.3396 C.3     1  UNL1       -0.0624
      2 C          20.7694   44.7996   -8.0164 C.3     1  UNL1       -0.0421
      3 C          22.0933   44.1274   -8.4524 C.3     1  UNL1       -0.0504
      4 C          21.9066   42.7144   -9.0197 C.3     1  UNL1       -0.0528
      5 C          23.2170   41.9670   -9.3042 C.3     1  UNL1       -0.0530
      6 C          22.9452   40.5420   -9.8056 C.3     1  UNL1       -0.0530
      7 C          22.5902   39.5622   -8.6678 C.3     1  UNL1       -0.0516
      8 C          21.9706   38.2333   -9.1399 C.3     1  UNL1       -0.0375
      9 C          20.4493   38.2861   -9.3156 C.3     1  UNL1        0.0091
     10 N          20.0823   38.9484  -10.5503 N.pl3   1  UNL1       -0.3438
     11 C          18.8481   39.5984  -10.5286 C.ar    1  UNL1        0.0282
     12 C          17.6816   38.9665  -10.0409 C.ar    1  UNL1       -0.0355
     13 C          16.4492   39.6479  -10.0729 C.ar    1  UNL1       -0.0195
     14 C          16.3894   40.9609  -10.5793 C.ar    1  UNL1       -0.0442
     15 C          17.5630   41.6195  -10.9942 C.ar    1  UNL1        0.0388
     16 C          18.7849   40.9224  -10.9977 C.ar    1  UNL1       -0.0287
     17 C          17.5066   43.0456  -11.4388 C.2     1  UNL1        0.2444
     18 O          16.8610   43.3503  -12.4400 O.2     1  UNL1       -0.2702
     19 N          18.1879   43.9619  -10.7280 N.am    1  UNL1       -0.3060
     20 C          18.7302   43.8530   -9.3628 C.3     1  UNL1        0.0508
     21 C          19.7713   44.9873   -9.1891 C.3     1  UNL1       -0.0295
     22 C          17.6160   43.9188   -8.2659 C.3     1  UNL1        0.0859
     23 C          16.4637   44.9113   -8.5814 C.3     1  UNL1        0.0240
     24 N          15.1347   44.5794   -8.0400 N.3     1  UNL1       -0.3095
     25 C          14.3725   43.5141   -8.7330 C.3     1  UNL1        0.0213
     26 C          13.8630   43.7694  -10.1560 C.ar    1  UNL1       -0.0333
     27 C          13.0733   42.7792  -10.7752 C.ar    1  UNL1       -0.0573
     28 C          12.5760   42.9736  -12.0801 C.ar    1  UNL1       -0.0612
     29 C          12.8602   44.1616  -12.7827 C.ar    1  UNL1       -0.0583
     30 C          13.6339   45.1763  -12.1776 C.ar    1  UNL1       -0.0445
     31 C          14.1363   44.9498  -10.8799 C.ar    1  UNL1       -0.0539
     32 C          13.8991   46.5366  -12.8357 C.3     1  UNL1       -0.0215
     33 C          13.1296   46.8063  -14.1403 C.3     1  UNL1       -0.0586
     34 C          15.4018   46.8349  -12.9964 C.3     1  UNL1       -0.0586
     35 O          17.1962   42.6024   -7.9753 O.3     1  UNL1       -0.3887
     36 C          15.1774   38.9764   -9.5912 C.3     1  UNL1        0.0724
     37 O          14.5426   39.7009   -8.5503 O.3     1  UNL1       -0.3784
     38 C          15.1597   39.5372   -7.2784 C.3     1  UNL1        0.0369
     39 H          20.3133   44.1645   -7.2564 H       1  UNL1        0.0299
     40 H          19.2508   42.9051   -9.2608 H       1  UNL1        0.0524
     41 H          18.0613   44.2456   -7.3272 H       1  UNL1        0.0624
     42 H          21.5319   46.8436   -8.0360 H       1  UNL1        0.0232
     43 H          21.7452   46.0187   -6.4935 H       1  UNL1        0.0232
     44 H          20.1575   46.6081   -6.9612 H       1  UNL1        0.0232
     45 H          22.6059   44.7491   -9.1864 H       1  UNL1        0.0268
     46 H          22.7581   44.0675   -7.5888 H       1  UNL1        0.0268
     47 H          21.2985   42.1369   -8.3243 H       1  UNL1        0.0265
     48 H          21.3491   42.7701   -9.9530 H       1  UNL1        0.0265
     49 H          23.7785   42.5119  -10.0650 H       1  UNL1        0.0265
     50 H          23.8501   41.9377   -8.4164 H       1  UNL1        0.0265
     51 H          22.1580   40.5783  -10.5554 H       1  UNL1        0.0265
     52 H          23.8226   40.1694  -10.3341 H       1  UNL1        0.0265
     53 H          23.5065   39.3499   -8.1124 H       1  UNL1        0.0266
     54 H          21.9188   40.0253   -7.9452 H       1  UNL1        0.0266
     55 H          22.4600   37.8680  -10.0402 H       1  UNL1        0.0280
     56 H          22.1618   37.4830   -8.3793 H       1  UNL1        0.0280
     57 H          20.0414   37.2805   -9.3414 H       1  UNL1        0.0461
     58 H          19.9918   38.7825   -8.4578 H       1  UNL1        0.0461
     59 H          20.8338   39.4667  -10.9809 H       1  UNL1        0.1461
     60 H          17.7232   37.9524   -9.6720 H       1  UNL1        0.0639
     61 H          15.4429   41.4740  -10.6031 H       1  UNL1        0.0628
     62 H          19.6826   41.4127  -11.3483 H       1  UNL1        0.0643
     63 H          18.1819   44.8923  -11.1163 H       1  UNL1        0.1494
     64 H          19.2259   45.9240   -9.0634 H       1  UNL1        0.0286
     65 H          20.3411   45.1190  -10.1109 H       1  UNL1        0.0286
     66 H          16.7623   45.8848   -8.1917 H       1  UNL1        0.0450
     67 H          16.3955   45.0755   -9.6476 H       1  UNL1        0.0450
     68 H          15.2599   44.2690   -7.0717 H       1  UNL1        0.1223
     69 H          14.9220   42.5758   -8.7398 H       1  UNL1        0.0473
     70 H          13.4827   43.3029   -8.1385 H       1  UNL1        0.0473
     71 H          12.8492   41.8635  -10.2454 H       1  UNL1        0.0621
     72 H          11.9715   42.2092  -12.5461 H       1  UNL1        0.0618
     73 H          12.4627   44.2795  -13.7806 H       1  UNL1        0.0620
     74 H          14.6951   45.7494  -10.4254 H       1  UNL1        0.0623
     75 H          13.5159   47.2663  -12.1255 H       1  UNL1        0.0343
     76 H          12.0603   46.6876  -13.9945 H       1  UNL1        0.0235
     77 H          13.4175   46.1497  -14.9573 H       1  UNL1        0.0235
     78 H          13.2911   47.8286  -14.4814 H       1  UNL1        0.0235
     79 H          15.9212   46.8196  -12.0391 H       1  UNL1        0.0235
     80 H          15.5593   47.8227  -13.4290 H       1  UNL1        0.0235
     81 H          15.8979   46.1143  -13.6399 H       1  UNL1        0.0235
     82 H          16.7228   42.5910   -7.1544 H       1  UNL1        0.2099
     83 H          14.4890   38.9494  -10.4378 H       1  UNL1        0.0610
     84 H          15.3568   37.9407   -9.2981 H       1  UNL1        0.0610
     85 H          14.6287   40.1277   -6.5312 H       1  UNL1        0.0524
     86 H          16.1989   39.8715   -7.2912 H       1  UNL1        0.0524
     87 H          15.1313   38.4938   -6.9578 H       1  UNL1        0.0524
@<TRIPOS>BOND
     1     1     2    1
     2     1    42    1
     3     1    43    1
     4     1    44    1
     5     2    39    1
     6     2    21    1
     7     2     3    1
     8     3     4    1
     9     3    45    1
    10     3    46    1
    11     4     5    1
    12     4    47    1
    13     4    48    1
    14     5     6    1
    15     5    49    1
    16     5    50    1
    17     6     7    1
    18     6    51    1
    19     6    52    1
    20     7     8    1
    21     7    53    1
    22     7    54    1
    23     8     9    1
    24     8    55    1
    25     8    56    1
    26     9    10    1
    27     9    57    1
    28     9    58    1
    29    10    11    1
    30    10    59    1
    31    11    16   ar
    32    11    12   ar
    33    12    13   ar
    34    12    60    1
    35    13    14   ar
    36    13    36    1
    37    14    15   ar
    38    14    61    1
    39    15    16   ar
    40    15    17    1
    41    16    62    1
    42    17    18    2
    43    17    19   am
    44    19    20    1
    45    19    63    1
    46    20    40    1
    47    20    21    1
    48    20    22    1
    49    21    64    1
    50    21    65    1
    51    22    41    1
    52    22    23    1
    53    22    35    1
    54    23    24    1
    55    23    66    1
    56    23    67    1
    57    24    25    1
    58    24    68    1
    59    25    26    1
    60    25    69    1
    61    25    70    1
    62    26    31   ar
    63    26    27   ar
    64    27    28   ar
    65    27    71    1
    66    28    29   ar
    67    28    72    1
    68    29    30   ar
    69    29    73    1
    70    30    31   ar
    71    30    32    1
    72    31    74    1
    73    32    33    1
    74    32    34    1
    75    32    75    1
    76    33    76    1
    77    33    77    1
    78    33    78    1
    79    34    79    1
    80    34    80    1
    81    34    81    1
    82    35    82    1
    83    36    37    1
    84    36    83    1
    85    36    84    1
    86    37    38    1
    87    38    85    1
    88    38    86    1
    89    38    87    1
