@<TRIPOS>MOLECULE
BACE_6.smi:1
 82 84 0 0 0
SMALL
GASTEIGER
****
Structure written by MMmdl.
@<TRIPOS>ATOM
      1 C          23.8426   49.2477   -7.5305 C.3     1  UNL1       -0.0493
      2 C          22.3355   49.5379   -7.5967 C.3     1  UNL1        0.0121
      3 N          21.5523   48.2897   -7.6041 N.am    1  UNL1       -0.2978
      4 C          21.1834   47.8214   -8.9577 C.3     1  UNL1        0.0150
      5 C          21.7764   46.4497   -9.3573 C.3     1  UNL1       -0.0371
      6 C          21.6258   46.1394  -10.8606 C.3     1  UNL1       -0.0516
      7 C          20.1780   45.9598  -11.3707 C.3     1  UNL1       -0.0528
      8 C          19.5838   44.5539  -11.1318 C.3     1  UNL1       -0.0504
      9 C          18.1228   44.3992  -11.6320 C.3     1  UNL1       -0.0421
     10 C          17.4447   43.0979  -11.1290 C.3     1  UNL1       -0.0295
     11 C          16.5971   43.2602   -9.8461 C.3     1  UNL1        0.0508
     12 N          17.4865   43.6111   -8.7406 N.am    1  UNL1       -0.3060
     13 C          17.4678   44.7484   -8.0291 C.2     1  UNL1        0.2444
     14 O          16.6142   45.6306   -8.1437 O.2     1  UNL1       -0.2702
     15 C          18.6778   44.9412   -7.1658 C.ar    1  UNL1        0.0374
     16 C          19.2604   43.8580   -6.4702 C.ar    1  UNL1       -0.0496
     17 C          20.4331   44.0413   -5.7191 C.ar    1  UNL1       -0.0603
     18 C          21.0582   45.3000   -5.7005 C.ar    1  UNL1       -0.0496
     19 C          20.5024   46.3884   -6.4072 C.ar    1  UNL1        0.0376
     20 C          19.2704   46.2174   -7.0780 C.ar    1  UNL1       -0.0375
     21 C          21.2343   47.6988   -6.4137 C.2     1  UNL1        0.2466
     22 O          21.5867   48.1647   -5.3278 O.2     1  UNL1       -0.2700
     23 C          15.7883   41.9802   -9.5160 C.3     1  UNL1        0.0859
     24 C          15.0264   42.0576   -8.1705 C.3     1  UNL1        0.0240
     25 N          14.9357   40.7780   -7.4589 N.3     1  UNL1       -0.3095
     26 C          16.2115   40.2462   -6.9870 C.3     1  UNL1        0.0213
     27 C          16.8393   39.2162   -7.9015 C.ar    1  UNL1       -0.0333
     28 C          16.0599   38.1784   -8.4396 C.ar    1  UNL1       -0.0573
     29 C          16.6518   37.2141   -9.2663 C.ar    1  UNL1       -0.0612
     30 C          18.0225   37.2924   -9.5630 C.ar    1  UNL1       -0.0583
     31 C          18.8230   38.3246   -9.0278 C.ar    1  UNL1       -0.0445
     32 C          18.2170   39.2897   -8.1931 C.ar    1  UNL1       -0.0539
     33 C          20.3095   38.3748   -9.3726 C.3     1  UNL1       -0.0215
     34 C          21.1973   38.7918   -8.1851 C.3     1  UNL1       -0.0586
     35 C          20.5634   39.2604  -10.6027 C.3     1  UNL1       -0.0586
     36 O          14.8030   41.7765  -10.5092 O.3     1  UNL1       -0.3887
     37 C          18.0320   44.4442  -13.1647 C.3     1  UNL1       -0.0624
     38 H          17.5467   45.2437  -11.2547 H       1  UNL1        0.0299
     39 H          15.8801   44.0660  -10.0094 H       1  UNL1        0.0524
     40 H          16.4704   41.1347   -9.5506 H       1  UNL1        0.0624
     41 H          24.4195   50.1728   -7.5228 H       1  UNL1        0.0245
     42 H          24.1675   48.6626   -8.3915 H       1  UNL1        0.0245
     43 H          24.1039   48.6898   -6.6302 H       1  UNL1        0.0245
     44 H          22.0457   50.1635   -6.7508 H       1  UNL1        0.0462
     45 H          22.1186   50.1517   -8.4721 H       1  UNL1        0.0462
     46 H          20.1022   47.8312   -9.0692 H       1  UNL1        0.0464
     47 H          21.5254   48.5371   -9.7049 H       1  UNL1        0.0464
     48 H          22.8395   46.4449   -9.1153 H       1  UNL1        0.0280
     49 H          21.3383   45.6328   -8.7853 H       1  UNL1        0.0280
     50 H          22.0937   46.9499  -11.4221 H       1  UNL1        0.0266
     51 H          22.2058   45.2480  -11.1082 H       1  UNL1        0.0266
     52 H          19.5248   46.7175  -10.9390 H       1  UNL1        0.0265
     53 H          20.1853   46.1625  -12.4370 H       1  UNL1        0.0265
     54 H          20.2154   43.8029  -11.6103 H       1  UNL1        0.0268
     55 H          19.6414   44.3423  -10.0660 H       1  UNL1        0.0268
     56 H          16.7811   42.7201  -11.9072 H       1  UNL1        0.0286
     57 H          18.1881   42.3083  -10.9972 H       1  UNL1        0.0286
     58 H          18.2486   42.9732   -8.5599 H       1  UNL1        0.1494
     59 H          18.8050   42.8760   -6.5011 H       1  UNL1        0.0625
     60 H          20.8635   43.2128   -5.1770 H       1  UNL1        0.0618
     61 H          21.9826   45.4192   -5.1534 H       1  UNL1        0.0625
     62 H          18.8042   47.0518   -7.5784 H       1  UNL1        0.0633
     63 H          15.5201   42.7631   -7.5099 H       1  UNL1        0.0450
     64 H          14.0317   42.4776   -8.3235 H       1  UNL1        0.0450
     65 H          14.3538   40.9111   -6.6228 H       1  UNL1        0.1223
     66 H          16.9203   41.0603   -6.8434 H       1  UNL1        0.0473
     67 H          16.0662   39.7666   -6.0194 H       1  UNL1        0.0473
     68 H          15.0071   38.1183   -8.2029 H       1  UNL1        0.0621
     69 H          16.0534   36.4156   -9.6825 H       1  UNL1        0.0618
     70 H          18.4612   36.5470  -10.2053 H       1  UNL1        0.0620
     71 H          18.7992   40.0914   -7.7712 H       1  UNL1        0.0623
     72 H          20.6097   37.3601   -9.6368 H       1  UNL1        0.0343
     73 H          21.0236   38.1500   -7.3182 H       1  UNL1        0.0235
     74 H          21.0170   39.8244   -7.8849 H       1  UNL1        0.0235
     75 H          22.2536   38.7154   -8.4464 H       1  UNL1        0.0235
     76 H          19.9893   38.9065  -11.4610 H       1  UNL1        0.0235
     77 H          21.6184   39.2527  -10.8796 H       1  UNL1        0.0235
     78 H          20.2739   40.2942  -10.4103 H       1  UNL1        0.0235
     79 H          14.2432   41.0756  -10.1999 H       1  UNL1        0.2099
     80 H          18.5350   43.5866  -13.6089 H       1  UNL1        0.0232
     81 H          18.4597   45.3543  -13.5824 H       1  UNL1        0.0232
     82 H          16.9907   44.4087  -13.4841 H       1  UNL1        0.0232
@<TRIPOS>BOND
     1     1     2    1
     2     1    41    1
     3     1    42    1
     4     1    43    1
     5     2     3    1
     6     2    44    1
     7     2    45    1
     8     3    21   am
     9     3     4    1
    10     4     5    1
    11     4    46    1
    12     4    47    1
    13     5     6    1
    14     5    48    1
    15     5    49    1
    16     6     7    1
    17     6    50    1
    18     6    51    1
    19     7     8    1
    20     7    52    1
    21     7    53    1
    22     8     9    1
    23     8    54    1
    24     8    55    1
    25     9    38    1
    26     9    10    1
    27     9    37    1
    28    10    11    1
    29    10    56    1
    30    10    57    1
    31    11    39    1
    32    11    12    1
    33    11    23    1
    34    12    13   am
    35    12    58    1
    36    13    14    2
    37    13    15    1
    38    15    20   ar
    39    15    16   ar
    40    16    17   ar
    41    16    59    1
    42    17    18   ar
    43    17    60    1
    44    18    19   ar
    45    18    61    1
    46    19    20   ar
    47    19    21    1
    48    20    62    1
    49    21    22    2
    50    23    40    1
    51    23    24    1
    52    23    36    1
    53    24    25    1
    54    24    63    1
    55    24    64    1
    56    25    26    1
    57    25    65    1
    58    26    27    1
    59    26    66    1
    60    26    67    1
    61    27    32   ar
    62    27    28   ar
    63    28    29   ar
    64    28    68    1
    65    29    30   ar
    66    29    69    1
    67    30    31   ar
    68    30    70    1
    69    31    32   ar
    70    31    33    1
    71    32    71    1
    72    33    34    1
    73    33    35    1
    74    33    72    1
    75    34    73    1
    76    34    74    1
    77    34    75    1
    78    35    76    1
    79    35    77    1
    80    35    78    1
    81    36    79    1
    82    37    80    1
    83    37    81    1
    84    37    82    1
