@<TRIPOS>MOLECULE
BACE_11.smi:1
 80 82 0 0 0
SMALL
GASTEIGER
****
Structure written by MMmdl.
@<TRIPOS>ATOM
      1 C          28.8367   44.2399  -13.3942 C.3     1  UNL1       -0.0379
      2 C          28.1988   44.1553  -11.9934 C.3     1  UNL1        0.0991
      3 C          26.6554   44.1292  -11.9534 C.2     1  UNL1        0.2336
      4 O          26.0096   44.8311  -12.7346 O.2     1  UNL1       -0.2738
      5 N          26.0697   43.3840  -11.0001 N.am    1  UNL1       -0.3081
      6 C          24.6769   43.4105  -10.5482 C.3     1  UNL1        0.0542
      7 C          24.3894   44.6383   -9.6519 C.3     1  UNL1       -0.0066
      8 C          25.2602   44.6652   -8.4062 C.ar    1  UNL1       -0.0421
      9 C          24.7639   44.1571   -7.1911 C.ar    1  UNL1       -0.0583
     10 C          25.5835   44.1514   -6.0508 C.ar    1  UNL1       -0.0580
     11 C          26.9089   44.6217   -6.1178 C.ar    1  UNL1       -0.0199
     12 C          27.4191   45.1265   -7.3397 C.ar    1  UNL1        0.1208
     13 C          26.5763   45.1630   -8.4661 C.ar    1  UNL1       -0.0167
     14 O          28.7035   45.5828   -7.5281 O.3     1  UNL1       -0.4920
     15 C          29.6250   45.5002   -6.4541 C.3     1  UNL1        0.0896
     16 C          31.0228   45.8677   -6.9744 C.3     1  UNL1       -0.0186
     17 C          31.6906   44.7637   -7.8224 C.3     1  UNL1       -0.0495
     18 C          31.7594   45.0303   -9.3456 C.3     1  UNL1       -0.0447
     19 C          30.4535   44.8782  -10.1614 C.3     1  UNL1        0.0242
     20 C          29.9280   43.4346  -10.3041 C.2     1  UNL1        0.2159
     21 O          30.4647   42.5492   -9.6428 O.2     1  UNL1       -0.2756
     22 N          28.9073   43.1541  -11.1567 N.am    1  UNL1       -0.2932
     23 C          28.5470   41.7443  -11.3672 C.3     1  UNL1        0.0039
     24 C          23.6422   43.1547  -11.6781 C.3     1  UNL1        0.0862
     25 C          22.3840   42.4257  -11.1622 C.3     1  UNL1        0.0240
     26 N          21.6601   41.7022  -12.2212 N.3     1  UNL1       -0.3095
     27 C          21.1970   40.3709  -11.8200 C.3     1  UNL1        0.0213
     28 C          20.1750   40.4027  -10.6993 C.ar    1  UNL1       -0.0333
     29 C          18.7947   40.3835  -10.9800 C.ar    1  UNL1       -0.0573
     30 C          17.8651   40.4851   -9.9267 C.ar    1  UNL1       -0.0612
     31 C          18.3148   40.6318   -8.5965 C.ar    1  UNL1       -0.0583
     32 C          19.6972   40.6464   -8.3070 C.ar    1  UNL1       -0.0445
     33 C          20.6186   40.4981   -9.3631 C.ar    1  UNL1       -0.0539
     34 C          20.1584   40.8488   -6.8647 C.3     1  UNL1       -0.0215
     35 C          21.6072   41.3528   -6.7198 C.3     1  UNL1       -0.0586
     36 C          19.9444   39.5762   -6.0370 C.3     1  UNL1       -0.0586
     37 O          23.2604   44.3932  -12.2377 O.3     1  UNL1       -0.3887
     38 H          28.3680   45.1363  -11.5556 H       1  UNL1        0.0594
     39 H          24.6329   42.5380   -9.8915 H       1  UNL1        0.0527
     40 H          24.1191   42.5510  -12.4471 H       1  UNL1        0.0624
     41 H          28.3031   44.9371  -14.0419 H       1  UNL1        0.0252
     42 H          28.8566   43.2669  -13.8884 H       1  UNL1        0.0252
     43 H          29.8688   44.5851  -13.3320 H       1  UNL1        0.0252
     44 H          26.6960   42.8298  -10.4338 H       1  UNL1        0.1491
     45 H          24.5495   45.5652  -10.2071 H       1  UNL1        0.0332
     46 H          23.3402   44.6452   -9.3517 H       1  UNL1        0.0332
     47 H          23.7589   43.7654   -7.1290 H       1  UNL1        0.0620
     48 H          25.1977   43.7514   -5.1245 H       1  UNL1        0.0619
     49 H          27.5116   44.5835   -5.2231 H       1  UNL1        0.0654
     50 H          26.9632   45.5579   -9.3929 H       1  UNL1        0.0657
     51 H          29.3256   46.1994   -5.6727 H       1  UNL1        0.0696
     52 H          29.6452   44.4999   -6.0197 H       1  UNL1        0.0696
     53 H          30.9956   46.8144   -7.5149 H       1  UNL1        0.0298
     54 H          31.6546   46.0494   -6.1050 H       1  UNL1        0.0298
     55 H          32.7220   44.6764   -7.4758 H       1  UNL1        0.0266
     56 H          31.2504   43.7918   -7.6022 H       1  UNL1        0.0266
     57 H          32.1591   46.0307   -9.5068 H       1  UNL1        0.0270
     58 H          32.5050   44.3573   -9.7726 H       1  UNL1        0.0270
     59 H          29.6771   45.5172   -9.7492 H       1  UNL1        0.0358
     60 H          30.6539   45.2535  -11.1645 H       1  UNL1        0.0358
     61 H          28.0363   41.3494  -10.4896 H       1  UNL1        0.0429
     62 H          29.4281   41.1260  -11.5548 H       1  UNL1        0.0429
     63 H          27.8868   41.6054  -12.2234 H       1  UNL1        0.0429
     64 H          22.7282   41.7057  -10.4232 H       1  UNL1        0.0450
     65 H          21.7169   43.1059  -10.6288 H       1  UNL1        0.0450
     66 H          22.3191   41.5702  -12.9883 H       1  UNL1        0.1223
     67 H          20.7639   39.8580  -12.6788 H       1  UNL1        0.0473
     68 H          22.0547   39.7642  -11.5142 H       1  UNL1        0.0473
     69 H          18.4541   40.2977  -12.0036 H       1  UNL1        0.0621
     70 H          16.8077   40.4651  -10.1385 H       1  UNL1        0.0618
     71 H          17.5934   40.7291   -7.7955 H       1  UNL1        0.0620
     72 H          21.6789   40.4947   -9.1728 H       1  UNL1        0.0623
     73 H          19.5273   41.6336   -6.4460 H       1  UNL1        0.0343
     74 H          21.7645   42.2642   -7.2967 H       1  UNL1        0.0235
     75 H          22.3317   40.6064   -7.0484 H       1  UNL1        0.0235
     76 H          21.8315   41.5800   -5.6786 H       1  UNL1        0.0235
     77 H          18.8950   39.2736   -6.0400 H       1  UNL1        0.0235
     78 H          20.2269   39.7486   -4.9972 H       1  UNL1        0.0235
     79 H          20.5370   38.7420   -6.4168 H       1  UNL1        0.0235
     80 H          24.0534   44.8021  -12.5624 H       1  UNL1        0.2099
@<TRIPOS>BOND
     1     1     2    1
     2     1    41    1
     3     1    42    1
     4     1    43    1
     5     2    38    1
     6     2    22    1
     7     2     3    1
     8     3     4    2
     9     3     5   am
    10     5     6    1
    11     5    44    1
    12     6    39    1
    13     6     7    1
    14     6    24    1
    15     7     8    1
    16     7    45    1
    17     7    46    1
    18     8    13   ar
    19     8     9   ar
    20     9    10   ar
    21     9    47    1
    22    10    11   ar
    23    10    48    1
    24    11    12   ar
    25    11    49    1
    26    12    13   ar
    27    12    14    1
    28    13    50    1
    29    14    15    1
    30    15    16    1
    31    15    51    1
    32    15    52    1
    33    16    17    1
    34    16    53    1
    35    16    54    1
    36    17    18    1
    37    17    55    1
    38    17    56    1
    39    18    19    1
    40    18    57    1
    41    18    58    1
    42    19    20    1
    43    19    59    1
    44    19    60    1
    45    20    21    2
    46    20    22   am
    47    22    23    1
    48    23    61    1
    49    23    62    1
    50    23    63    1
    51    24    40    1
    52    24    25    1
    53    24    37    1
    54    25    26    1
    55    25    64    1
    56    25    65    1
    57    26    27    1
    58    26    66    1
    59    27    28    1
    60    27    67    1
    61    27    68    1
    62    28    33   ar
    63    28    29   ar
    64    29    30   ar
    65    29    69    1
    66    30    31   ar
    67    30    70    1
    68    31    32   ar
    69    31    71    1
    70    32    33   ar
    71    32    34    1
    72    33    72    1
    73    34    35    1
    74    34    36    1
    75    34    73    1
    76    35    74    1
    77    35    75    1
    78    35    76    1
    79    36    77    1
    80    36    78    1
    81    36    79    1
    82    37    80    1
