@<TRIPOS>MOLECULE
BACE_11.smi:1
 81 83 0 0 0
SMALL
GASTEIGER
****
Structure written by MMmdl.
@<TRIPOS>ATOM
      1 C          21.2994   42.3886   -4.5207 C.3     1  UNL1       -0.0379
      2 C          21.1769   42.0462   -6.0190 C.3     1  UNL1        0.0991
      3 C          20.4602   40.7123   -6.3197 C.2     1  UNL1        0.2336
      4 O          20.7440   39.7329   -5.6423 O.2     1  UNL1       -0.2738
      5 N          19.5983   40.6496   -7.3513 N.am    1  UNL1       -0.3080
      6 C          19.0184   39.4458   -7.9652 C.3     1  UNL1        0.0580
      7 C          20.1259   38.5856   -8.6371 C.3     1  UNL1       -0.0065
      8 C          20.7632   39.3724   -9.7711 C.ar    1  UNL1       -0.0421
      9 C          20.2151   39.2945  -11.0658 C.ar    1  UNL1       -0.0583
     10 C          20.6737   40.1632  -12.0705 C.ar    1  UNL1       -0.0580
     11 C          21.6639   41.1222  -11.7806 C.ar    1  UNL1       -0.0199
     12 C          22.2493   41.1816  -10.4929 C.ar    1  UNL1        0.1208
     13 C          21.8093   40.2797   -9.5077 C.ar    1  UNL1       -0.0167
     14 O          23.2203   42.0792  -10.1115 O.3     1  UNL1       -0.4920
     15 C          23.6586   43.0524  -11.0457 C.3     1  UNL1        0.0896
     16 C          24.6237   44.0327  -10.3600 C.3     1  UNL1       -0.0186
     17 C          23.9335   45.1259   -9.5147 C.3     1  UNL1       -0.0495
     18 C          24.0191   44.9504   -7.9805 C.3     1  UNL1       -0.0447
     19 C          23.1377   43.8461   -7.3529 C.3     1  UNL1        0.0242
     20 C          21.6150   44.1091   -7.3976 C.2     1  UNL1        0.2159
     21 O          21.2034   45.1212   -7.9672 O.2     1  UNL1       -0.2756
     22 N          20.7601   43.2415   -6.7910 N.am    1  UNL1       -0.2932
     23 C          19.3349   43.5901   -6.7435 C.3     1  UNL1        0.0039
     24 C          17.9795   38.7053   -7.0709 C.3     1  UNL1        0.1132
     25 C          16.6966   39.5654   -6.8262 C.3     1  UNL1       -0.0049
     26 N          15.3808   38.9502   -7.1336 N.4     1  UNL1        0.2321
     27 C          14.9854   38.8113   -8.5597 C.3     1  UNL1       -0.0076
     28 C          15.4438   39.9443   -9.4741 C.ar    1  UNL1       -0.0027
     29 C          16.4662   39.7154  -10.4150 C.ar    1  UNL1       -0.0535
     30 C          16.9183   40.7565  -11.2438 C.ar    1  UNL1       -0.0611
     31 C          16.3321   42.0306  -11.1752 C.ar    1  UNL1       -0.0583
     32 C          15.3024   42.2768  -10.2387 C.ar    1  UNL1       -0.0444
     33 C          14.8599   41.2287   -9.3965 C.ar    1  UNL1       -0.0501
     34 C          14.6644   43.6547  -10.1248 C.3     1  UNL1       -0.0215
     35 C          13.6215   43.8691  -11.2353 C.3     1  UNL1       -0.0586
     36 C          15.7074   44.7861  -10.0985 C.3     1  UNL1       -0.0586
     37 O          17.6603   37.4465   -7.6407 O.3     1  UNL1       -0.3847
     38 H          22.1870   41.7757   -6.3206 H       1  UNL1        0.0594
     39 H          18.4399   39.8440   -8.7926 H       1  UNL1        0.0529
     40 H          18.4400   38.4813   -6.1070 H       1  UNL1        0.0666
     41 H          21.6677   41.5413   -3.9415 H       1  UNL1        0.0252
     42 H          20.3311   42.6713   -4.1017 H       1  UNL1        0.0252
     43 H          21.9895   43.2156   -4.3549 H       1  UNL1        0.0252
     44 H          19.4177   41.5177   -7.8323 H       1  UNL1        0.1491
     45 H          20.8790   38.2727   -7.9142 H       1  UNL1        0.0332
     46 H          19.7161   37.6699   -9.0627 H       1  UNL1        0.0332
     47 H          19.4234   38.5923  -11.2840 H       1  UNL1        0.0620
     48 H          20.2474   40.1091  -13.0610 H       1  UNL1        0.0619
     49 H          21.9873   41.7830  -12.5719 H       1  UNL1        0.0654
     50 H          22.2428   40.3335   -8.5210 H       1  UNL1        0.0657
     51 H          24.1834   42.5512  -11.8598 H       1  UNL1        0.0696
     52 H          22.8209   43.5994  -11.4789 H       1  UNL1        0.0696
     53 H          25.3720   43.4885   -9.7787 H       1  UNL1        0.0298
     54 H          25.1789   44.5321  -11.1557 H       1  UNL1        0.0298
     55 H          24.4340   46.0701   -9.7369 H       1  UNL1        0.0266
     56 H          22.9029   45.2760   -9.8437 H       1  UNL1        0.0266
     57 H          25.0571   44.7678   -7.7021 H       1  UNL1        0.0270
     58 H          23.7620   45.9027   -7.5145 H       1  UNL1        0.0270
     59 H          23.3653   42.8895   -7.8178 H       1  UNL1        0.0358
     60 H          23.4264   43.7606   -6.3038 H       1  UNL1        0.0358
     61 H          18.8723   43.4762   -7.7237 H       1  UNL1        0.0429
     62 H          19.1833   44.6183   -6.4091 H       1  UNL1        0.0429
     63 H          18.8021   42.9499   -6.0413 H       1  UNL1        0.0429
     64 H          16.6187   39.7497   -5.7620 H       1  UNL1        0.0840
     65 H          16.7768   40.5578   -7.2723 H       1  UNL1        0.0840
     66 H          15.3367   38.0428   -6.6691 H       1  UNL1        0.2018
     67 H          15.3690   37.8648   -8.9433 H       1  UNL1        0.0866
     68 H          13.8967   38.7299   -8.6047 H       1  UNL1        0.0866
     69 H          16.9221   38.7394  -10.4868 H       1  UNL1        0.0622
     70 H          17.7067   40.5701  -11.9550 H       1  UNL1        0.0618
     71 H          16.6948   42.8130  -11.8243 H       1  UNL1        0.0620
     72 H          14.0626   41.4041   -8.6913 H       1  UNL1        0.0625
     73 H          14.1376   43.6900   -9.1667 H       1  UNL1        0.0343
     74 H          12.8417   43.1074  -11.1854 H       1  UNL1        0.0235
     75 H          14.0784   43.8239  -12.2246 H       1  UNL1        0.0235
     76 H          13.1332   44.8392  -11.1408 H       1  UNL1        0.0235
     77 H          16.4481   44.6123   -9.3173 H       1  UNL1        0.0235
     78 H          15.2424   45.7523   -9.9017 H       1  UNL1        0.0235
     79 H          16.2372   44.8786  -11.0476 H       1  UNL1        0.0235
     80 H          17.1115   36.9557   -7.0207 H       1  UNL1        0.2101
     81 H          14.6908   39.5373   -6.6798 H       1  UNL1        0.2018
@<TRIPOS>BOND
     1     1     2    1
     2     1    41    1
     3     1    42    1
     4     1    43    1
     5     2    38    1
     6     2    22    1
     7     2     3    1
     8     3     4    2
     9     3     5   am
    10     5     6    1
    11     5    44    1
    12     6    39    1
    13     6     7    1
    14     6    24    1
    15     7     8    1
    16     7    45    1
    17     7    46    1
    18     8    13   ar
    19     8     9   ar
    20     9    10   ar
    21     9    47    1
    22    10    11   ar
    23    10    48    1
    24    11    12   ar
    25    11    49    1
    26    12    13   ar
    27    12    14    1
    28    13    50    1
    29    14    15    1
    30    15    16    1
    31    15    51    1
    32    15    52    1
    33    16    17    1
    34    16    53    1
    35    16    54    1
    36    17    18    1
    37    17    55    1
    38    17    56    1
    39    18    19    1
    40    18    57    1
    41    18    58    1
    42    19    20    1
    43    19    59    1
    44    19    60    1
    45    20    21    2
    46    20    22   am
    47    22    23    1
    48    23    61    1
    49    23    62    1
    50    23    63    1
    51    24    40    1
    52    24    25    1
    53    24    37    1
    54    25    26    1
    55    25    64    1
    56    25    65    1
    57    26    27    1
    58    26    66    1
    59    26    81    1
    60    27    28    1
    61    27    67    1
    62    27    68    1
    63    28    33   ar
    64    28    29   ar
    65    29    30   ar
    66    29    69    1
    67    30    31   ar
    68    30    70    1
    69    31    32   ar
    70    31    71    1
    71    32    33   ar
    72    32    34    1
    73    33    72    1
    74    34    35    1
    75    34    36    1
    76    34    73    1
    77    35    74    1
    78    35    75    1
    79    35    76    1
    80    36    77    1
    81    36    78    1
    82    36    79    1
    83    37    80    1
