@<TRIPOS>MOLECULE
BACE_9.smi:1
 88 90 0 0 0
SMALL
GASTEIGER
****
Structure written by MMmdl.
@<TRIPOS>ATOM
      1 C          20.3493   41.6644   -3.5938 C.3     1  UNL1       -0.0624
      2 C          21.3510   42.2566   -4.5999 C.3     1  UNL1       -0.0421
      3 C          21.6402   43.7370   -4.2670 C.3     1  UNL1       -0.0504
      4 C          22.7885   44.3436   -5.0891 C.3     1  UNL1       -0.0528
      5 C          23.1986   45.7437   -4.6011 C.3     1  UNL1       -0.0530
      6 C          24.2120   46.4349   -5.5280 C.3     1  UNL1       -0.0530
      7 C          25.6354   45.8468   -5.4566 C.3     1  UNL1       -0.0516
      8 C          26.5535   46.3203   -6.6013 C.3     1  UNL1       -0.0375
      9 C          26.5661   45.3813   -7.8188 C.3     1  UNL1        0.0091
     10 N          25.2642   45.2810   -8.4590 N.pl3   1  UNL1       -0.3438
     11 C          24.9539   44.0831   -9.1106 C.ar    1  UNL1        0.0282
     12 C          25.9360   43.3317   -9.7903 C.ar    1  UNL1       -0.0355
     13 C          25.5978   42.1256  -10.4298 C.ar    1  UNL1       -0.0195
     14 C          24.2702   41.6479  -10.3673 C.ar    1  UNL1       -0.0442
     15 C          23.2823   42.3815   -9.6733 C.ar    1  UNL1        0.0388
     16 C          23.6268   43.6133   -9.0736 C.ar    1  UNL1       -0.0287
     17 C          21.8676   41.8803   -9.6208 C.2     1  UNL1        0.2444
     18 O          21.2392   41.6911  -10.6638 O.2     1  UNL1       -0.2702
     19 N          21.3062   41.6499   -8.4214 N.am    1  UNL1       -0.3058
     20 C          21.9232   41.5604   -7.0884 C.3     1  UNL1        0.0545
     21 C          20.8605   42.0353   -6.0563 C.3     1  UNL1       -0.0293
     22 C          22.4630   40.1090   -6.9031 C.3     1  UNL1        0.1130
     23 C          21.4905   38.9607   -7.2801 C.3     1  UNL1       -0.0050
     24 N          21.2561   38.9317   -8.7417 N.4     1  UNL1        0.2321
     25 C          20.1053   38.1389   -9.2174 C.3     1  UNL1       -0.0076
     26 C          18.9209   39.0106   -9.5918 C.ar    1  UNL1       -0.0027
     27 C          18.9660   39.7842  -10.7703 C.ar    1  UNL1       -0.0535
     28 C          17.8597   40.5683  -11.1459 C.ar    1  UNL1       -0.0611
     29 C          16.7102   40.5928  -10.3345 C.ar    1  UNL1       -0.0583
     30 C          16.6578   39.8314   -9.1465 C.ar    1  UNL1       -0.0444
     31 C          17.7663   39.0340   -8.7846 C.ar    1  UNL1       -0.0501
     32 C          15.4194   39.8791   -8.2651 C.3     1  UNL1       -0.0215
     33 C          15.7717   40.3200   -6.8358 C.3     1  UNL1       -0.0586
     34 C          14.6574   38.5452   -8.2706 C.3     1  UNL1       -0.0586
     35 O          23.6794   39.9572   -7.6133 O.3     1  UNL1       -0.3847
     36 C          26.6788   41.3366  -11.1404 C.3     1  UNL1        0.0724
     37 O          27.3881   42.1332  -12.0827 O.3     1  UNL1       -0.3784
     38 C          28.6360   41.5635  -12.4386 C.3     1  UNL1        0.0369
     39 H          22.2805   41.7313   -4.4405 H       1  UNL1        0.0299
     40 H          22.7662   42.2466   -7.0365 H       1  UNL1        0.0526
     41 H          22.6942   39.9685   -5.8465 H       1  UNL1        0.0666
     42 H          19.3798   42.1566   -3.6552 H       1  UNL1        0.0232
     43 H          20.7119   41.7682   -2.5702 H       1  UNL1        0.0232
     44 H          20.1959   40.5982   -3.7695 H       1  UNL1        0.0232
     45 H          20.7380   44.3354   -4.3936 H       1  UNL1        0.0268
     46 H          21.9013   43.8090   -3.2089 H       1  UNL1        0.0268
     47 H          23.6495   43.6782   -5.0521 H       1  UNL1        0.0265
     48 H          22.4844   44.4071   -6.1329 H       1  UNL1        0.0265
     49 H          22.3079   46.3697   -4.5420 H       1  UNL1        0.0265
     50 H          23.5969   45.6915   -3.5868 H       1  UNL1        0.0265
     51 H          23.8265   46.4110   -6.5456 H       1  UNL1        0.0265
     52 H          24.2673   47.4932   -5.2654 H       1  UNL1        0.0265
     53 H          26.0740   46.1425   -4.5035 H       1  UNL1        0.0266
     54 H          25.6139   44.7583   -5.4423 H       1  UNL1        0.0266
     55 H          26.3017   47.3394   -6.9012 H       1  UNL1        0.0280
     56 H          27.5747   46.3703   -6.2206 H       1  UNL1        0.0280
     57 H          27.2863   45.7422   -8.5537 H       1  UNL1        0.0461
     58 H          26.8992   44.3915   -7.5061 H       1  UNL1        0.0461
     59 H          24.5066   45.7591   -7.9932 H       1  UNL1        0.1461
     60 H          26.9591   43.6760   -9.8331 H       1  UNL1        0.0639
     61 H          24.0120   40.7160  -10.8466 H       1  UNL1        0.0628
     62 H          22.8691   44.1942   -8.5651 H       1  UNL1        0.0643
     63 H          20.3487   41.3311   -8.4613 H       1  UNL1        0.1494
     64 H          20.0257   41.3317   -6.0647 H       1  UNL1        0.0286
     65 H          20.4227   42.9681   -6.4116 H       1  UNL1        0.0286
     66 H          21.9240   38.0104   -6.9576 H       1  UNL1        0.0840
     67 H          20.5165   39.0503   -6.8082 H       1  UNL1        0.0840
     68 H          21.1787   39.8763   -9.0805 H       1  UNL1        0.2018
     69 H          20.4256   37.5784  -10.0951 H       1  UNL1        0.0866
     70 H          19.8102   37.3984   -8.4789 H       1  UNL1        0.0866
     71 H          19.8445   39.7733  -11.3956 H       1  UNL1        0.0622
     72 H          17.8874   41.1499  -12.0562 H       1  UNL1        0.0618
     73 H          15.8675   41.2004  -10.6291 H       1  UNL1        0.0620
     74 H          17.7289   38.4427   -7.8815 H       1  UNL1        0.0625
     75 H          14.7476   40.6312   -8.6837 H       1  UNL1        0.0343
     76 H          16.2644   41.2931   -6.8377 H       1  UNL1        0.0235
     77 H          16.4402   39.6084   -6.3479 H       1  UNL1        0.0235
     78 H          14.8751   40.4072   -6.2220 H       1  UNL1        0.0235
     79 H          14.4345   38.2306   -9.2910 H       1  UNL1        0.0235
     80 H          13.7117   38.6369   -7.7353 H       1  UNL1        0.0235
     81 H          15.2291   37.7486   -7.7925 H       1  UNL1        0.0235
     82 H          23.4985   39.6813   -8.5017 H       1  UNL1        0.2101
     83 H          27.3684   40.9544  -10.3844 H       1  UNL1        0.0610
     84 H          26.2370   40.4751  -11.6400 H       1  UNL1        0.0610
     85 H          29.1461   42.2029  -13.1600 H       1  UNL1        0.0524
     86 H          28.5071   40.5804  -12.8941 H       1  UNL1        0.0524
     87 H          29.2780   41.4637  -11.5652 H       1  UNL1        0.0524
     88 H          22.0969   38.5376   -9.1637 H       1  UNL1        0.2018
@<TRIPOS>BOND
     1     1     2    1
     2     1    42    1
     3     1    43    1
     4     1    44    1
     5     2    39    1
     6     2    21    1
     7     2     3    1
     8     3     4    1
     9     3    45    1
    10     3    46    1
    11     4     5    1
    12     4    47    1
    13     4    48    1
    14     5     6    1
    15     5    49    1
    16     5    50    1
    17     6     7    1
    18     6    51    1
    19     6    52    1
    20     7     8    1
    21     7    53    1
    22     7    54    1
    23     8     9    1
    24     8    55    1
    25     8    56    1
    26     9    10    1
    27     9    57    1
    28     9    58    1
    29    10    11    1
    30    10    59    1
    31    11    16   ar
    32    11    12   ar
    33    12    13   ar
    34    12    60    1
    35    13    14   ar
    36    13    36    1
    37    14    15   ar
    38    14    61    1
    39    15    16   ar
    40    15    17    1
    41    16    62    1
    42    17    18    2
    43    17    19   am
    44    19    20    1
    45    19    63    1
    46    20    40    1
    47    20    21    1
    48    20    22    1
    49    21    64    1
    50    21    65    1
    51    22    41    1
    52    22    23    1
    53    22    35    1
    54    23    24    1
    55    23    66    1
    56    23    67    1
    57    24    25    1
    58    24    68    1
    59    24    88    1
    60    25    26    1
    61    25    69    1
    62    25    70    1
    63    26    31   ar
    64    26    27   ar
    65    27    28   ar
    66    27    71    1
    67    28    29   ar
    68    28    72    1
    69    29    30   ar
    70    29    73    1
    71    30    31   ar
    72    30    32    1
    73    31    74    1
    74    32    33    1
    75    32    34    1
    76    32    75    1
    77    33    76    1
    78    33    77    1
    79    33    78    1
    80    34    79    1
    81    34    80    1
    82    34    81    1
    83    35    82    1
    84    36    37    1
    85    36    83    1
    86    36    84    1
    87    37    38    1
    88    38    85    1
    89    38    86    1
    90    38    87    1
