@<TRIPOS>MOLECULE
BACE_10.smi:1
 85 87 0 0 0
SMALL
GASTEIGER
****
Structure written by MMmdl.
@<TRIPOS>ATOM
      1 C          21.3657   38.2947   -8.9974 C.3     1  UNL1       -0.0623
      2 C          20.5206   39.3511   -9.7359 C.3     1  UNL1       -0.0400
      3 C          19.4658   38.7115  -10.6557 C.3     1  UNL1       -0.0268
      4 C          18.4492   37.7993   -9.9606 C.3     1  UNL1        0.0479
      5 O          17.6110   38.5487   -9.1003 O.3     1  UNL1       -0.3797
      6 C          16.3458   37.9288   -8.9050 C.3     1  UNL1        0.0477
      7 C          15.4837   38.7209   -7.9161 C.3     1  UNL1       -0.0281
      8 C          15.4156   40.2292   -8.2168 C.3     1  UNL1       -0.0354
      9 C          16.5411   40.9923   -7.5051 C.3     1  UNL1        0.0092
     10 N          16.4388   42.4369   -7.6401 N.pl3   1  UNL1       -0.3438
     11 C          17.0097   43.1528   -8.6982 C.ar    1  UNL1        0.0282
     12 C          16.9655   44.5592   -8.6288 C.ar    1  UNL1       -0.0355
     13 C          17.5247   45.3509   -9.6521 C.ar    1  UNL1       -0.0195
     14 C          18.1210   44.7283  -10.7660 C.ar    1  UNL1       -0.0442
     15 C          18.1935   43.3213  -10.8432 C.ar    1  UNL1        0.0388
     16 C          17.6221   42.5351   -9.8150 C.ar    1  UNL1       -0.0287
     17 C          18.8449   42.6810  -12.0369 C.2     1  UNL1        0.2444
     18 O          18.4474   42.9489  -13.1706 O.2     1  UNL1       -0.2702
     19 N          19.8804   41.8438  -11.8314 N.am    1  UNL1       -0.3060
     20 C          20.7486   41.7713  -10.6508 C.3     1  UNL1        0.0508
     21 C          21.4019   40.3668  -10.5122 C.3     1  UNL1       -0.0294
     22 C          21.7388   42.9745  -10.6692 C.3     1  UNL1        0.0859
     23 C          22.5989   43.2011   -9.3970 C.3     1  UNL1        0.0240
     24 N          21.9526   44.0013   -8.3401 N.3     1  UNL1       -0.3095
     25 C          20.8847   43.4053   -7.5225 C.3     1  UNL1        0.0213
     26 C          21.3530   42.4306   -6.4516 C.ar    1  UNL1       -0.0333
     27 C          21.9285   41.1910   -6.7938 C.ar    1  UNL1       -0.0573
     28 C          22.3521   40.2890   -5.7982 C.ar    1  UNL1       -0.0612
     29 C          22.1643   40.6095   -4.4435 C.ar    1  UNL1       -0.0583
     30 C          21.5726   41.8407   -4.0850 C.ar    1  UNL1       -0.0445
     31 C          21.1773   42.7487   -5.0913 C.ar    1  UNL1       -0.0539
     32 C          21.4253   42.2024   -2.6224 C.3     1  UNL1       -0.0215
     33 C          19.9958   42.6173   -2.2373 C.3     1  UNL1       -0.0586
     34 C          22.4890   43.2364   -2.2385 C.3     1  UNL1       -0.0586
     35 O          22.6220   42.7943  -11.7625 O.3     1  UNL1       -0.3887
     36 C          17.4741   46.8676   -9.5741 C.3     1  UNL1        0.0724
     37 O          17.2602   47.3448   -8.2532 O.3     1  UNL1       -0.3784
     38 C          17.2601   48.7586   -8.1788 C.3     1  UNL1        0.0369
     39 H          19.9903   39.8902   -8.9496 H       1  UNL1        0.0299
     40 H          20.1187   41.8868   -9.7824 H       1  UNL1        0.0524
     41 H          21.1921   43.8983  -10.8643 H       1  UNL1        0.0624
     42 H          21.8237   37.5651   -9.6557 H       1  UNL1        0.0232
     43 H          20.7519   37.7506   -8.2833 H       1  UNL1        0.0232
     44 H          22.1756   38.7425   -8.4288 H       1  UNL1        0.0232
     45 H          18.8971   39.4871  -11.1708 H       1  UNL1        0.0290
     46 H          19.9699   38.1502  -11.4426 H       1  UNL1        0.0290
     47 H          17.8473   37.3502  -10.7416 H       1  UNL1        0.0560
     48 H          18.9148   36.9783   -9.4165 H       1  UNL1        0.0560
     49 H          15.8222   37.8606   -9.8612 H       1  UNL1        0.0560
     50 H          16.4795   36.9117   -8.5356 H       1  UNL1        0.0560
     51 H          14.4749   38.3081   -7.9370 H       1  UNL1        0.0288
     52 H          15.8420   38.5555   -6.8975 H       1  UNL1        0.0288
     53 H          15.4275   40.4125   -9.2912 H       1  UNL1        0.0281
     54 H          14.4617   40.6115   -7.8503 H       1  UNL1        0.0281
     55 H          16.4494   40.7681   -6.4407 H       1  UNL1        0.0461
     56 H          17.5297   40.6441   -7.8043 H       1  UNL1        0.0461
     57 H          15.9700   42.9262   -6.8790 H       1  UNL1        0.1461
     58 H          16.5019   45.0315   -7.7740 H       1  UNL1        0.0639
     59 H          18.5409   45.3315  -11.5580 H       1  UNL1        0.0628
     60 H          17.6589   41.4578   -9.8925 H       1  UNL1        0.0643
     61 H          20.2536   41.3913  -12.6517 H       1  UNL1        0.1494
     62 H          22.3536   40.4664   -9.9943 H       1  UNL1        0.0286
     63 H          21.6738   39.9673  -11.4901 H       1  UNL1        0.0286
     64 H          23.0155   42.2754   -9.0077 H       1  UNL1        0.0450
     65 H          23.4790   43.7678   -9.7108 H       1  UNL1        0.0450
     66 H          21.6321   44.8847   -8.7207 H       1  UNL1        0.1223
     67 H          20.3848   44.2209   -6.9969 H       1  UNL1        0.0473
     68 H          20.0936   42.9625   -8.1172 H       1  UNL1        0.0473
     69 H          22.0473   40.9156   -7.8235 H       1  UNL1        0.0621
     70 H          22.8113   39.3527   -6.0756 H       1  UNL1        0.0618
     71 H          22.4881   39.9113   -3.6830 H       1  UNL1        0.0620
     72 H          20.7405   43.6993   -4.8185 H       1  UNL1        0.0623
     73 H          21.6432   41.2967   -2.0665 H       1  UNL1        0.0343
     74 H          19.2884   41.8125   -2.4407 H       1  UNL1        0.0235
     75 H          19.6627   43.4980   -2.7858 H       1  UNL1        0.0235
     76 H          19.9285   42.8468   -1.1722 H       1  UNL1        0.0235
     77 H          23.4641   42.8051   -2.4405 H       1  UNL1        0.0235
     78 H          22.4354   43.5123   -1.1863 H       1  UNL1        0.0235
     79 H          22.4539   44.1433   -2.8406 H       1  UNL1        0.0235
     80 H          23.0589   41.9559  -11.6884 H       1  UNL1        0.2099
     81 H          18.4141   47.2683   -9.9591 H       1  UNL1        0.0610
     82 H          16.6773   47.2206  -10.2311 H       1  UNL1        0.0610
     83 H          17.0899   49.0725   -7.1483 H       1  UNL1        0.0524
     84 H          16.4686   49.1864   -8.7957 H       1  UNL1        0.0524
     85 H          18.2175   49.1701   -8.5019 H       1  UNL1        0.0524
@<TRIPOS>BOND
     1     1     2    1
     2     1    42    1
     3     1    43    1
     4     1    44    1
     5     2    39    1
     6     2    21    1
     7     2     3    1
     8     3     4    1
     9     3    45    1
    10     3    46    1
    11     4     5    1
    12     4    47    1
    13     4    48    1
    14     5     6    1
    15     6     7    1
    16     6    49    1
    17     6    50    1
    18     7     8    1
    19     7    51    1
    20     7    52    1
    21     8     9    1
    22     8    53    1
    23     8    54    1
    24     9    10    1
    25     9    55    1
    26     9    56    1
    27    10    11    1
    28    10    57    1
    29    11    16   ar
    30    11    12   ar
    31    12    13   ar
    32    12    58    1
    33    13    14   ar
    34    13    36    1
    35    14    15   ar
    36    14    59    1
    37    15    16   ar
    38    15    17    1
    39    16    60    1
    40    17    18    2
    41    17    19   am
    42    19    20    1
    43    19    61    1
    44    20    40    1
    45    20    21    1
    46    20    22    1
    47    21    62    1
    48    21    63    1
    49    22    41    1
    50    22    23    1
    51    22    35    1
    52    23    24    1
    53    23    64    1
    54    23    65    1
    55    24    25    1
    56    24    66    1
    57    25    26    1
    58    25    67    1
    59    25    68    1
    60    26    31   ar
    61    26    27   ar
    62    27    28   ar
    63    27    69    1
    64    28    29   ar
    65    28    70    1
    66    29    30   ar
    67    29    71    1
    68    30    31   ar
    69    30    32    1
    70    31    72    1
    71    32    33    1
    72    32    34    1
    73    32    73    1
    74    33    74    1
    75    33    75    1
    76    33    76    1
    77    34    77    1
    78    34    78    1
    79    34    79    1
    80    35    80    1
    81    36    37    1
    82    36    81    1
    83    36    82    1
    84    37    38    1
    85    38    83    1
    86    38    84    1
    87    38    85    1
