@<TRIPOS>MOLECULE
BACE_13.smi:1
 77 80 0 0 0
SMALL
GASTEIGER
****
Structure written by MMmdl.
@<TRIPOS>ATOM
      1 C          17.5031   49.0957  -10.6177 C.3     1  UNL1        0.0369
      2 O          18.0860   48.1598   -9.7300 O.3     1  UNL1       -0.3784
      3 C          17.5137   46.8654   -9.8378 C.3     1  UNL1        0.0724
      4 C          18.1979   45.8658   -8.9240 C.ar    1  UNL1       -0.0195
      5 C          18.3051   44.5125   -9.3095 C.ar    1  UNL1       -0.0442
      6 C          18.9376   43.5749   -8.4660 C.ar    1  UNL1        0.0388
      7 C          19.4694   44.0077   -7.2287 C.ar    1  UNL1       -0.0287
      8 C          19.3726   45.3566   -6.8400 C.ar    1  UNL1        0.0282
      9 C          18.7226   46.2814   -7.6825 C.ar    1  UNL1       -0.0355
     10 N          19.9626   45.7634   -5.6399 N.pl3   1  UNL1       -0.3438
     11 C          21.0488   46.7265   -5.7993 C.3     1  UNL1        0.0092
     12 C          22.3310   46.0630   -6.3299 C.3     1  UNL1       -0.0344
     13 C          23.0038   45.1327   -5.3040 C.3     1  UNL1       -0.0172
     14 C          24.0462   44.2062   -5.9521 C.3     1  UNL1        0.0896
     15 O          23.4246   43.2915   -6.8492 O.3     1  UNL1       -0.4920
     16 C          22.7698   42.1835   -6.3525 C.ar    1  UNL1        0.1208
     17 C          22.7069   41.8290   -4.9793 C.ar    1  UNL1       -0.0199
     18 C          22.0432   40.6534   -4.5804 C.ar    1  UNL1       -0.0580
     19 C          21.4074   39.8450   -5.5405 C.ar    1  UNL1       -0.0583
     20 C          21.4259   40.2011   -6.8997 C.ar    1  UNL1       -0.0421
     21 C          22.1346   41.3540   -7.2997 C.ar    1  UNL1       -0.0167
     22 C          20.6357   39.3761   -7.9120 C.3     1  UNL1       -0.0064
     23 C          19.1366   39.7884   -8.0424 C.3     1  UNL1        0.0586
     24 N          19.0505   41.2447   -7.9109 N.am    1  UNL1       -0.3055
     25 C          19.0781   42.1455   -8.9046 C.2     1  UNL1        0.2444
     26 O          19.1213   41.8433  -10.0961 O.2     1  UNL1       -0.2702
     27 C          18.1726   39.1240   -7.0024 C.3     1  UNL1        0.1182
     28 C          16.6284   39.2561   -7.2423 C.3     1  UNL1        0.0296
     29 C          16.1775   40.6312   -7.7869 C.3     1  UNL1        0.0935
     30 O          14.8186   40.6635   -8.1594 O.3     1  UNL1       -0.3634
     31 C          14.4224   39.6894   -9.1257 C.3     1  UNL1        0.1216
     32 C          14.7108   38.3068   -8.5196 C.3     1  UNL1       -0.0041
     33 N          16.1169   38.1497   -8.0897 N.4     1  UNL1        0.2346
     34 C          15.0471   39.8863  -10.5358 C.3     1  UNL1        0.0785
     35 O          14.4606   40.9343  -11.3030 O.3     1  UNL1       -0.3802
     36 C          14.7660   42.2383  -10.8373 C.3     1  UNL1        0.0366
     37 O          18.4599   37.7501   -6.8483 O.3     1  UNL1       -0.3843
     38 H          18.8003   39.4731   -9.0306 H       1  UNL1        0.0529
     39 H          18.4112   39.5606   -6.0401 H       1  UNL1        0.0670
     40 H          16.1330   39.1204   -6.2790 H       1  UNL1        0.0900
     41 H          13.3409   39.7565   -9.2460 H       1  UNL1        0.0673
     42 H          17.9788   50.0683  -10.4919 H       1  UNL1        0.0524
     43 H          16.4394   49.2162  -10.4171 H       1  UNL1        0.0524
     44 H          17.6317   48.7897  -11.6581 H       1  UNL1        0.0524
     45 H          17.5879   46.5154  -10.8680 H       1  UNL1        0.0610
     46 H          16.4543   46.9055   -9.5798 H       1  UNL1        0.0610
     47 H          17.9058   44.1965  -10.2613 H       1  UNL1        0.0628
     48 H          19.9836   43.3127   -6.5799 H       1  UNL1        0.0643
     49 H          18.6389   47.3168   -7.3860 H       1  UNL1        0.0639
     50 H          20.2596   44.9872   -5.0624 H       1  UNL1        0.1461
     51 H          21.2580   47.1994   -4.8399 H       1  UNL1        0.0461
     52 H          20.7463   47.5284   -6.4729 H       1  UNL1        0.0461
     53 H          23.0424   46.8367   -6.6190 H       1  UNL1        0.0281
     54 H          22.1051   45.5169   -7.2472 H       1  UNL1        0.0281
     55 H          22.2539   44.5379   -4.7859 H       1  UNL1        0.0298
     56 H          23.4869   45.7356   -4.5348 H       1  UNL1        0.0298
     57 H          24.6532   43.6853   -5.2131 H       1  UNL1        0.0696
     58 H          24.7514   44.8065   -6.5251 H       1  UNL1        0.0696
     59 H          23.1780   42.4275   -4.2148 H       1  UNL1        0.0654
     60 H          22.0177   40.3745   -3.5364 H       1  UNL1        0.0619
     61 H          20.8865   38.9515   -5.2403 H       1  UNL1        0.0620
     62 H          22.1654   41.6287   -8.3449 H       1  UNL1        0.0657
     63 H          20.7534   38.3130   -7.6951 H       1  UNL1        0.0332
     64 H          21.1145   39.5144   -8.8817 H       1  UNL1        0.0332
     65 H          18.9757   41.5967   -6.9654 H       1  UNL1        0.1494
     66 H          16.7187   40.9077   -8.6816 H       1  UNL1        0.0617
     67 H          16.3561   41.4107   -7.0471 H       1  UNL1        0.0617
     68 H          14.4646   37.5290   -9.2409 H       1  UNL1        0.0840
     69 H          14.0717   38.1534   -7.6482 H       1  UNL1        0.0840
     70 H          16.7176   38.0459   -8.8939 H       1  UNL1        0.2019
     71 H          16.1320   39.9822  -10.5205 H       1  UNL1        0.0587
     72 H          14.8599   38.9815  -11.1110 H       1  UNL1        0.0587
     73 H          14.3704   42.9672  -11.5398 H       1  UNL1        0.0524
     74 H          15.8427   42.3925  -10.7598 H       1  UNL1        0.0524
     75 H          14.3052   42.4373   -9.8698 H       1  UNL1        0.0524
     76 H          17.8662   37.3819   -6.2032 H       1  UNL1        0.2101
     77 H          16.1676   37.3025   -7.5191 H       1  UNL1        0.2019
@<TRIPOS>BOND
     1     1     2    1
     2     1    42    1
     3     1    43    1
     4     1    44    1
     5     2     3    1
     6     3     4    1
     7     3    45    1
     8     3    46    1
     9     4     9   ar
    10     4     5   ar
    11     5     6   ar
    12     5    47    1
    13     6    25    1
    14     6     7   ar
    15     7     8   ar
    16     7    48    1
    17     8     9   ar
    18     8    10    1
    19     9    49    1
    20    10    11    1
    21    10    50    1
    22    11    12    1
    23    11    51    1
    24    11    52    1
    25    12    13    1
    26    12    53    1
    27    12    54    1
    28    13    14    1
    29    13    55    1
    30    13    56    1
    31    14    15    1
    32    14    57    1
    33    14    58    1
    34    15    16    1
    35    16    21   ar
    36    16    17   ar
    37    17    18   ar
    38    17    59    1
    39    18    19   ar
    40    18    60    1
    41    19    20   ar
    42    19    61    1
    43    20    21   ar
    44    20    22    1
    45    21    62    1
    46    22    23    1
    47    22    63    1
    48    22    64    1
    49    23    38    1
    50    23    24    1
    51    23    27    1
    52    24    25   am
    53    24    65    1
    54    25    26    2
    55    27    39    1
    56    27    28    1
    57    27    37    1
    58    28    40    1
    59    28    33    1
    60    28    29    1
    61    29    30    1
    62    29    66    1
    63    29    67    1
    64    30    31    1
    65    31    41    1
    66    31    32    1
    67    31    34    1
    68    32    33    1
    69    32    68    1
    70    32    69    1
    71    33    70    1
    72    33    77    1
    73    34    35    1
    74    34    71    1
    75    34    72    1
    76    35    36    1
    77    36    73    1
    78    36    74    1
    79    36    75    1
    80    37    76    1
