@<TRIPOS>MOLECULE
BACE_19.smi:1
 76 77 0 0 0
SMALL
GASTEIGER
****
Structure written by MMmdl.
@<TRIPOS>ATOM
      1 C          29.9212   43.6480   -9.9684 C.3     1  UNL1       -0.0652
      2 C          28.4491   43.2378   -9.8615 C.3     1  UNL1       -0.0545
      3 C          28.0656   42.1483  -10.8790 C.3     1  UNL1       -0.0376
      4 C          26.6712   41.5395  -10.6492 C.3     1  UNL1        0.0116
      5 N          25.5983   42.4915  -10.9183 N.am    1  UNL1       -0.3151
      6 C          25.0043   43.2788  -10.0058 C.2     1  UNL1        0.2159
      7 O          25.3717   43.3526   -8.8354 O.2     1  UNL1       -0.2755
      8 C          23.7934   44.0925  -10.4888 C.3     1  UNL1        0.0351
      9 C          23.8459   45.5264   -9.9316 C.3     1  UNL1       -0.0540
     10 C          22.4637   43.3937  -10.1156 C.3     1  UNL1       -0.0143
     11 C          22.2791   42.0010  -10.7576 C.3     1  UNL1        0.0742
     12 C          21.0726   41.1883  -10.2302 C.3     1  UNL1        0.0493
     13 C          21.0329   39.7389  -10.7907 C.3     1  UNL1       -0.0295
     14 C          19.9494   38.7748  -10.2438 C.3     1  UNL1       -0.0418
     15 C          19.8949   38.7186   -8.6937 C.3     1  UNL1       -0.0464
     16 C          18.7573   37.8752   -8.0653 C.3     1  UNL1       -0.0274
     17 C          17.3916   38.5233   -8.1874 C.ar    1  UNL1       -0.0470
     18 C          16.3248   37.8664   -8.8388 C.ar    1  UNL1       -0.0586
     19 C          15.1152   38.5473   -9.0718 C.ar    1  UNL1       -0.0612
     20 C          14.9707   39.8851   -8.6566 C.ar    1  UNL1       -0.0570
     21 C          16.0187   40.5289   -7.9743 C.ar    1  UNL1       -0.0263
     22 C          17.2119   39.8367   -7.7139 C.ar    1  UNL1       -0.0538
     23 C          15.8705   41.9643   -7.5092 C.3     1  UNL1        0.0907
     24 S          17.0713   43.1056   -8.3329 S.O2    1  UNL1       -0.0263
     25 O          16.6362   44.4916   -8.0867 O.2     1  UNL1       -0.1740
     26 O          18.4426   42.7173   -7.9755 O.2     1  UNL1       -0.1740
     27 C          16.8238   42.7377  -10.1317 C.3     1  UNL1        0.0769
     28 C          17.9213   43.3027  -11.0701 C.3     1  UNL1        0.0520
     29 C          19.0712   42.3150  -11.3301 C.2     1  UNL1        0.2177
     30 O          19.2612   41.9096  -12.4760 O.2     1  UNL1       -0.2755
     31 N          19.8137   41.9482  -10.2696 N.am    1  UNL1       -0.3097
     32 C          18.4502   44.7045  -10.7108 C.3     1  UNL1       -0.0526
     33 C          18.6052   39.0187  -10.9380 C.3     1  UNL1       -0.0623
     34 O          22.2195   42.1500  -12.1573 O.3     1  UNL1       -0.3899
     35 H          23.8526   44.1712  -11.5761 H       1  UNL1        0.0392
     36 H          23.1607   41.3953  -10.5535 H       1  UNL1        0.0612
     37 H          21.2745   41.0913   -9.1643 H       1  UNL1        0.0524
     38 H          20.2476   37.7780  -10.5627 H       1  UNL1        0.0299
     39 H          17.4346   43.4163  -12.0398 H       1  UNL1        0.0407
     40 H          30.1601   44.4306   -9.2473 H       1  UNL1        0.0230
     41 H          30.1516   44.0279  -10.9640 H       1  UNL1        0.0230
     42 H          30.5791   42.8008   -9.7707 H       1  UNL1        0.0230
     43 H          28.2422   42.8915   -8.8482 H       1  UNL1        0.0263
     44 H          27.8218   44.1191  -10.0113 H       1  UNL1        0.0263
     45 H          28.1303   42.5527  -11.8897 H       1  UNL1        0.0280
     46 H          28.8044   41.3497  -10.8377 H       1  UNL1        0.0280
     47 H          26.5332   40.6899  -11.3191 H       1  UNL1        0.0462
     48 H          26.5900   41.1328   -9.6409 H       1  UNL1        0.0462
     49 H          25.1993   42.4700  -11.8453 H       1  UNL1        0.1487
     50 H          24.7983   46.0065  -10.1560 H       1  UNL1        0.0237
     51 H          23.7139   45.5433   -8.8493 H       1  UNL1        0.0237
     52 H          23.0598   46.1408  -10.3684 H       1  UNL1        0.0237
     53 H          22.4035   43.3010   -9.0320 H       1  UNL1        0.0298
     54 H          21.6309   44.0352  -10.4039 H       1  UNL1        0.0298
     55 H          20.9677   39.7683  -11.8794 H       1  UNL1        0.0286
     56 H          22.0050   39.2857  -10.5872 H       1  UNL1        0.0286
     57 H          20.8446   38.3104   -8.3450 H       1  UNL1        0.0271
     58 H          19.8480   39.7215   -8.2742 H       1  UNL1        0.0271
     59 H          18.7363   36.8823   -8.5100 H       1  UNL1        0.0313
     60 H          18.9545   37.7496   -6.9991 H       1  UNL1        0.0313
     61 H          16.4416   36.8521   -9.1887 H       1  UNL1        0.0620
     62 H          14.3015   38.0547   -9.5826 H       1  UNL1        0.0618
     63 H          14.0551   40.4107   -8.8597 H       1  UNL1        0.0621
     64 H          18.0121   40.3326   -7.1884 H       1  UNL1        0.0623
     65 H          14.8589   42.3323   -7.6665 H       1  UNL1        0.0549
     66 H          16.0597   41.9970   -6.4390 H       1  UNL1        0.0549
     67 H          16.7464   41.6586  -10.2498 H       1  UNL1        0.0507
     68 H          15.8506   43.1431  -10.4008 H       1  UNL1        0.0507
     69 H          19.4868   42.2857   -9.3674 H       1  UNL1        0.1491
     70 H          19.1249   45.0751  -11.4838 H       1  UNL1        0.0237
     71 H          19.0022   44.7100   -9.7711 H       1  UNL1        0.0237
     72 H          17.6307   45.4180  -10.6228 H       1  UNL1        0.0237
     73 H          18.0712   39.8562  -10.5034 H       1  UNL1        0.0232
     74 H          17.9683   38.1454  -10.8480 H       1  UNL1        0.0232
     75 H          18.7293   39.2180  -12.0018 H       1  UNL1        0.0232
     76 H          22.7172   41.4423  -12.5572 H       1  UNL1        0.2099
@<TRIPOS>BOND
     1     1     2    1
     2     1    40    1
     3     1    41    1
     4     1    42    1
     5     2     3    1
     6     2    43    1
     7     2    44    1
     8     3     4    1
     9     3    45    1
    10     3    46    1
    11     4     5    1
    12     4    47    1
    13     4    48    1
    14     5     6   am
    15     5    49    1
    16     6     7    2
    17     6     8    1
    18     8    35    1
    19     8     9    1
    20     8    10    1
    21     9    50    1
    22     9    51    1
    23     9    52    1
    24    10    11    1
    25    10    53    1
    26    10    54    1
    27    11    36    1
    28    11    12    1
    29    11    34    1
    30    12    37    1
    31    12    31    1
    32    12    13    1
    33    13    14    1
    34    13    55    1
    35    13    56    1
    36    14    38    1
    37    14    15    1
    38    14    33    1
    39    15    16    1
    40    15    57    1
    41    15    58    1
    42    16    17    1
    43    16    59    1
    44    16    60    1
    45    17    22   ar
    46    17    18   ar
    47    18    19   ar
    48    18    61    1
    49    19    20   ar
    50    19    62    1
    51    20    21   ar
    52    20    63    1
    53    21    22   ar
    54    21    23    1
    55    22    64    1
    56    23    24    1
    57    23    65    1
    58    23    66    1
    59    24    25    2
    60    24    26    2
    61    24    27    1
    62    27    28    1
    63    27    67    1
    64    27    68    1
    65    28    39    1
    66    28    29    1
    67    28    32    1
    68    29    30    2
    69    29    31   am
    70    31    69    1
    71    32    70    1
    72    32    71    1
    73    32    72    1
    74    33    73    1
    75    33    74    1
    76    33    75    1
    77    34    76    1
