@<TRIPOS>MOLECULE
BACE_2.smi:1
 95 97 0 0 0
SMALL
GASTEIGER
****
Structure written by MMmdl.
@<TRIPOS>ATOM
      1 C          22.0610   50.8380   -3.3114 C.ar    1  UNL1       -0.0193
      2 C          23.0433   50.9499   -2.3095 C.ar    1  UNL1       -0.0549
      3 C          24.0797   50.0008   -2.2174 C.ar    1  UNL1       -0.0443
      4 C          25.1759   50.1804   -1.1731 C.3     1  UNL1       -0.0215
      5 C          25.0131   49.2123    0.0092 C.3     1  UNL1       -0.0586
      6 C          26.5864   50.0923   -1.7818 C.3     1  UNL1       -0.0586
      7 C          24.0804   48.8996   -3.1038 C.ar    1  UNL1       -0.0502
      8 C          23.0831   48.7652   -4.1001 C.ar    1  UNL1        0.0115
      9 C          22.0943   49.7737   -4.2331 C.ar    1  UNL1        0.1260
     10 C          23.0666   47.5412   -5.0110 C.3     1  UNL1        0.0400
     11 C          21.7666   47.5054   -5.8476 C.3     1  UNL1        0.0062
     12 C          21.3286   48.8980   -6.3381 C.3     1  UNL1        0.1068
     13 O          21.1348   49.7631   -5.2233 O.3     1  UNL1       -0.4859
     14 C          22.3439   49.5284   -7.3114 C.3     1  UNL1       -0.0251
     15 C          19.9545   48.7980   -7.0180 C.3     1  UNL1       -0.0251
     16 N          23.2604   46.3063   -4.2236 N.3     1  UNL1       -0.3066
     17 C          22.9705   45.0161   -4.8683 C.3     1  UNL1        0.0242
     18 C          23.8710   44.7097   -6.0900 C.3     1  UNL1        0.0859
     19 O          25.1756   44.4081   -5.6401 O.3     1  UNL1       -0.3887
     20 C          23.3909   43.5494   -7.0181 C.3     1  UNL1        0.0505
     21 N          22.2847   42.7846   -6.4350 N.am    1  UNL1       -0.3084
     22 C          22.0674   41.4736   -6.6285 C.2     1  UNL1        0.2336
     23 O          22.8532   40.7476   -7.2393 O.2     1  UNL1       -0.2738
     24 C          20.7572   40.9085   -6.0517 C.3     1  UNL1        0.0991
     25 C          21.0376   40.2901   -4.6631 C.3     1  UNL1       -0.0379
     26 C          22.9606   44.0720   -8.4135 C.3     1  UNL1       -0.0295
     27 C          24.0474   43.9362   -9.5059 C.3     1  UNL1       -0.0421
     28 C          25.3328   44.7152   -9.1667 C.3     1  UNL1       -0.0624
     29 C          23.5429   44.3598  -10.9010 C.3     1  UNL1       -0.0504
     30 C          22.2531   43.6810  -11.4030 C.3     1  UNL1       -0.0528
     31 C          22.2574   42.1469  -11.3212 C.3     1  UNL1       -0.0530
     32 C          21.1484   41.5090  -12.1715 C.3     1  UNL1       -0.0531
     33 C          21.0634   39.9775  -12.0525 C.3     1  UNL1       -0.0530
     34 C          20.5800   39.4547  -10.6864 C.3     1  UNL1       -0.0526
     35 C          19.0844   39.7114  -10.4013 C.3     1  UNL1       -0.0448
     36 C          18.6523   39.4013   -8.9527 C.3     1  UNL1        0.0242
     37 C          19.2843   40.3819   -7.9446 C.2     1  UNL1        0.2159
     38 O          18.9775   41.5706   -8.0503 O.2     1  UNL1       -0.2756
     39 N          20.1552   39.9366   -6.9989 N.am    1  UNL1       -0.2932
     40 C          20.6536   38.5526   -7.0060 C.3     1  UNL1        0.0039
     41 H          23.9050   47.6604   -5.6966 H       1  UNL1        0.0512
     42 H          23.9852   45.6070   -6.6960 H       1  UNL1        0.0624
     43 H          24.2207   42.8574   -7.1683 H       1  UNL1        0.0524
     44 H          20.0617   41.7307   -5.8803 H       1  UNL1        0.0594
     45 H          24.3185   42.8824   -9.5644 H       1  UNL1        0.0299
     46 H          21.2828   51.5816   -3.3818 H       1  UNL1        0.0654
     47 H          23.0100   51.7875   -1.6302 H       1  UNL1        0.0622
     48 H          25.0799   51.1913   -0.7696 H       1  UNL1        0.0343
     49 H          24.0592   49.3711    0.5093 H       1  UNL1        0.0235
     50 H          25.7965   49.3710    0.7530 H       1  UNL1        0.0235
     51 H          25.0587   48.1698   -0.3075 H       1  UNL1        0.0235
     52 H          26.7060   50.8101   -2.5942 H       1  UNL1        0.0235
     53 H          26.8014   49.0980   -2.1775 H       1  UNL1        0.0235
     54 H          27.3470   50.3166   -1.0337 H       1  UNL1        0.0235
     55 H          24.8544   48.1517   -3.0204 H       1  UNL1        0.0625
     56 H          21.8769   46.8280   -6.6945 H       1  UNL1        0.0322
     57 H          20.9572   47.1007   -5.2392 H       1  UNL1        0.0322
     58 H          22.4918   48.8913   -8.1841 H       1  UNL1        0.0268
     59 H          23.3192   49.6826   -6.8502 H       1  UNL1        0.0268
     60 H          21.9933   50.4969   -7.6700 H       1  UNL1        0.0268
     61 H          19.9931   48.1453   -7.8909 H       1  UNL1        0.0268
     62 H          19.6037   49.7751   -7.3503 H       1  UNL1        0.0268
     63 H          19.2024   48.3972   -6.3370 H       1  UNL1        0.0268
     64 H          24.2369   46.2718   -3.9386 H       1  UNL1        0.1226
     65 H          23.0663   44.2147   -4.1346 H       1  UNL1        0.0450
     66 H          21.9232   44.9970   -5.1690 H       1  UNL1        0.0450
     67 H          25.1426   44.1885   -4.7123 H       1  UNL1        0.2099
     68 H          21.5830   43.3002   -5.9224 H       1  UNL1        0.1491
     69 H          21.3152   41.0663   -3.9505 H       1  UNL1        0.0252
     70 H          21.8433   39.5579   -4.6597 H       1  UNL1        0.0252
     71 H          20.1394   39.8115   -4.2725 H       1  UNL1        0.0252
     72 H          22.0850   43.5086   -8.7361 H       1  UNL1        0.0286
     73 H          22.6075   45.1023   -8.3548 H       1  UNL1        0.0286
     74 H          26.0653   44.6262   -9.9713 H       1  UNL1        0.0232
     75 H          25.8133   44.3330   -8.2662 H       1  UNL1        0.0232
     76 H          25.1317   45.7754   -9.0175 H       1  UNL1        0.0232
     77 H          23.3969   45.4415  -10.9205 H       1  UNL1        0.0268
     78 H          24.3344   44.1601  -11.6237 H       1  UNL1        0.0268
     79 H          22.1177   43.9824  -12.4400 H       1  UNL1        0.0265
     80 H          21.3879   44.0758  -10.8705 H       1  UNL1        0.0265
     81 H          23.2264   41.7648  -11.6398 H       1  UNL1        0.0265
     82 H          22.1537   41.8456  -10.2798 H       1  UNL1        0.0265
     83 H          21.3480   41.7497  -13.2146 H       1  UNL1        0.0265
     84 H          20.1875   41.9665  -11.9389 H       1  UNL1        0.0265
     85 H          20.4136   39.5877  -12.8338 H       1  UNL1        0.0265
     86 H          22.0508   39.5746  -12.2644 H       1  UNL1        0.0265
     87 H          21.2023   39.8772   -9.8998 H       1  UNL1        0.0265
     88 H          20.7526   38.3811  -10.6340 H       1  UNL1        0.0265
     89 H          18.8333   40.7487  -10.6236 H       1  UNL1        0.0270
     90 H          18.4852   39.1140  -11.0904 H       1  UNL1        0.0270
     91 H          18.8196   38.3505   -8.7186 H       1  UNL1        0.0358
     92 H          17.5719   39.5345   -8.8809 H       1  UNL1        0.0358
     93 H          21.5747   38.4219   -6.4397 H       1  UNL1        0.0429
     94 H          20.9123   38.2207   -8.0160 H       1  UNL1        0.0429
     95 H          19.8996   37.8745   -6.6030 H       1  UNL1        0.0429
@<TRIPOS>BOND
     1     1     9   ar
     2     1     2   ar
     3     1    46    1
     4     2     3   ar
     5     2    47    1
     6     3     4    1
     7     3     7   ar
     8     4     5    1
     9     4     6    1
    10     4    48    1
    11     5    49    1
    12     5    50    1
    13     5    51    1
    14     6    52    1
    15     6    53    1
    16     6    54    1
    17     7     8   ar
    18     7    55    1
    19     8     9   ar
    20     8    10    1
    21     9    13    1
    22    10    41    1
    23    10    11    1
    24    10    16    1
    25    11    12    1
    26    11    56    1
    27    11    57    1
    28    12    13    1
    29    12    14    1
    30    12    15    1
    31    14    58    1
    32    14    59    1
    33    14    60    1
    34    15    61    1
    35    15    62    1
    36    15    63    1
    37    16    17    1
    38    16    64    1
    39    17    18    1
    40    17    65    1
    41    17    66    1
    42    18    42    1
    43    18    19    1
    44    18    20    1
    45    19    67    1
    46    20    43    1
    47    20    21    1
    48    20    26    1
    49    21    22   am
    50    21    68    1
    51    22    23    2
    52    22    24    1
    53    24    44    1
    54    24    39    1
    55    24    25    1
    56    25    69    1
    57    25    70    1
    58    25    71    1
    59    26    27    1
    60    26    72    1
    61    26    73    1
    62    27    45    1
    63    27    28    1
    64    27    29    1
    65    28    74    1
    66    28    75    1
    67    28    76    1
    68    29    30    1
    69    29    77    1
    70    29    78    1
    71    30    31    1
    72    30    79    1
    73    30    80    1
    74    31    32    1
    75    31    81    1
    76    31    82    1
    77    32    33    1
    78    32    83    1
    79    32    84    1
    80    33    34    1
    81    33    85    1
    82    33    86    1
    83    34    35    1
    84    34    87    1
    85    34    88    1
    86    35    36    1
    87    35    89    1
    88    35    90    1
    89    36    37    1
    90    36    91    1
    91    36    92    1
    92    37    38    2
    93    37    39   am
    94    39    40    1
    95    40    93    1
    96    40    94    1
    97    40    95    1
