@<TRIPOS>MOLECULE
BACE_3.smi:1
 86 87 0 0 0
SMALL
GASTEIGER
****
Structure written by MMmdl.
@<TRIPOS>ATOM
      1 C          26.5619   43.8915  -10.2200 C.ar    1  UNL1       -0.0535
      2 C          27.5605   44.7626  -10.6927 C.ar    1  UNL1       -0.0611
      3 C          28.6419   44.2554  -11.4392 C.ar    1  UNL1       -0.0583
      4 C          28.7293   42.8746  -11.7228 C.ar    1  UNL1       -0.0444
      5 C          29.9339   42.3346  -12.4841 C.3     1  UNL1       -0.0215
      6 C          30.9418   41.7203  -11.5101 C.3     1  UNL1       -0.0586
      7 C          29.5570   41.3496  -13.5980 C.3     1  UNL1       -0.0586
      8 C          27.7204   42.0081  -11.2513 C.ar    1  UNL1       -0.0501
      9 C          26.6369   42.5116  -10.5015 C.ar    1  UNL1       -0.0027
     10 C          25.5504   41.5799  -10.0085 C.3     1  UNL1       -0.0075
     11 N          24.3527   41.7527  -10.8398 N.4     1  UNL1        0.2341
     12 C          23.0978   41.3103  -10.2128 C.3     1  UNL1        0.0236
     13 C          21.9064   42.0679  -10.8311 C.3     1  UNL1        0.2249
     14 O          21.6601   41.5442  -12.1217 O.3     1  UNL1       -0.3594
     15 O          22.2703   43.4326  -10.8927 O.3     1  UNL1       -0.3594
     16 C          20.6532   41.9909   -9.9131 C.3     1  UNL1        0.0822
     17 N          19.5007   42.6649  -10.5110 N.am    1  UNL1       -0.3056
     18 C          18.7404   43.5918   -9.9057 C.2     1  UNL1        0.2337
     19 O          19.0429   44.1145   -8.8332 O.2     1  UNL1       -0.2738
     20 C          17.4373   43.9761  -10.6220 C.3     1  UNL1        0.0991
     21 C          17.2618   45.5096  -10.6845 C.3     1  UNL1       -0.0379
     22 C          20.2406   40.5830   -9.4050 C.3     1  UNL1       -0.0267
     23 C          19.9845   39.4743  -10.4564 C.3     1  UNL1       -0.0420
     24 C          18.9276   39.8467  -11.5072 C.3     1  UNL1       -0.0624
     25 C          19.7056   38.1034   -9.8000 C.3     1  UNL1       -0.0504
     26 C          18.4390   37.9722   -8.9275 C.3     1  UNL1       -0.0528
     27 C          17.1417   37.7903   -9.7347 C.3     1  UNL1       -0.0530
     28 C          15.9000   37.4935   -8.8907 C.3     1  UNL1       -0.0531
     29 C          15.5333   38.5643   -7.8413 C.3     1  UNL1       -0.0530
     30 C          15.4584   40.0115   -8.3634 C.3     1  UNL1       -0.0526
     31 C          14.4781   40.2237   -9.5354 C.3     1  UNL1       -0.0448
     32 C          14.3413   41.6981   -9.9596 C.3     1  UNL1        0.0242
     33 C          15.6307   42.2915  -10.5659 C.2     1  UNL1        0.2159
     34 O          16.0394   41.7970  -11.6206 O.2     1  UNL1       -0.2756
     35 N          16.2625   43.3396   -9.9747 N.am    1  UNL1       -0.2932
     36 C          15.8890   43.7865   -8.6234 C.3     1  UNL1        0.0039
     37 H          20.9218   42.5330   -9.0044 H       1  UNL1        0.0553
     38 H          17.5327   43.6613  -11.6616 H       1  UNL1        0.0594
     39 H          20.9124   39.3210  -11.0075 H       1  UNL1        0.0299
     40 H          25.7378   44.2887   -9.6451 H       1  UNL1        0.0622
     41 H          27.5053   45.8194  -10.4744 H       1  UNL1        0.0618
     42 H          29.4142   44.9281  -11.7789 H       1  UNL1        0.0620
     43 H          30.4275   43.1774  -12.9653 H       1  UNL1        0.0343
     44 H          31.2759   42.4530  -10.7756 H       1  UNL1        0.0235
     45 H          31.8204   41.3554  -12.0414 H       1  UNL1        0.0235
     46 H          30.5065   40.8799  -10.9709 H       1  UNL1        0.0235
     47 H          28.8632   41.7940  -14.3099 H       1  UNL1        0.0235
     48 H          29.1034   40.4383  -13.2145 H       1  UNL1        0.0235
     49 H          30.4409   41.0476  -14.1601 H       1  UNL1        0.0235
     50 H          27.7818   40.9504  -11.4487 H       1  UNL1        0.0625
     51 H          25.2918   41.8375   -8.9799 H       1  UNL1        0.0866
     52 H          25.8745   40.5384  -10.0274 H       1  UNL1        0.0866
     53 H          24.4597   41.3008  -11.7459 H       1  UNL1        0.2019
     54 H          23.1337   41.5388   -9.1457 H       1  UNL1        0.0868
     55 H          22.9971   40.2276  -10.3024 H       1  UNL1        0.0868
     56 H          22.4828   41.3533  -12.5560 H       1  UNL1        0.2130
     57 H          21.4932   43.9277  -11.1183 H       1  UNL1        0.2130
     58 H          19.1933   42.2964  -11.4045 H       1  UNL1        0.1492
     59 H          18.0793   45.9682  -11.2419 H       1  UNL1        0.0252
     60 H          17.2487   45.9852   -9.7058 H       1  UNL1        0.0252
     61 H          16.3360   45.7732  -11.1943 H       1  UNL1        0.0252
     62 H          21.0002   40.2250   -8.7094 H       1  UNL1        0.0287
     63 H          19.3465   40.7100   -8.7906 H       1  UNL1        0.0287
     64 H          18.5909   38.9613  -12.0389 H       1  UNL1        0.0232
     65 H          19.3083   40.5373  -12.2588 H       1  UNL1        0.0232
     66 H          18.0604   40.3155  -11.0450 H       1  UNL1        0.0232
     67 H          19.6636   37.3500  -10.5875 H       1  UNL1        0.0268
     68 H          20.5714   37.8324   -9.1929 H       1  UNL1        0.0268
     69 H          18.3558   38.8065   -8.2338 H       1  UNL1        0.0265
     70 H          18.5528   37.0929   -8.2959 H       1  UNL1        0.0265
     71 H          16.9289   38.6597  -10.3500 H       1  UNL1        0.0265
     72 H          17.2800   36.9640  -10.4289 H       1  UNL1        0.0265
     73 H          16.0539   36.5352   -8.3993 H       1  UNL1        0.0265
     74 H          15.0521   37.3474   -9.5619 H       1  UNL1        0.0265
     75 H          14.5809   38.2977   -7.3812 H       1  UNL1        0.0265
     76 H          16.2572   38.5353   -7.0235 H       1  UNL1        0.0265
     77 H          16.4585   40.3417   -8.6513 H       1  UNL1        0.0265
     78 H          15.1624   40.6554   -7.5336 H       1  UNL1        0.0265
     79 H          14.7853   39.6278  -10.3952 H       1  UNL1        0.0270
     80 H          13.4955   39.8427   -9.2555 H       1  UNL1        0.0270
     81 H          13.9496   42.2770   -9.1272 H       1  UNL1        0.0358
     82 H          13.5703   41.7592  -10.7283 H       1  UNL1        0.0358
     83 H          16.5851   44.5059   -8.1959 H       1  UNL1        0.0429
     84 H          15.8560   42.9492   -7.9245 H       1  UNL1        0.0429
     85 H          14.9111   44.2668   -8.6336 H       1  UNL1        0.0429
     86 H          24.2204   42.7441  -11.0048 H       1  UNL1        0.2019
@<TRIPOS>BOND
     1     1     9   ar
     2     1     2   ar
     3     1    40    1
     4     2     3   ar
     5     2    41    1
     6     3     4   ar
     7     3    42    1
     8     4     5    1
     9     4     8   ar
    10     5     6    1
    11     5     7    1
    12     5    43    1
    13     6    44    1
    14     6    45    1
    15     6    46    1
    16     7    47    1
    17     7    48    1
    18     7    49    1
    19     8     9   ar
    20     8    50    1
    21     9    10    1
    22    10    11    1
    23    10    51    1
    24    10    52    1
    25    11    12    1
    26    11    53    1
    27    11    86    1
    28    12    13    1
    29    12    54    1
    30    12    55    1
    31    13    14    1
    32    13    15    1
    33    13    16    1
    34    14    56    1
    35    15    57    1
    36    16    37    1
    37    16    17    1
    38    16    22    1
    39    17    18   am
    40    17    58    1
    41    18    19    2
    42    18    20    1
    43    20    38    1
    44    20    35    1
    45    20    21    1
    46    21    59    1
    47    21    60    1
    48    21    61    1
    49    22    23    1
    50    22    62    1
    51    22    63    1
    52    23    39    1
    53    23    24    1
    54    23    25    1
    55    24    64    1
    56    24    65    1
    57    24    66    1
    58    25    26    1
    59    25    67    1
    60    25    68    1
    61    26    27    1
    62    26    69    1
    63    26    70    1
    64    27    28    1
    65    27    71    1
    66    27    72    1
    67    28    29    1
    68    28    73    1
    69    28    74    1
    70    29    30    1
    71    29    75    1
    72    29    76    1
    73    30    31    1
    74    30    77    1
    75    30    78    1
    76    31    32    1
    77    31    79    1
    78    31    80    1
    79    32    33    1
    80    32    81    1
    81    32    82    1
    82    33    34    2
    83    33    35   am
    84    35    36    1
    85    36    83    1
    86    36    84    1
    87    36    85    1
