@<TRIPOS>MOLECULE
BACE_13.smi:1
 76 79 0 0 0
SMALL
GASTEIGER
****
Structure written by MMmdl.
@<TRIPOS>ATOM
      1 C          19.9088   49.6530   -6.7045 C.3     1  UNL1        0.0369
      2 O          20.7858   49.5342   -7.8124 O.3     1  UNL1       -0.3784
      3 C          21.7450   48.4933   -7.6833 C.3     1  UNL1        0.0724
      4 C          21.1372   47.1016   -7.6983 C.ar    1  UNL1       -0.0195
      5 C          20.7360   46.5112   -8.9146 C.ar    1  UNL1       -0.0442
      6 C          20.1842   45.2102   -8.9338 C.ar    1  UNL1        0.0388
      7 C          20.0178   44.5180   -7.7113 C.ar    1  UNL1       -0.0287
      8 C          20.4148   45.1046   -6.4822 C.ar    1  UNL1        0.0282
      9 C          20.9756   46.3952   -6.4899 C.ar    1  UNL1       -0.0355
     10 N          20.2708   44.4672   -5.2405 N.pl3   1  UNL1       -0.3438
     11 C          20.0621   43.0263   -5.1589 C.3     1  UNL1        0.0092
     12 C          21.3256   42.2222   -5.4958 C.3     1  UNL1       -0.0344
     13 C          21.0764   40.7049   -5.4520 C.3     1  UNL1       -0.0172
     14 C          22.2470   39.8950   -6.0407 C.3     1  UNL1        0.0896
     15 O          22.4597   40.2191   -7.4130 O.3     1  UNL1       -0.4920
     16 C          21.5091   39.8453   -8.3408 C.ar    1  UNL1        0.1208
     17 C          20.6392   38.7360   -8.1886 C.ar    1  UNL1       -0.0199
     18 C          19.7003   38.4263   -9.1922 C.ar    1  UNL1       -0.0580
     19 C          19.6093   39.2228  -10.3479 C.ar    1  UNL1       -0.0583
     20 C          20.4533   40.3455  -10.5016 C.ar    1  UNL1       -0.0421
     21 C          21.4174   40.6275   -9.5107 C.ar    1  UNL1       -0.0167
     22 C          20.3413   41.2245  -11.7416 C.3     1  UNL1       -0.0066
     23 C          19.5153   42.5348  -11.5879 C.3     1  UNL1        0.0548
     24 N          19.8818   43.2833  -10.3784 N.am    1  UNL1       -0.3057
     25 C          19.7277   44.6127  -10.2358 C.2     1  UNL1        0.2444
     26 O          19.2644   45.3253  -11.1269 O.2     1  UNL1       -0.2702
     27 C          17.9703   42.3521  -11.7625 C.3     1  UNL1        0.0912
     28 C          17.0980   42.4271  -10.4786 C.3     1  UNL1        0.0591
     29 C          15.5850   42.3567  -10.7934 C.3     1  UNL1        0.0660
     30 O          14.8134   42.3157   -9.5961 O.3     1  UNL1       -0.3714
     31 C          15.1468   41.2293   -8.7288 C.3     1  UNL1        0.0944
     32 C          16.6386   41.3185   -8.3641 C.3     1  UNL1        0.0248
     33 N          17.4535   41.3367   -9.5731 N.3     1  UNL1       -0.3065
     34 C          14.7349   39.8588   -9.3260 C.3     1  UNL1        0.0747
     35 O          15.0869   38.7575   -8.5041 O.3     1  UNL1       -0.3804
     36 C          14.4606   38.7595   -7.2336 C.3     1  UNL1        0.0366
     37 O          17.5332   43.3383  -12.6873 O.3     1  UNL1       -0.3883
     38 H          19.8404   43.1317  -12.4366 H       1  UNL1        0.0527
     39 H          17.7788   41.3931  -12.2464 H       1  UNL1        0.0628
     40 H          17.2695   43.3776   -9.9724 H       1  UNL1        0.0509
     41 H          14.5710   41.3921   -7.8175 H       1  UNL1        0.0632
     42 H          19.2688   50.5227   -6.8478 H       1  UNL1        0.0524
     43 H          20.4605   49.7899   -5.7708 H       1  UNL1        0.0524
     44 H          19.2625   48.7782   -6.6075 H       1  UNL1        0.0524
     45 H          22.3369   48.6405   -6.7788 H       1  UNL1        0.0610
     46 H          22.4431   48.5708   -8.5171 H       1  UNL1        0.0610
     47 H          20.8535   47.0606   -9.8380 H       1  UNL1        0.0628
     48 H          19.5678   43.5384   -7.7288 H       1  UNL1        0.0643
     49 H          21.2847   46.8525   -5.5607 H       1  UNL1        0.0639
     50 H          20.6426   44.9087   -4.4050 H       1  UNL1        0.1461
     51 H          19.2604   42.7334   -5.8285 H       1  UNL1        0.0461
     52 H          19.7269   42.7838   -4.1502 H       1  UNL1        0.0461
     53 H          22.1328   42.4838   -4.8104 H       1  UNL1        0.0281
     54 H          21.6706   42.4979   -6.4918 H       1  UNL1        0.0281
     55 H          20.1562   40.4651   -5.9862 H       1  UNL1        0.0298
     56 H          20.9101   40.3955   -4.4186 H       1  UNL1        0.0298
     57 H          22.1256   38.8228   -5.8926 H       1  UNL1        0.0696
     58 H          23.1564   40.1520   -5.4969 H       1  UNL1        0.0696
     59 H          20.6753   38.1080   -7.3124 H       1  UNL1        0.0654
     60 H          19.0424   37.5765   -9.0685 H       1  UNL1        0.0619
     61 H          18.8736   38.9846  -11.1027 H       1  UNL1        0.0620
     62 H          22.0880   41.4686   -9.6309 H       1  UNL1        0.0657
     63 H          19.9601   40.6293  -12.5731 H       1  UNL1        0.0332
     64 H          21.3596   41.4908  -12.0321 H       1  UNL1        0.0332
     65 H          20.3055   42.7649   -9.6221 H       1  UNL1        0.1494
     66 H          15.3550   41.5089  -11.4378 H       1  UNL1        0.0576
     67 H          15.2729   43.2442  -11.3448 H       1  UNL1        0.0576
     68 H          16.9295   40.4843   -7.7249 H       1  UNL1        0.0450
     69 H          16.8150   42.2231   -7.7813 H       1  UNL1        0.0450
     70 H          18.4394   41.3699   -9.3345 H       1  UNL1        0.1224
     71 H          13.6644   39.8411   -9.5390 H       1  UNL1        0.0586
     72 H          15.2332   39.6780  -10.2773 H       1  UNL1        0.0586
     73 H          14.4600   37.7495   -6.8399 H       1  UNL1        0.0524
     74 H          13.4280   39.0849   -7.3024 H       1  UNL1        0.0524
     75 H          14.9688   39.4062   -6.5199 H       1  UNL1        0.0524
     76 H          17.8389   44.1819  -12.3693 H       1  UNL1        0.2099
@<TRIPOS>BOND
     1     1     2    1
     2     1    42    1
     3     1    43    1
     4     1    44    1
     5     2     3    1
     6     3     4    1
     7     3    45    1
     8     3    46    1
     9     4     9   ar
    10     4     5   ar
    11     5     6   ar
    12     5    47    1
    13     6    25    1
    14     6     7   ar
    15     7     8   ar
    16     7    48    1
    17     8     9   ar
    18     8    10    1
    19     9    49    1
    20    10    11    1
    21    10    50    1
    22    11    12    1
    23    11    51    1
    24    11    52    1
    25    12    13    1
    26    12    53    1
    27    12    54    1
    28    13    14    1
    29    13    55    1
    30    13    56    1
    31    14    15    1
    32    14    57    1
    33    14    58    1
    34    15    16    1
    35    16    21   ar
    36    16    17   ar
    37    17    18   ar
    38    17    59    1
    39    18    19   ar
    40    18    60    1
    41    19    20   ar
    42    19    61    1
    43    20    21   ar
    44    20    22    1
    45    21    62    1
    46    22    23    1
    47    22    63    1
    48    22    64    1
    49    23    38    1
    50    23    24    1
    51    23    27    1
    52    24    25   am
    53    24    65    1
    54    25    26    2
    55    27    39    1
    56    27    28    1
    57    27    37    1
    58    28    40    1
    59    28    33    1
    60    28    29    1
    61    29    30    1
    62    29    66    1
    63    29    67    1
    64    30    31    1
    65    31    41    1
    66    31    32    1
    67    31    34    1
    68    32    33    1
    69    32    68    1
    70    32    69    1
    71    33    70    1
    72    34    35    1
    73    34    71    1
    74    34    72    1
    75    35    36    1
    76    36    73    1
    77    36    74    1
    78    36    75    1
    79    37    76    1
