@<TRIPOS>MOLECULE
BACE_1.smi:1
 87 88 0 0 0
SMALL
GASTEIGER
****
Structure written by MMmdl.
@<TRIPOS>ATOM
      1 C          24.4457   46.5562  -15.9768 C.3     1  UNL1       -0.0652
      2 C          23.9911   46.4967  -14.5182 C.3     1  UNL1       -0.0545
      3 C          24.4600   45.2348  -13.7785 C.3     1  UNL1       -0.0376
      4 C          23.9900   45.2567  -12.3147 C.3     1  UNL1        0.0116
      5 N          24.3291   44.0444  -11.5786 N.am    1  UNL1       -0.3151
      6 C          25.5426   43.7206  -11.1130 C.2     1  UNL1        0.2159
      7 O          26.5657   44.3105  -11.4602 O.2     1  UNL1       -0.2755
      8 C          25.6300   42.6163  -10.0426 C.3     1  UNL1        0.0351
      9 C          26.3548   41.3563  -10.5465 C.3     1  UNL1       -0.0540
     10 C          24.3203   42.3369   -9.2515 C.3     1  UNL1       -0.0143
     11 C          23.3201   41.3009   -9.8279 C.3     1  UNL1        0.0742
     12 C          22.2052   40.9662   -8.8118 C.3     1  UNL1        0.0496
     13 C          21.4233   39.6784   -9.1619 C.3     1  UNL1       -0.0295
     14 C          20.3584   39.2728   -8.1116 C.3     1  UNL1       -0.0421
     15 C          19.3377   38.2757   -8.6971 C.3     1  UNL1       -0.0504
     16 C          18.1271   37.9514   -7.7890 C.3     1  UNL1       -0.0528
     17 C          17.3511   39.1639   -7.2331 C.3     1  UNL1       -0.0516
     18 C          16.7868   40.1011   -8.3099 C.3     1  UNL1       -0.0371
     19 C          16.0964   41.3449   -7.7145 C.3     1  UNL1        0.0150
     20 N          15.6813   42.2825   -8.7720 N.am    1  UNL1       -0.2978
     21 C          16.1932   43.5288   -8.9759 C.2     1  UNL1        0.2467
     22 O          15.6561   44.3463   -9.7265 O.2     1  UNL1       -0.2700
     23 C          17.4399   43.9608   -8.2473 C.ar    1  UNL1        0.0411
     24 C          18.6299   43.2017   -8.2846 C.ar    1  UNL1       -0.0373
     25 C          19.7858   43.6349   -7.5930 C.ar    1  UNL1        0.0409
     26 C          19.7489   44.8459   -6.8698 C.ar    1  UNL1       -0.0078
     27 C          18.5796   45.6428   -6.8577 C.ar    1  UNL1        0.1219
     28 C          17.4435   45.1948   -7.5628 C.ar    1  UNL1       -0.0078
     29 O          18.4601   46.8243   -6.1592 O.3     1  UNL1       -0.4922
     30 C          19.6105   47.6506   -6.0057 C.3     1  UNL1        0.0868
     31 C          19.9230   48.3768   -7.3211 C.3     1  UNL1       -0.0307
     32 C          21.0159   42.7727   -7.5529 C.2     1  UNL1        0.2445
     33 O          21.7245   42.7254   -6.5475 O.2     1  UNL1       -0.2702
     34 N          21.2722   42.0858   -8.6773 N.am    1  UNL1       -0.3060
     35 C          14.4748   41.8462   -9.4966 C.3     1  UNL1        0.0121
     36 C          14.7541   41.5314  -10.9753 C.3     1  UNL1       -0.0493
     37 C          21.0053   38.7391   -6.8203 C.3     1  UNL1       -0.0624
     38 O          22.7370   41.7466  -11.0428 O.3     1  UNL1       -0.3899
     39 H          26.3036   43.0585   -9.3074 H       1  UNL1        0.0392
     40 H          23.8550   40.3759  -10.0393 H       1  UNL1        0.0612
     41 H          22.7001   40.7827   -7.8601 H       1  UNL1        0.0524
     42 H          19.7981   40.1658   -7.8458 H       1  UNL1        0.0299
     43 H          24.0923   47.4673  -16.4572 H       1  UNL1        0.0230
     44 H          24.0562   45.7176  -16.5500 H       1  UNL1        0.0230
     45 H          25.5320   46.5517  -16.0401 H       1  UNL1        0.0230
     46 H          24.3557   47.3774  -13.9903 H       1  UNL1        0.0263
     47 H          22.9065   46.5518  -14.4819 H       1  UNL1        0.0263
     48 H          24.0601   44.3473  -14.2714 H       1  UNL1        0.0280
     49 H          25.5498   45.1633  -13.8270 H       1  UNL1        0.0280
     50 H          24.3987   46.1262  -11.7948 H       1  UNL1        0.0462
     51 H          22.9057   45.3594  -12.2806 H       1  UNL1        0.0462
     52 H          23.5596   43.4512  -11.2777 H       1  UNL1        0.1487
     53 H          27.2869   41.6013  -11.0599 H       1  UNL1        0.0237
     54 H          25.7398   40.7848  -11.2403 H       1  UNL1        0.0237
     55 H          26.6081   40.6957   -9.7158 H       1  UNL1        0.0237
     56 H          24.6256   41.9870   -8.2638 H       1  UNL1        0.0298
     57 H          23.7987   43.2731   -9.0480 H       1  UNL1        0.0298
     58 H          20.9358   39.8255  -10.1265 H       1  UNL1        0.0286
     59 H          22.1197   38.8492   -9.3074 H       1  UNL1        0.0286
     60 H          18.9602   38.6646   -9.6438 H       1  UNL1        0.0268
     61 H          19.8467   37.3469   -8.9549 H       1  UNL1        0.0268
     62 H          17.4359   37.3100   -8.3380 H       1  UNL1        0.0265
     63 H          18.4575   37.3508   -6.9437 H       1  UNL1        0.0265
     64 H          16.5283   38.8016   -6.6135 H       1  UNL1        0.0266
     65 H          17.9939   39.7249   -6.5567 H       1  UNL1        0.0266
     66 H          17.5831   40.4077   -8.9832 H       1  UNL1        0.0280
     67 H          16.0770   39.5428   -8.9207 H       1  UNL1        0.0280
     68 H          15.2251   41.0398   -7.1323 H       1  UNL1        0.0464
     69 H          16.7413   41.8207   -6.9772 H       1  UNL1        0.0464
     70 H          18.6483   42.2728   -8.8308 H       1  UNL1        0.0633
     71 H          20.6280   45.1346   -6.3170 H       1  UNL1        0.0662
     72 H          16.5473   45.7972   -7.5548 H       1  UNL1        0.0662
     73 H          19.3780   48.3933   -5.2400 H       1  UNL1        0.0694
     74 H          20.4859   47.1149   -5.6389 H       1  UNL1        0.0694
     75 H          20.7915   49.0207   -7.2040 H       1  UNL1        0.0262
     76 H          19.0773   48.9953   -7.6347 H       1  UNL1        0.0262
     77 H          20.1391   47.6782   -8.1313 H       1  UNL1        0.0262
     78 H          20.6938   42.2657   -9.4828 H       1  UNL1        0.1494
     79 H          14.0610   40.9490   -9.0383 H       1  UNL1        0.0462
     80 H          13.6962   42.6045   -9.4141 H       1  UNL1        0.0462
     81 H          13.8549   41.1415  -11.4535 H       1  UNL1        0.0245
     82 H          15.5338   40.7743  -11.0746 H       1  UNL1        0.0245
     83 H          15.0691   42.4193  -11.5209 H       1  UNL1        0.0245
     84 H          21.5576   37.8169   -6.9968 H       1  UNL1        0.0232
     85 H          20.2512   38.5420   -6.0602 H       1  UNL1        0.0232
     86 H          21.6940   39.4587   -6.3796 H       1  UNL1        0.0232
     87 H          23.2196   41.3563  -11.7707 H       1  UNL1        0.2099
@<TRIPOS>BOND
     1     1     2    1
     2     1    43    1
     3     1    44    1
     4     1    45    1
     5     2     3    1
     6     2    46    1
     7     2    47    1
     8     3     4    1
     9     3    48    1
    10     3    49    1
    11     4     5    1
    12     4    50    1
    13     4    51    1
    14     5     6   am
    15     5    52    1
    16     6     7    2
    17     6     8    1
    18     8    39    1
    19     8     9    1
    20     8    10    1
    21     9    53    1
    22     9    54    1
    23     9    55    1
    24    10    11    1
    25    10    56    1
    26    10    57    1
    27    11    40    1
    28    11    12    1
    29    11    38    1
    30    12    41    1
    31    12    34    1
    32    12    13    1
    33    13    14    1
    34    13    58    1
    35    13    59    1
    36    14    42    1
    37    14    15    1
    38    14    37    1
    39    15    16    1
    40    15    60    1
    41    15    61    1
    42    16    17    1
    43    16    62    1
    44    16    63    1
    45    17    18    1
    46    17    64    1
    47    17    65    1
    48    18    19    1
    49    18    66    1
    50    18    67    1
    51    19    20    1
    52    19    68    1
    53    19    69    1
    54    20    21   am
    55    20    35    1
    56    21    22    2
    57    21    23    1
    58    23    28   ar
    59    23    24   ar
    60    24    25   ar
    61    24    70    1
    62    25    26   ar
    63    25    32    1
    64    26    27   ar
    65    26    71    1
    66    27    28   ar
    67    27    29    1
    68    28    72    1
    69    29    30    1
    70    30    31    1
    71    30    73    1
    72    30    74    1
    73    31    75    1
    74    31    76    1
    75    31    77    1
    76    32    33    2
    77    32    34   am
    78    34    78    1
    79    35    36    1
    80    35    79    1
    81    35    80    1
    82    36    81    1
    83    36    82    1
    84    36    83    1
    85    37    84    1
    86    37    85    1
    87    37    86    1
    88    38    87    1
