@<TRIPOS>MOLECULE
BACE_9.smi:1
 87 89 0 0 0
SMALL
GASTEIGER
****
Structure written by MMmdl.
@<TRIPOS>ATOM
      1 C          18.9980   47.4889   -7.2421 C.3     1  UNL1       -0.0624
      2 C          19.4800   46.3057   -8.0997 C.3     1  UNL1       -0.0421
      3 C          20.9420   46.5338   -8.5574 C.3     1  UNL1       -0.0504
      4 C          21.5807   45.3323   -9.2757 C.3     1  UNL1       -0.0528
      5 C          23.0833   45.5192   -9.5669 C.3     1  UNL1       -0.0530
      6 C          23.7052   44.3009  -10.2675 C.3     1  UNL1       -0.0530
      7 C          23.9636   43.1036   -9.3259 C.3     1  UNL1       -0.0516
      8 C          24.2411   41.7786  -10.0658 C.3     1  UNL1       -0.0375
      9 C          22.9805   40.9254  -10.2994 C.3     1  UNL1        0.0091
     10 N          22.0636   41.5585  -11.2393 N.pl3   1  UNL1       -0.3438
     11 C          20.6912   41.3194  -11.1412 C.ar    1  UNL1        0.0282
     12 C          20.1575   40.0841  -10.7103 C.ar    1  UNL1       -0.0355
     13 C          18.7622   39.9126  -10.5952 C.ar    1  UNL1       -0.0195
     14 C          17.8968   40.9803  -10.9282 C.ar    1  UNL1       -0.0442
     15 C          18.4315   42.2249  -11.3366 C.ar    1  UNL1        0.0388
     16 C          19.8240   42.3786  -11.4532 C.ar    1  UNL1       -0.0287
     17 C          17.5367   43.3793  -11.6692 C.2     1  UNL1        0.2444
     18 O          16.8602   43.3519  -12.6922 O.2     1  UNL1       -0.2702
     19 N          17.5201   44.4435  -10.8472 N.am    1  UNL1       -0.3060
     20 C          18.0938   44.5733   -9.5062 C.3     1  UNL1        0.0508
     21 C          18.5076   46.0520   -9.2804 C.3     1  UNL1       -0.0295
     22 C          17.0853   43.9584   -8.4842 C.3     1  UNL1        0.0859
     23 C          17.6922   43.2308   -7.2652 C.3     1  UNL1        0.0240
     24 N          18.4709   42.0513   -7.6398 N.3     1  UNL1       -0.3095
     25 C          19.9138   42.2609   -7.6771 C.3     1  UNL1        0.0213
     26 C          20.6443   41.4092   -6.6638 C.ar    1  UNL1       -0.0333
     27 C          21.1095   40.1250   -7.0009 C.ar    1  UNL1       -0.0573
     28 C          21.8148   39.3599   -6.0535 C.ar    1  UNL1       -0.0612
     29 C          22.0524   39.8773   -4.7642 C.ar    1  UNL1       -0.0583
     30 C          21.5562   41.1486   -4.4057 C.ar    1  UNL1       -0.0445
     31 C          20.8599   41.9118   -5.3669 C.ar    1  UNL1       -0.0539
     32 C          21.7815   41.6989   -3.0082 C.3     1  UNL1       -0.0215
     33 C          20.4552   41.9424   -2.2722 C.3     1  UNL1       -0.0586
     34 C          22.6551   42.9559   -3.0494 C.3     1  UNL1       -0.0586
     35 O          16.2169   44.9467   -7.9647 O.3     1  UNL1       -0.3887
     36 C          18.2149   38.5779  -10.1195 C.3     1  UNL1        0.0724
     37 O          18.7659   38.1843   -8.8718 O.3     1  UNL1       -0.3784
     38 C          17.9754   38.5646   -7.7515 C.3     1  UNL1        0.0369
     39 H          19.4805   45.4389   -7.4435 H       1  UNL1        0.0299
     40 H          19.0145   43.9955   -9.4872 H       1  UNL1        0.0524
     41 H          16.4485   43.2255   -8.9858 H       1  UNL1        0.0624
     42 H          18.9911   48.4141   -7.8220 H       1  UNL1        0.0232
     43 H          19.6377   47.6376   -6.3683 H       1  UNL1        0.0232
     44 H          17.9846   47.3183   -6.8706 H       1  UNL1        0.0232
     45 H          20.9936   47.4145   -9.2021 H       1  UNL1        0.0268
     46 H          21.5442   46.7689   -7.6772 H       1  UNL1        0.0268
     47 H          21.4511   44.4448   -8.6632 H       1  UNL1        0.0265
     48 H          21.0565   45.1337  -10.2107 H       1  UNL1        0.0265
     49 H          23.2057   46.3962  -10.2027 H       1  UNL1        0.0265
     50 H          23.6313   45.7352   -8.6473 H       1  UNL1        0.0265
     51 H          23.0614   44.0127  -11.0960 H       1  UNL1        0.0265
     52 H          24.6568   44.5933  -10.7165 H       1  UNL1        0.0265
     53 H          24.8266   43.3468   -8.7030 H       1  UNL1        0.0266
     54 H          23.1321   42.9539   -8.6364 H       1  UNL1        0.0266
     55 H          24.7592   41.9605  -11.0072 H       1  UNL1        0.0280
     56 H          24.9328   41.1907   -9.4647 H       1  UNL1        0.0280
     57 H          23.2614   39.9563  -10.7003 H       1  UNL1        0.0461
     58 H          22.4921   40.7423   -9.3432 H       1  UNL1        0.0461
     59 H          22.3685   42.4379  -11.6322 H       1  UNL1        0.1461
     60 H          20.8112   39.2616  -10.4597 H       1  UNL1        0.0639
     61 H          16.8278   40.8548  -10.8364 H       1  UNL1        0.0628
     62 H          20.2332   43.3283  -11.7679 H       1  UNL1        0.0643
     63 H          16.9336   45.2105  -11.1391 H       1  UNL1        0.1494
     64 H          17.6118   46.6668   -9.1764 H       1  UNL1        0.0286
     65 H          18.9759   46.4251  -10.1936 H       1  UNL1        0.0286
     66 H          18.2584   43.9010   -6.6170 H       1  UNL1        0.0450
     67 H          16.8600   42.8838   -6.6483 H       1  UNL1        0.0450
     68 H          18.2998   41.3533   -6.9171 H       1  UNL1        0.1223
     69 H          20.3029   42.0583   -8.6731 H       1  UNL1        0.0473
     70 H          20.1620   43.2948   -7.4581 H       1  UNL1        0.0473
     71 H          20.9238   39.7175   -7.9817 H       1  UNL1        0.0621
     72 H          22.1709   38.3768   -6.3215 H       1  UNL1        0.0618
     73 H          22.5928   39.2830   -4.0421 H       1  UNL1        0.0620
     74 H          20.4792   42.8880   -5.1101 H       1  UNL1        0.0623
     75 H          22.3325   40.9523   -2.4401 H       1  UNL1        0.0343
     76 H          19.8813   41.0213   -2.1955 H       1  UNL1        0.0235
     77 H          19.8345   42.6804   -2.7814 H       1  UNL1        0.0235
     78 H          20.6385   42.3051   -1.2622 H       1  UNL1        0.0235
     79 H          23.6089   42.7486   -3.5344 H       1  UNL1        0.0235
     80 H          22.8596   43.3358   -2.0470 H       1  UNL1        0.0235
     81 H          22.1722   43.7549   -3.6063 H       1  UNL1        0.0235
     82 H          15.7346   44.5400   -7.2527 H       1  UNL1        0.2099
     83 H          17.1231   38.5706  -10.1098 H       1  UNL1        0.0610
     84 H          18.5196   37.8259  -10.8406 H       1  UNL1        0.0610
     85 H          17.2110   37.8105   -7.5437 H       1  UNL1        0.0524
     86 H          17.4813   39.5308   -7.9003 H       1  UNL1        0.0524
     87 H          18.6160   38.6479   -6.8690 H       1  UNL1        0.0524
@<TRIPOS>BOND
     1     1     2    1
     2     1    42    1
     3     1    43    1
     4     1    44    1
     5     2    39    1
     6     2    21    1
     7     2     3    1
     8     3     4    1
     9     3    45    1
    10     3    46    1
    11     4     5    1
    12     4    47    1
    13     4    48    1
    14     5     6    1
    15     5    49    1
    16     5    50    1
    17     6     7    1
    18     6    51    1
    19     6    52    1
    20     7     8    1
    21     7    53    1
    22     7    54    1
    23     8     9    1
    24     8    55    1
    25     8    56    1
    26     9    10    1
    27     9    57    1
    28     9    58    1
    29    10    11    1
    30    10    59    1
    31    11    16   ar
    32    11    12   ar
    33    12    13   ar
    34    12    60    1
    35    13    14   ar
    36    13    36    1
    37    14    15   ar
    38    14    61    1
    39    15    16   ar
    40    15    17    1
    41    16    62    1
    42    17    18    2
    43    17    19   am
    44    19    20    1
    45    19    63    1
    46    20    40    1
    47    20    21    1
    48    20    22    1
    49    21    64    1
    50    21    65    1
    51    22    41    1
    52    22    23    1
    53    22    35    1
    54    23    24    1
    55    23    66    1
    56    23    67    1
    57    24    25    1
    58    24    68    1
    59    25    26    1
    60    25    69    1
    61    25    70    1
    62    26    31   ar
    63    26    27   ar
    64    27    28   ar
    65    27    71    1
    66    28    29   ar
    67    28    72    1
    68    29    30   ar
    69    29    73    1
    70    30    31   ar
    71    30    32    1
    72    31    74    1
    73    32    33    1
    74    32    34    1
    75    32    75    1
    76    33    76    1
    77    33    77    1
    78    33    78    1
    79    34    79    1
    80    34    80    1
    81    34    81    1
    82    35    82    1
    83    36    37    1
    84    36    83    1
    85    36    84    1
    86    37    38    1
    87    38    85    1
    88    38    86    1
    89    38    87    1
