@<TRIPOS>MOLECULE
BACE_2.smi:1
 95 97 0 0 0
SMALL
GASTEIGER
****
Structure written by MMmdl.
@<TRIPOS>ATOM
      1 C          22.4593   50.6952   -3.2691 C.ar    1  UNL1       -0.0193
      2 C          23.3660   50.5767   -2.2007 C.ar    1  UNL1       -0.0549
      3 C          24.2520   49.4810   -2.1406 C.ar    1  UNL1       -0.0443
      4 C          25.2521   49.3437   -0.9983 C.3     1  UNL1       -0.0215
      5 C          26.0685   50.6239   -0.7848 C.3     1  UNL1       -0.0586
      6 C          24.5565   48.9303    0.3024 C.3     1  UNL1       -0.0586
      7 C          24.1853   48.4873   -3.1400 C.ar    1  UNL1       -0.0502
      8 C          23.2502   48.5786   -4.1967 C.ar    1  UNL1        0.0115
      9 C          22.4201   49.7264   -4.2894 C.ar    1  UNL1        0.1260
     10 C          23.0954   47.4253   -5.1891 C.3     1  UNL1        0.0400
     11 C          21.8523   47.6571   -6.0764 C.3     1  UNL1        0.0062
     12 C          21.6864   49.1323   -6.4954 C.3     1  UNL1        0.1068
     13 O          21.5410   49.9379   -5.3281 O.3     1  UNL1       -0.4859
     14 C          22.8673   49.6470   -7.3423 C.3     1  UNL1       -0.0251
     15 C          20.3778   49.3265   -7.2803 C.3     1  UNL1       -0.0251
     16 N          23.0351   46.1564   -4.4393 N.3     1  UNL1       -0.3066
     17 C          22.3904   44.9789   -5.0349 C.3     1  UNL1        0.0242
     18 C          23.2911   44.2594   -6.0526 C.3     1  UNL1        0.0859
     19 O          24.0636   43.3586   -5.2791 O.3     1  UNL1       -0.3887
     20 C          22.5502   43.4101   -7.1245 C.3     1  UNL1        0.0505
     21 N          21.4507   44.1351   -7.7646 N.am    1  UNL1       -0.3084
     22 C          20.1457   43.9913   -7.4759 C.2     1  UNL1        0.2336
     23 O          19.7578   43.3559   -6.4933 O.2     1  UNL1       -0.2738
     24 C          19.1430   44.6917   -8.4167 C.3     1  UNL1        0.0991
     25 C          18.5803   45.9747   -7.7778 C.3     1  UNL1       -0.0379
     26 C          23.5454   42.8989   -8.1986 C.3     1  UNL1       -0.0295
     27 C          22.9947   41.9850   -9.3201 C.3     1  UNL1       -0.0421
     28 C          22.2299   42.7490  -10.4142 C.3     1  UNL1       -0.0624
     29 C          22.2082   40.7792   -8.7669 C.3     1  UNL1       -0.0504
     30 C          21.9187   39.7065   -9.8310 C.3     1  UNL1       -0.0528
     31 C          21.3017   38.4161   -9.2658 C.3     1  UNL1       -0.0530
     32 C          19.8358   38.5129   -8.8046 C.3     1  UNL1       -0.0531
     33 C          18.8499   38.9483   -9.9082 C.3     1  UNL1       -0.0530
     34 C          18.3577   40.3840   -9.6893 C.3     1  UNL1       -0.0526
     35 C          17.5374   40.9566  -10.8591 C.3     1  UNL1       -0.0448
     36 C          16.8953   42.3282  -10.5537 C.3     1  UNL1        0.0242
     37 C          17.9336   43.3932  -10.1472 C.2     1  UNL1        0.2159
     38 O          18.6655   43.8224  -11.0414 O.2     1  UNL1       -0.2756
     39 N          18.0382   43.7970   -8.8503 N.am    1  UNL1       -0.2932
     40 C          17.0836   43.3359   -7.8283 C.3     1  UNL1        0.0039
     41 H          23.9800   47.4225   -5.8272 H       1  UNL1        0.0512
     42 H          23.9414   44.9820   -6.5475 H       1  UNL1        0.0624
     43 H          22.1356   42.5374   -6.6176 H       1  UNL1        0.0524
     44 H          19.7199   45.0310   -9.2781 H       1  UNL1        0.0594
     45 H          23.8813   41.5823   -9.8140 H       1  UNL1        0.0299
     46 H          21.7887   51.5438   -3.3076 H       1  UNL1        0.0654
     47 H          23.3802   51.3396   -1.4337 H       1  UNL1        0.0622
     48 H          25.9530   48.5518   -1.2653 H       1  UNL1        0.0343
     49 H          26.5419   50.9443   -1.7142 H       1  UNL1        0.0235
     50 H          26.8536   50.4668   -0.0450 H       1  UNL1        0.0235
     51 H          25.4512   51.4493   -0.4271 H       1  UNL1        0.0235
     52 H          23.9909   48.0062    0.1722 H       1  UNL1        0.0235
     53 H          23.8736   49.7124    0.6330 H       1  UNL1        0.0235
     54 H          25.2829   48.7676    1.0986 H       1  UNL1        0.0235
     55 H          24.8360   47.6270   -3.0758 H       1  UNL1        0.0625
     56 H          21.8811   47.0049   -6.9495 H       1  UNL1        0.0322
     57 H          20.9567   47.3845   -5.5163 H       1  UNL1        0.0322
     58 H          23.0250   49.0165   -8.2186 H       1  UNL1        0.0268
     59 H          23.8011   49.6704   -6.7826 H       1  UNL1        0.0268
     60 H          22.6819   50.6577   -7.7025 H       1  UNL1        0.0268
     61 H          20.3873   48.7589   -8.2094 H       1  UNL1        0.0268
     62 H          20.2226   50.3718   -7.5356 H       1  UNL1        0.0268
     63 H          19.5153   49.0011   -6.6967 H       1  UNL1        0.0268
     64 H          23.9809   45.8880   -4.1765 H       1  UNL1        0.1226
     65 H          22.1260   44.2769   -4.2425 H       1  UNL1        0.0450
     66 H          21.4325   45.2586   -5.4641 H       1  UNL1        0.0450
     67 H          24.4701   43.8259   -4.5578 H       1  UNL1        0.2099
     68 H          21.6908   44.6891   -8.5764 H       1  UNL1        0.1491
     69 H          19.3908   46.6595   -7.5342 H       1  UNL1        0.0252
     70 H          18.0339   45.7826   -6.8562 H       1  UNL1        0.0252
     71 H          17.9138   46.4928   -8.4643 H       1  UNL1        0.0252
     72 H          24.0520   43.7508   -8.6527 H       1  UNL1        0.0286
     73 H          24.3324   42.3430   -7.6830 H       1  UNL1        0.0286
     74 H          22.0948   42.1359  -11.3082 H       1  UNL1        0.0232
     75 H          22.7727   43.6429  -10.7294 H       1  UNL1        0.0232
     76 H          21.2328   43.0575  -10.0843 H       1  UNL1        0.0232
     77 H          22.7867   40.3204   -7.9639 H       1  UNL1        0.0268
     78 H          21.2732   41.1105   -8.3133 H       1  UNL1        0.0268
     79 H          22.8568   39.4456  -10.3208 H       1  UNL1        0.0265
     80 H          21.2803   40.1137  -10.6143 H       1  UNL1        0.0265
     81 H          21.3568   37.6584  -10.0394 H       1  UNL1        0.0265
     82 H          21.9167   38.0440   -8.4464 H       1  UNL1        0.0265
     83 H          19.7595   39.1662   -7.9359 H       1  UNL1        0.0265
     84 H          19.5302   37.5302   -8.4469 H       1  UNL1        0.0265
     85 H          19.3004   38.8428  -10.8961 H       1  UNL1        0.0265
     86 H          17.9851   38.2848   -9.9056 H       1  UNL1        0.0265
     87 H          19.2158   41.0291   -9.5015 H       1  UNL1        0.0265
     88 H          17.7545   40.4004   -8.7823 H       1  UNL1        0.0265
     89 H          18.1796   41.0403  -11.7376 H       1  UNL1        0.0270
     90 H          16.7503   40.2514  -11.1297 H       1  UNL1        0.0270
     91 H          16.1006   42.2016   -9.8225 H       1  UNL1        0.0358
     92 H          16.3904   42.6883  -11.4488 H       1  UNL1        0.0358
     93 H          17.2863   43.7362   -6.8372 H       1  UNL1        0.0429
     94 H          17.0997   42.2496   -7.7242 H       1  UNL1        0.0429
     95 H          16.0704   43.6454   -8.0768 H       1  UNL1        0.0429
@<TRIPOS>BOND
     1     1     9   ar
     2     1     2   ar
     3     1    46    1
     4     2     3   ar
     5     2    47    1
     6     3     4    1
     7     3     7   ar
     8     4     5    1
     9     4     6    1
    10     4    48    1
    11     5    49    1
    12     5    50    1
    13     5    51    1
    14     6    52    1
    15     6    53    1
    16     6    54    1
    17     7     8   ar
    18     7    55    1
    19     8     9   ar
    20     8    10    1
    21     9    13    1
    22    10    41    1
    23    10    11    1
    24    10    16    1
    25    11    12    1
    26    11    56    1
    27    11    57    1
    28    12    13    1
    29    12    14    1
    30    12    15    1
    31    14    58    1
    32    14    59    1
    33    14    60    1
    34    15    61    1
    35    15    62    1
    36    15    63    1
    37    16    17    1
    38    16    64    1
    39    17    18    1
    40    17    65    1
    41    17    66    1
    42    18    42    1
    43    18    19    1
    44    18    20    1
    45    19    67    1
    46    20    43    1
    47    20    21    1
    48    20    26    1
    49    21    22   am
    50    21    68    1
    51    22    23    2
    52    22    24    1
    53    24    44    1
    54    24    39    1
    55    24    25    1
    56    25    69    1
    57    25    70    1
    58    25    71    1
    59    26    27    1
    60    26    72    1
    61    26    73    1
    62    27    45    1
    63    27    28    1
    64    27    29    1
    65    28    74    1
    66    28    75    1
    67    28    76    1
    68    29    30    1
    69    29    77    1
    70    29    78    1
    71    30    31    1
    72    30    79    1
    73    30    80    1
    74    31    32    1
    75    31    81    1
    76    31    82    1
    77    32    33    1
    78    32    83    1
    79    32    84    1
    80    33    34    1
    81    33    85    1
    82    33    86    1
    83    34    35    1
    84    34    87    1
    85    34    88    1
    86    35    36    1
    87    35    89    1
    88    35    90    1
    89    36    37    1
    90    36    91    1
    91    36    92    1
    92    37    38    2
    93    37    39   am
    94    39    40    1
    95    40    93    1
    96    40    94    1
    97    40    95    1
