@<TRIPOS>MOLECULE
BACE_12.smi:1
 79 82 0 0 0
SMALL
GASTEIGER
****
Structure written by MMmdl.
@<TRIPOS>ATOM
      1 C          30.5862   41.9536  -11.4181 C.3     1  UNL1       -0.0586
      2 C          29.4558   41.6489  -12.4100 C.3     1  UNL1       -0.0215
      3 C          29.9474   41.8152  -13.8588 C.3     1  UNL1       -0.0586
      4 C          28.2118   42.4681  -12.0721 C.ar    1  UNL1       -0.0444
      5 C          28.0226   43.7744  -12.5749 C.ar    1  UNL1       -0.0583
      6 C          26.8942   44.5251  -12.1927 C.ar    1  UNL1       -0.0611
      7 C          25.9509   43.9829  -11.2996 C.ar    1  UNL1       -0.0535
      8 C          26.1180   42.6740  -10.7998 C.ar    1  UNL1       -0.0027
      9 C          27.2507   41.9305  -11.1897 C.ar    1  UNL1       -0.0501
     10 C          25.1270   42.0820   -9.8063 C.3     1  UNL1       -0.0076
     11 N          23.9139   41.5213  -10.4415 N.4     1  UNL1        0.2321
     12 C          23.0266   42.5254  -11.0823 C.3     1  UNL1       -0.0049
     13 C          21.6268   41.9881  -11.4616 C.3     1  UNL1        0.1133
     14 C          20.8858   41.2764  -10.2937 C.3     1  UNL1        0.0583
     15 C          20.6143   39.7665  -10.5157 C.3     1  UNL1       -0.0066
     16 C          19.7974   39.1502   -9.3983 C.ar    1  UNL1       -0.0453
     17 C          20.3352   39.0835   -8.0972 C.ar    1  UNL1       -0.0585
     18 C          19.5538   38.5904   -7.0398 C.ar    1  UNL1       -0.0612
     19 C          18.2416   38.1497   -7.2826 C.ar    1  UNL1       -0.0586
     20 C          17.7040   38.1842   -8.5866 C.ar    1  UNL1       -0.0471
     21 C          18.4877   38.6864   -9.6455 C.ar    1  UNL1       -0.0553
     22 C          16.2820   37.7056   -8.8376 C.3     1  UNL1       -0.0276
     23 C          15.2322   38.6207   -8.1826 C.3     1  UNL1       -0.0476
     24 C          15.1169   40.0008   -8.8518 C.3     1  UNL1       -0.0371
     25 C          14.9349   41.1235   -7.8205 C.3     1  UNL1        0.0104
     26 N          14.7397   42.4275   -8.4434 N.pl3   1  UNL1       -0.3289
     27 C          15.8230   43.2685   -8.7044 C.ar    1  UNL1        0.1232
     28 C          17.1388   42.7806   -8.8283 C.ar    1  UNL1       -0.0095
     29 C          18.1703   43.6804   -9.1561 C.ar    1  UNL1        0.0450
     30 C          17.8527   45.0475   -9.2843 C.ar    1  UNL1        0.0122
     31 C          16.5041   45.4483   -9.1267 C.ar    1  UNL1        0.2168
     32 N          15.5126   44.5720   -8.8604 N.ar    1  UNL1       -0.1981
     33 O          16.0602   46.7460   -9.2418 O.3     1  UNL1       -0.4796
     34 C          17.0316   47.7616   -9.4339 C.3     1  UNL1        0.0804
     35 C          19.5691   43.1886   -9.3736 C.2     1  UNL1        0.2447
     36 O          20.5493   43.8849   -9.1075 O.2     1  UNL1       -0.2702
     37 N          19.6525   41.9793   -9.9504 N.am    1  UNL1       -0.3055
     38 O          21.6600   41.2089  -12.6438 O.3     1  UNL1       -0.3847
     39 H          21.0505   42.8646  -11.7603 H       1  UNL1        0.0666
     40 H          21.4993   41.3514   -9.3951 H       1  UNL1        0.0529
     41 H          30.2775   41.7414  -10.3948 H       1  UNL1        0.0235
     42 H          30.8842   43.0021  -11.4653 H       1  UNL1        0.0235
     43 H          31.4666   41.3504  -11.6396 H       1  UNL1        0.0235
     44 H          29.1910   40.5961  -12.2929 H       1  UNL1        0.0343
     45 H          29.1739   41.5643  -14.5814 H       1  UNL1        0.0235
     46 H          30.7880   41.1490  -14.0552 H       1  UNL1        0.0235
     47 H          30.2904   42.8285  -14.0676 H       1  UNL1        0.0235
     48 H          28.7473   44.2218  -13.2377 H       1  UNL1        0.0620
     49 H          26.7634   45.5284  -12.5693 H       1  UNL1        0.0618
     50 H          25.1047   44.5817  -10.9961 H       1  UNL1        0.0622
     51 H          27.4066   40.9501  -10.7762 H       1  UNL1        0.0625
     52 H          25.6147   41.2700   -9.2658 H       1  UNL1        0.0866
     53 H          24.8512   42.8305   -9.0613 H       1  UNL1        0.0866
     54 H          24.2011   40.8534  -11.1465 H       1  UNL1        0.2018
     55 H          22.8960   43.3550  -10.3858 H       1  UNL1        0.0840
     56 H          23.5094   42.9368  -11.9694 H       1  UNL1        0.0840
     57 H          20.0788   39.6102  -11.4536 H       1  UNL1        0.0332
     58 H          21.5543   39.2203  -10.6051 H       1  UNL1        0.0332
     59 H          21.3372   39.4326   -7.8988 H       1  UNL1        0.0620
     60 H          19.9572   38.5541   -6.0400 H       1  UNL1        0.0618
     61 H          17.6585   37.7664   -6.4585 H       1  UNL1        0.0620
     62 H          18.0740   38.7326  -10.6434 H       1  UNL1        0.0623
     63 H          16.0939   37.6229   -9.9080 H       1  UNL1        0.0313
     64 H          16.1884   36.6953   -8.4403 H       1  UNL1        0.0313
     65 H          14.2501   38.1501   -8.2143 H       1  UNL1        0.0269
     66 H          15.4634   38.7212   -7.1195 H       1  UNL1        0.0269
     67 H          15.9922   40.2001   -9.4672 H       1  UNL1        0.0280
     68 H          14.2713   39.9923   -9.5416 H       1  UNL1        0.0280
     69 H          14.0627   40.8959   -7.2131 H       1  UNL1        0.0461
     70 H          15.7757   41.1577   -7.1256 H       1  UNL1        0.0461
     71 H          13.8340   42.8540   -8.3369 H       1  UNL1        0.1475
     72 H          17.3587   41.7342   -8.6818 H       1  UNL1        0.0659
     73 H          18.6381   45.7509   -9.5165 H       1  UNL1        0.0678
     74 H          16.5350   48.7306   -9.4794 H       1  UNL1        0.0660
     75 H          17.5763   47.6263  -10.3691 H       1  UNL1        0.0660
     76 H          17.7375   47.7928   -8.6031 H       1  UNL1        0.0660
     77 H          18.7849   41.4931  -10.1281 H       1  UNL1        0.1494
     78 H          22.5607   40.9501  -12.8404 H       1  UNL1        0.2101
     79 H          23.3943   41.0294   -9.7291 H       1  UNL1        0.2018
@<TRIPOS>BOND
     1     1     2    1
     2     1    41    1
     3     1    42    1
     4     1    43    1
     5     2     3    1
     6     2     4    1
     7     2    44    1
     8     3    45    1
     9     3    46    1
    10     3    47    1
    11     4     9   ar
    12     4     5   ar
    13     5     6   ar
    14     5    48    1
    15     6     7   ar
    16     6    49    1
    17     7     8   ar
    18     7    50    1
    19     8     9   ar
    20     8    10    1
    21     9    51    1
    22    10    11    1
    23    10    52    1
    24    10    53    1
    25    11    12    1
    26    11    54    1
    27    11    79    1
    28    12    13    1
    29    12    55    1
    30    12    56    1
    31    13    39    1
    32    13    14    1
    33    13    38    1
    34    14    40    1
    35    14    37    1
    36    14    15    1
    37    15    16    1
    38    15    57    1
    39    15    58    1
    40    16    21   ar
    41    16    17   ar
    42    17    18   ar
    43    17    59    1
    44    18    19   ar
    45    18    60    1
    46    19    20   ar
    47    19    61    1
    48    20    21   ar
    49    20    22    1
    50    21    62    1
    51    22    23    1
    52    22    63    1
    53    22    64    1
    54    23    24    1
    55    23    65    1
    56    23    66    1
    57    24    25    1
    58    24    67    1
    59    24    68    1
    60    25    26    1
    61    25    69    1
    62    25    70    1
    63    26    27    1
    64    26    71    1
    65    27    32   ar
    66    27    28   ar
    67    28    29   ar
    68    28    72    1
    69    29    30   ar
    70    29    35    1
    71    30    31   ar
    72    30    73    1
    73    31    32   ar
    74    31    33    1
    75    33    34    1
    76    34    74    1
    77    34    75    1
    78    34    76    1
    79    35    36    2
    80    35    37   am
    81    37    77    1
    82    38    78    1
