@<TRIPOS>MOLECULE
BACE_8.smi:1
 77 79 0 0 0
SMALL
GASTEIGER
****
Structure written by MMmdl.
@<TRIPOS>ATOM
      1 C          20.6292   38.7069   -7.3389 C.3     1  UNL1       -0.0623
      2 C          19.8263   39.0420   -8.6113 C.3     1  UNL1       -0.0400
      3 C          18.9120   37.8676   -9.0314 C.3     1  UNL1       -0.0268
      4 C          17.6740   37.6656   -8.1422 C.3     1  UNL1        0.0479
      5 O          16.7849   38.7514   -8.3409 O.3     1  UNL1       -0.3797
      6 C          15.6299   38.6913   -7.5181 C.3     1  UNL1        0.0477
      7 C          14.7010   39.8692   -7.8528 C.3     1  UNL1       -0.0281
      8 C          15.1950   41.2439   -7.3616 C.3     1  UNL1       -0.0354
      9 C          16.5519   41.6506   -7.9527 C.3     1  UNL1        0.0105
     10 N          16.9009   43.0279   -7.6391 N.pl3   1  UNL1       -0.3290
     11 C          18.2173   43.4153   -7.9122 C.ar    1  UNL1        0.1211
     12 C          18.9274   42.9377   -9.0357 C.ar    1  UNL1       -0.0097
     13 C          20.2313   43.4220   -9.2602 C.ar    1  UNL1        0.0428
     14 C          20.7801   44.3392   -8.3461 C.ar    1  UNL1       -0.0126
     15 C          20.0082   44.7202   -7.2360 C.ar    1  UNL1        0.1320
     16 N          18.7453   44.2916   -7.0384 N.ar    1  UNL1       -0.2208
     17 CL         20.6995   45.7851   -6.0765 Cl      1  UNL1       -0.0619
     18 C          21.0089   43.0055  -10.4686 C.2     1  UNL1        0.2446
     19 O          21.3329   43.8440  -11.2973 O.2     1  UNL1       -0.2702
     20 N          21.3184   41.7103  -10.6201 N.am    1  UNL1       -0.3060
     21 C          21.5527   40.7618   -9.5316 C.3     1  UNL1        0.0508
     22 C          20.7522   39.4556   -9.7776 C.3     1  UNL1       -0.0294
     23 C          23.0832   40.5528   -9.3450 C.3     1  UNL1        0.0859
     24 C          23.8927   41.7566   -8.7924 C.3     1  UNL1        0.0240
     25 N          24.6475   42.4626   -9.8263 N.3     1  UNL1       -0.3095
     26 C          25.7003   41.6519  -10.4332 C.3     1  UNL1        0.0213
     27 C          26.6077   42.4709  -11.3224 C.ar    1  UNL1       -0.0333
     28 C          26.1369   43.6592  -11.9126 C.ar    1  UNL1       -0.0573
     29 C          26.9865   44.4142  -12.7410 C.ar    1  UNL1       -0.0612
     30 C          28.3086   43.9915  -12.9737 C.ar    1  UNL1       -0.0583
     31 C          28.7937   42.8038  -12.3853 C.ar    1  UNL1       -0.0445
     32 C          27.9298   42.0423  -11.5647 C.ar    1  UNL1       -0.0539
     33 C          30.2237   42.3610  -12.6778 C.3     1  UNL1       -0.0215
     34 C          31.2238   43.2484  -11.9247 C.3     1  UNL1       -0.0586
     35 C          30.5618   42.2831  -14.1769 C.3     1  UNL1       -0.0586
     36 O          23.2600   39.4844   -8.4336 O.3     1  UNL1       -0.3887
     37 H          19.1853   39.8953   -8.3941 H       1  UNL1        0.0299
     38 H          21.1839   41.1789   -8.5944 H       1  UNL1        0.0524
     39 H          23.5018   40.2072  -10.2896 H       1  UNL1        0.0624
     40 H          21.3325   37.8940   -7.5162 H       1  UNL1        0.0232
     41 H          19.9783   38.4113   -6.5178 H       1  UNL1        0.0232
     42 H          21.2060   39.5614   -6.9851 H       1  UNL1        0.0232
     43 H          18.5654   38.0104  -10.0554 H       1  UNL1        0.0290
     44 H          19.4954   36.9495   -9.0459 H       1  UNL1        0.0290
     45 H          17.1726   36.7378   -8.4190 H       1  UNL1        0.0560
     46 H          17.9533   37.5787   -7.0925 H       1  UNL1        0.0560
     47 H          15.1042   37.7522   -7.7019 H       1  UNL1        0.0560
     48 H          15.9078   38.7098   -6.4632 H       1  UNL1        0.0560
     49 H          14.5281   39.8977   -8.9282 H       1  UNL1        0.0288
     50 H          13.7269   39.6795   -7.3996 H       1  UNL1        0.0288
     51 H          14.4447   41.9895   -7.6277 H       1  UNL1        0.0281
     52 H          15.2500   41.2461   -6.2726 H       1  UNL1        0.0281
     53 H          17.3305   41.0020   -7.5526 H       1  UNL1        0.0462
     54 H          16.5335   41.5075   -9.0327 H       1  UNL1        0.0462
     55 H          16.5477   43.3769   -6.7571 H       1  UNL1        0.1474
     56 H          18.4946   42.2342   -9.7303 H       1  UNL1        0.0659
     57 H          21.7812   44.7217   -8.4804 H       1  UNL1        0.0655
     58 H          21.7147   41.4506  -11.5129 H       1  UNL1        0.1494
     59 H          21.4218   38.6287  -10.0048 H       1  UNL1        0.0286
     60 H          20.1416   39.5750  -10.6737 H       1  UNL1        0.0286
     61 H          23.2317   42.4546   -8.2808 H       1  UNL1        0.0450
     62 H          24.5880   41.4099   -8.0251 H       1  UNL1        0.0450
     63 H          23.9991   42.7320  -10.5613 H       1  UNL1        0.1223
     64 H          26.2902   41.1639   -9.6552 H       1  UNL1        0.0473
     65 H          25.2808   40.8549  -11.0463 H       1  UNL1        0.0473
     66 H          25.1265   44.0014  -11.7340 H       1  UNL1        0.0621
     67 H          26.6216   45.3223  -13.1946 H       1  UNL1        0.0618
     68 H          28.9495   44.5843  -13.6100 H       1  UNL1        0.0620
     69 H          28.2654   41.1233  -11.1124 H       1  UNL1        0.0623
     70 H          30.3265   41.3473  -12.2895 H       1  UNL1        0.0343
     71 H          31.0622   43.1917  -10.8476 H       1  UNL1        0.0235
     72 H          31.1213   44.2938  -12.2115 H       1  UNL1        0.0235
     73 H          32.2512   42.9413  -12.1190 H       1  UNL1        0.0235
     74 H          29.8475   41.6612  -14.7164 H       1  UNL1        0.0235
     75 H          31.5516   41.8527  -14.3260 H       1  UNL1        0.0235
     76 H          30.5702   43.2643  -14.6464 H       1  UNL1        0.0235
     77 H          23.9343   38.9045   -8.7750 H       1  UNL1        0.2099
@<TRIPOS>BOND
     1     1     2    1
     2     1    40    1
     3     1    41    1
     4     1    42    1
     5     2    37    1
     6     2    22    1
     7     2     3    1
     8     3     4    1
     9     3    43    1
    10     3    44    1
    11     4     5    1
    12     4    45    1
    13     4    46    1
    14     5     6    1
    15     6     7    1
    16     6    47    1
    17     6    48    1
    18     7     8    1
    19     7    49    1
    20     7    50    1
    21     8     9    1
    22     8    51    1
    23     8    52    1
    24     9    10    1
    25     9    53    1
    26     9    54    1
    27    10    11    1
    28    10    55    1
    29    11    16   ar
    30    11    12   ar
    31    12    13   ar
    32    12    56    1
    33    13    14   ar
    34    13    18    1
    35    14    15   ar
    36    14    57    1
    37    15    16   ar
    38    15    17    1
    39    18    19    2
    40    18    20   am
    41    20    21    1
    42    20    58    1
    43    21    38    1
    44    21    22    1
    45    21    23    1
    46    22    59    1
    47    22    60    1
    48    23    39    1
    49    23    24    1
    50    23    36    1
    51    24    25    1
    52    24    61    1
    53    24    62    1
    54    25    26    1
    55    25    63    1
    56    26    27    1
    57    26    64    1
    58    26    65    1
    59    27    32   ar
    60    27    28   ar
    61    28    29   ar
    62    28    66    1
    63    29    30   ar
    64    29    67    1
    65    30    31   ar
    66    30    68    1
    67    31    32   ar
    68    31    33    1
    69    32    69    1
    70    33    34    1
    71    33    35    1
    72    33    70    1
    73    34    71    1
    74    34    72    1
    75    34    73    1
    76    35    74    1
    77    35    75    1
    78    35    76    1
    79    36    77    1
