@<TRIPOS>MOLECULE
BACE_11.smi:1
 81 83 0 0 0
SMALL
GASTEIGER
****
Structure written by MMmdl.
@<TRIPOS>ATOM
      1 C          22.2602   41.6068   -4.3662 C.3     1  UNL1       -0.0379
      2 C          21.7257   41.6602   -5.8130 C.3     1  UNL1        0.0991
      3 C          20.8500   40.4643   -6.2432 C.2     1  UNL1        0.2336
      4 O          21.1809   39.3475   -5.8738 O.2     1  UNL1       -0.2738
      5 N          19.8333   40.6723   -7.1003 N.am    1  UNL1       -0.3080
      6 C          19.0398   39.6703   -7.8313 C.3     1  UNL1        0.0580
      7 C          19.8821   38.7649   -8.7687 C.3     1  UNL1       -0.0065
      8 C          20.5373   39.5586   -9.8894 C.ar    1  UNL1       -0.0421
      9 C          19.9705   39.5705  -11.1807 C.ar    1  UNL1       -0.0583
     10 C          20.5365   40.3731  -12.1892 C.ar    1  UNL1       -0.0580
     11 C          21.6461   41.1927  -11.9038 C.ar    1  UNL1       -0.0199
     12 C          22.2164   41.1970  -10.6080 C.ar    1  UNL1        0.1208
     13 C          21.6825   40.3398   -9.6300 C.ar    1  UNL1       -0.0167
     14 O          23.2570   42.0073  -10.2154 O.3     1  UNL1       -0.4920
     15 C          23.6993   43.0181  -11.1073 C.3     1  UNL1        0.0896
     16 C          24.5910   44.0054  -10.3400 C.3     1  UNL1       -0.0186
     17 C          23.8183   44.9770   -9.4175 C.3     1  UNL1       -0.0495
     18 C          24.1405   44.8279   -7.9165 C.3     1  UNL1       -0.0447
     19 C          23.4066   43.6656   -7.2136 C.3     1  UNL1        0.0242
     20 C          21.9364   43.9482   -6.8306 C.2     1  UNL1        0.2159
     21 O          21.4411   45.0355   -7.1357 O.2     1  UNL1       -0.2756
     22 N          21.2242   43.0110   -6.1500 N.am    1  UNL1       -0.2932
     23 C          19.9188   43.3791   -5.5851 C.3     1  UNL1        0.0039
     24 C          17.9561   38.9472   -6.9754 C.3     1  UNL1        0.1132
     25 C          16.6939   38.5676   -7.7937 C.3     1  UNL1       -0.0049
     26 N          15.4172   38.9500   -7.1326 N.4     1  UNL1        0.2321
     27 C          15.1310   40.3992   -6.9869 C.3     1  UNL1       -0.0076
     28 C          15.5122   41.2223   -8.2100 C.ar    1  UNL1       -0.0027
     29 C          14.8596   40.9975   -9.4402 C.ar    1  UNL1       -0.0535
     30 C          15.2493   41.7087  -10.5882 C.ar    1  UNL1       -0.0611
     31 C          16.2859   42.6567  -10.5127 C.ar    1  UNL1       -0.0583
     32 C          16.9245   42.9181   -9.2804 C.ar    1  UNL1       -0.0444
     33 C          16.5322   42.1947   -8.1315 C.ar    1  UNL1       -0.0501
     34 C          18.0389   43.9539   -9.1880 C.3     1  UNL1       -0.0215
     35 C          17.6491   45.3015   -9.8171 C.3     1  UNL1       -0.0586
     36 C          19.3513   43.4133   -9.7755 C.3     1  UNL1       -0.0586
     37 O          18.4600   37.7501   -6.4321 O.3     1  UNL1       -0.3847
     38 H          22.6049   41.4490   -6.4150 H       1  UNL1        0.0594
     39 H          18.4743   40.3118   -8.5063 H       1  UNL1        0.0529
     40 H          17.6707   39.5722   -6.1395 H       1  UNL1        0.0666
     41 H          22.7230   40.6438   -4.1459 H       1  UNL1        0.0252
     42 H          21.4635   41.7592   -3.6381 H       1  UNL1        0.0252
     43 H          23.0180   42.3714   -4.1931 H       1  UNL1        0.0252
     44 H          19.6384   41.6349   -7.3284 H       1  UNL1        0.1491
     45 H          20.6454   38.2208   -8.2120 H       1  UNL1        0.0332
     46 H          19.2439   38.0001   -9.2126 H       1  UNL1        0.0332
     47 H          19.0981   38.9722  -11.4024 H       1  UNL1        0.0620
     48 H          20.1080   40.3707  -13.1804 H       1  UNL1        0.0619
     49 H          22.0490   41.8024  -12.6978 H       1  UNL1        0.0654
     50 H          22.1376   40.3278   -8.6527 H       1  UNL1        0.0657
     51 H          24.2688   42.5528  -11.9128 H       1  UNL1        0.0696
     52 H          22.8657   43.5601  -11.5561 H       1  UNL1        0.0696
     53 H          25.3548   43.4577   -9.7866 H       1  UNL1        0.0298
     54 H          25.1362   44.5987  -11.0753 H       1  UNL1        0.0298
     55 H          24.0837   45.9938   -9.7102 H       1  UNL1        0.0266
     56 H          22.7432   44.9063   -9.5859 H       1  UNL1        0.0266
     57 H          25.2164   44.7039   -7.7897 H       1  UNL1        0.0270
     58 H          23.9058   45.7634   -7.4059 H       1  UNL1        0.0270
     59 H          23.4672   42.7825   -7.8466 H       1  UNL1        0.0358
     60 H          23.9430   43.4309   -6.2938 H       1  UNL1        0.0358
     61 H          19.1333   43.2701   -6.3280 H       1  UNL1        0.0429
     62 H          19.9037   44.4067   -5.2184 H       1  UNL1        0.0429
     63 H          19.6605   42.7503   -4.7342 H       1  UNL1        0.0429
     64 H          16.7252   39.0013   -8.7918 H       1  UNL1        0.0840
     65 H          16.6654   37.4936   -7.9903 H       1  UNL1        0.0840
     66 H          14.6692   38.5649   -7.6903 H       1  UNL1        0.2018
     67 H          14.0600   40.5087   -6.8399 H       1  UNL1        0.0866
     68 H          15.6183   40.7882   -6.0912 H       1  UNL1        0.0866
     69 H          14.0648   40.2679   -9.5102 H       1  UNL1        0.0622
     70 H          14.7527   41.5191  -11.5265 H       1  UNL1        0.0618
     71 H          16.5856   43.1852  -11.4045 H       1  UNL1        0.0620
     72 H          17.0220   42.3729   -7.1846 H       1  UNL1        0.0625
     73 H          18.2077   44.1554   -8.1315 H       1  UNL1        0.0343
     74 H          16.7314   45.6882   -9.3735 H       1  UNL1        0.0235
     75 H          17.4965   45.2224  -10.8927 H       1  UNL1        0.0235
     76 H          18.4317   46.0441   -9.6562 H       1  UNL1        0.0235
     77 H          19.6633   42.5032   -9.2656 H       1  UNL1        0.0235
     78 H          20.1609   44.1364   -9.6704 H       1  UNL1        0.0235
     79 H          19.2525   43.1777  -10.8358 H       1  UNL1        0.0235
     80 H          17.7456   37.2545   -6.0443 H       1  UNL1        0.2101
     81 H          15.3615   38.4943   -6.2211 H       1  UNL1        0.2018
@<TRIPOS>BOND
     1     1     2    1
     2     1    41    1
     3     1    42    1
     4     1    43    1
     5     2    38    1
     6     2    22    1
     7     2     3    1
     8     3     4    2
     9     3     5   am
    10     5     6    1
    11     5    44    1
    12     6    39    1
    13     6     7    1
    14     6    24    1
    15     7     8    1
    16     7    45    1
    17     7    46    1
    18     8    13   ar
    19     8     9   ar
    20     9    10   ar
    21     9    47    1
    22    10    11   ar
    23    10    48    1
    24    11    12   ar
    25    11    49    1
    26    12    13   ar
    27    12    14    1
    28    13    50    1
    29    14    15    1
    30    15    16    1
    31    15    51    1
    32    15    52    1
    33    16    17    1
    34    16    53    1
    35    16    54    1
    36    17    18    1
    37    17    55    1
    38    17    56    1
    39    18    19    1
    40    18    57    1
    41    18    58    1
    42    19    20    1
    43    19    59    1
    44    19    60    1
    45    20    21    2
    46    20    22   am
    47    22    23    1
    48    23    61    1
    49    23    62    1
    50    23    63    1
    51    24    40    1
    52    24    25    1
    53    24    37    1
    54    25    26    1
    55    25    64    1
    56    25    65    1
    57    26    27    1
    58    26    66    1
    59    26    81    1
    60    27    28    1
    61    27    67    1
    62    27    68    1
    63    28    33   ar
    64    28    29   ar
    65    29    30   ar
    66    29    69    1
    67    30    31   ar
    68    30    70    1
    69    31    32   ar
    70    31    71    1
    71    32    33   ar
    72    32    34    1
    73    33    72    1
    74    34    35    1
    75    34    36    1
    76    34    73    1
    77    35    74    1
    78    35    75    1
    79    35    76    1
    80    36    77    1
    81    36    78    1
    82    36    79    1
    83    37    80    1
