@<TRIPOS>MOLECULE
BACE_3.smi:1
 85 86 0 0 0
SMALL
GASTEIGER
****
Structure written by MMmdl.
@<TRIPOS>ATOM
      1 C          21.3876   40.6486   -7.6381 C.ar    1  UNL1       -0.0573
      2 C          22.0595   41.8444   -7.3244 C.ar    1  UNL1       -0.0612
      3 C          22.0852   42.3144   -5.9966 C.ar    1  UNL1       -0.0583
      4 C          21.4489   41.5821   -4.9670 C.ar    1  UNL1       -0.0445
      5 C          21.4527   42.0617   -3.5163 C.3     1  UNL1       -0.0215
      6 C          22.7562   42.7704   -3.1170 C.3     1  UNL1       -0.0586
      7 C          20.2307   42.9433   -3.2109 C.3     1  UNL1       -0.0586
      8 C          20.7833   40.3823   -5.2934 C.ar    1  UNL1       -0.0539
      9 C          20.7351   39.9188   -6.6252 C.ar    1  UNL1       -0.0333
     10 C          19.9761   38.6502   -6.9655 C.3     1  UNL1        0.0214
     11 N          18.8514   38.9027   -7.8631 N.3     1  UNL1       -0.3071
     12 C          17.5879   38.3235   -7.4015 C.3     1  UNL1        0.0521
     13 C          16.3974   38.5386   -8.3751 C.3     1  UNL1        0.1962
     14 O          15.2654   38.1500   -7.6401 O.3     1  UNL1       -0.3623
     15 O          16.5868   37.6808   -9.4819 O.3     1  UNL1       -0.3623
     16 C          16.1913   40.0137   -8.8552 C.3     1  UNL1        0.0782
     17 N          17.0360   40.2850  -10.0230 N.am    1  UNL1       -0.3058
     18 C          18.0245   41.1866  -10.1061 C.2     1  UNL1        0.2337
     19 O          18.3917   41.8625   -9.1448 O.2     1  UNL1       -0.2738
     20 C          18.6741   41.3478  -11.4941 C.3     1  UNL1        0.0991
     21 C          19.8050   40.3053  -11.6534 C.3     1  UNL1       -0.0379
     22 C          14.7104   40.3706   -9.2158 C.3     1  UNL1       -0.0269
     23 C          14.3618   41.8484   -9.5481 C.3     1  UNL1       -0.0420
     24 C          14.8543   42.2981  -10.9298 C.3     1  UNL1       -0.0624
     25 C          14.7174   42.7971   -8.3759 C.3     1  UNL1       -0.0504
     26 C          14.6448   44.3113   -8.6483 C.3     1  UNL1       -0.0528
     27 C          16.0559   44.8943   -8.8300 C.3     1  UNL1       -0.0530
     28 C          16.0775   46.3590   -9.2835 C.3     1  UNL1       -0.0531
     29 C          17.4940   46.9578   -9.3750 C.3     1  UNL1       -0.0530
     30 C          18.4684   46.1675  -10.2677 C.3     1  UNL1       -0.0526
     31 C          18.0526   46.1097  -11.7491 C.3     1  UNL1       -0.0448
     32 C          18.8598   45.0930  -12.5724 C.3     1  UNL1        0.0242
     33 C          18.3880   43.6419  -12.3567 C.2     1  UNL1        0.2159
     34 O          17.2914   43.3500  -12.8403 O.2     1  UNL1       -0.2756
     35 N          19.1627   42.7359  -11.6982 N.am    1  UNL1       -0.2932
     36 C          20.4585   43.0966  -11.0956 C.3     1  UNL1        0.0039
     37 H          16.4900   40.6347   -8.0121 H       1  UNL1        0.0552
     38 H          17.9263   41.0936  -12.2477 H       1  UNL1        0.0594
     39 H          13.2744   41.8703   -9.6401 H       1  UNL1        0.0299
     40 H          21.3651   40.2946   -8.6582 H       1  UNL1        0.0621
     41 H          22.5520   42.4036   -8.1055 H       1  UNL1        0.0618
     42 H          22.5946   43.2414   -5.7827 H       1  UNL1        0.0620
     43 H          21.3803   41.1720   -2.8869 H       1  UNL1        0.0343
     44 H          23.6279   42.1628   -3.3612 H       1  UNL1        0.0235
     45 H          22.7802   42.9624   -2.0452 H       1  UNL1        0.0235
     46 H          22.8626   43.7338   -3.6140 H       1  UNL1        0.0235
     47 H          19.2981   42.3858   -3.2850 H       1  UNL1        0.0235
     48 H          20.1717   43.7828   -3.9018 H       1  UNL1        0.0235
     49 H          20.2753   43.3474   -2.1992 H       1  UNL1        0.0235
     50 H          20.2746   39.8287   -4.5180 H       1  UNL1        0.0623
     51 H          19.6368   38.1818   -6.0417 H       1  UNL1        0.0473
     52 H          20.6672   37.9449   -7.4292 H       1  UNL1        0.0473
     53 H          18.7361   39.9091   -7.9798 H       1  UNL1        0.1224
     54 H          17.3317   38.7663   -6.4352 H       1  UNL1        0.0477
     55 H          17.7158   37.2564   -7.2229 H       1  UNL1        0.0477
     56 H          15.5206   37.4901   -6.9845 H       1  UNL1        0.2128
     57 H          17.0021   36.8955   -9.1603 H       1  UNL1        0.2128
     58 H          16.8530   39.7012  -10.8256 H       1  UNL1        0.1492
     59 H          19.3938   39.2950  -11.6558 H       1  UNL1        0.0252
     60 H          20.5403   40.3388  -10.8505 H       1  UNL1        0.0252
     61 H          20.3323   40.4412  -12.5989 H       1  UNL1        0.0252
     62 H          14.3715   39.7242  -10.0274 H       1  UNL1        0.0287
     63 H          14.0703   40.1156   -8.3725 H       1  UNL1        0.0287
     64 H          14.2486   43.1120  -11.3271 H       1  UNL1        0.0232
     65 H          14.8068   41.4757  -11.6401 H       1  UNL1        0.0232
     66 H          15.8773   42.6496  -10.8844 H       1  UNL1        0.0232
     67 H          14.0552   42.5516   -7.5473 H       1  UNL1        0.0268
     68 H          15.7112   42.5829   -7.9896 H       1  UNL1        0.0268
     69 H          14.1754   44.8064   -7.7978 H       1  UNL1        0.0265
     70 H          14.0132   44.5261   -9.5094 H       1  UNL1        0.0265
     71 H          16.6035   44.8005   -7.8911 H       1  UNL1        0.0265
     72 H          16.5958   44.2873   -9.5537 H       1  UNL1        0.0265
     73 H          15.5038   46.9495   -8.5762 H       1  UNL1        0.0265
     74 H          15.5685   46.4543  -10.2408 H       1  UNL1        0.0265
     75 H          17.4274   47.9844   -9.7342 H       1  UNL1        0.0265
     76 H          17.9168   47.0162   -8.3706 H       1  UNL1        0.0265
     77 H          18.5906   45.1642   -9.8614 H       1  UNL1        0.0265
     78 H          19.4576   46.6231  -10.1987 H       1  UNL1        0.0265
     79 H          16.9946   45.8678  -11.8420 H       1  UNL1        0.0270
     80 H          18.1645   47.1015  -12.1874 H       1  UNL1        0.0270
     81 H          19.9280   45.2382  -12.4314 H       1  UNL1        0.0358
     82 H          18.6830   45.3164  -13.6253 H       1  UNL1        0.0358
     83 H          20.7197   42.4470  -10.2614 H       1  UNL1        0.0429
     84 H          20.4687   44.0986  -10.6731 H       1  UNL1        0.0429
     85 H          21.2590   43.0235  -11.8306 H       1  UNL1        0.0429
@<TRIPOS>BOND
     1     1     9   ar
     2     1     2   ar
     3     1    40    1
     4     2     3   ar
     5     2    41    1
     6     3     4   ar
     7     3    42    1
     8     4     5    1
     9     4     8   ar
    10     5     6    1
    11     5     7    1
    12     5    43    1
    13     6    44    1
    14     6    45    1
    15     6    46    1
    16     7    47    1
    17     7    48    1
    18     7    49    1
    19     8     9   ar
    20     8    50    1
    21     9    10    1
    22    10    11    1
    23    10    51    1
    24    10    52    1
    25    11    12    1
    26    11    53    1
    27    12    13    1
    28    12    54    1
    29    12    55    1
    30    13    14    1
    31    13    15    1
    32    13    16    1
    33    14    56    1
    34    15    57    1
    35    16    37    1
    36    16    17    1
    37    16    22    1
    38    17    18   am
    39    17    58    1
    40    18    19    2
    41    18    20    1
    42    20    38    1
    43    20    35    1
    44    20    21    1
    45    21    59    1
    46    21    60    1
    47    21    61    1
    48    22    23    1
    49    22    62    1
    50    22    63    1
    51    23    39    1
    52    23    24    1
    53    23    25    1
    54    24    64    1
    55    24    65    1
    56    24    66    1
    57    25    26    1
    58    25    67    1
    59    25    68    1
    60    26    27    1
    61    26    69    1
    62    26    70    1
    63    27    28    1
    64    27    71    1
    65    27    72    1
    66    28    29    1
    67    28    73    1
    68    28    74    1
    69    29    30    1
    70    29    75    1
    71    29    76    1
    72    30    31    1
    73    30    77    1
    74    30    78    1
    75    31    32    1
    76    31    79    1
    77    31    80    1
    78    32    33    1
    79    32    81    1
    80    32    82    1
    81    33    34    2
    82    33    35   am
    83    35    36    1
    84    36    83    1
    85    36    84    1
    86    36    85    1
