@<TRIPOS>MOLECULE
BACE_14.smi:1
 86 90 0 0 0
SMALL
GASTEIGER
****
Structure written by MMmdl.
@<TRIPOS>ATOM
      1 C          21.6935   38.4348   -8.7012 C.3     1  UNL1       -0.0586
      2 C          20.9072   39.6463   -8.1802 C.3     1  UNL1       -0.0215
      3 C          21.6778   40.9620   -8.3760 C.3     1  UNL1       -0.0586
      4 C          19.5367   39.6988   -8.8288 C.ar    1  UNL1       -0.0443
      5 C          19.4053   39.5274  -10.2193 C.ar    1  UNL1       -0.0583
      6 C          18.1290   39.4332  -10.7918 C.ar    1  UNL1       -0.0610
      7 C          16.9772   39.5136   -9.9886 C.ar    1  UNL1       -0.0529
      8 C          17.0983   39.7731   -8.6054 C.ar    1  UNL1        0.0034
      9 C          18.3849   39.8501   -8.0322 C.ar    1  UNL1       -0.0495
     10 C          15.8870   39.9905   -7.7521 C.3     1  UNL1        0.0145
     11 C          15.7490   39.3478   -6.4011 C.3     1  UNL1        0.0032
     12 C          14.8757   38.8854   -7.5431 C.3     1  UNL1        0.0032
     13 N          15.2624   41.3403   -7.8060 N.4     1  UNL1        0.2365
     14 C          16.1539   42.5323   -7.8843 C.3     1  UNL1       -0.0044
     15 C          16.7615   42.8400   -9.2787 C.3     1  UNL1        0.1133
     16 C          17.8342   43.9635   -9.2969 C.3     1  UNL1        0.0583
     17 C          18.5803   43.9860  -10.6575 C.3     1  UNL1       -0.0065
     18 C          19.6966   45.0089  -10.7655 C.ar    1  UNL1       -0.0421
     19 C          19.3968   46.3455  -11.0923 C.ar    1  UNL1       -0.0583
     20 C          20.4338   47.2858  -11.2236 C.ar    1  UNL1       -0.0580
     21 C          21.7726   46.9003  -11.0126 C.ar    1  UNL1       -0.0199
     22 C          22.0858   45.5633  -10.6663 C.ar    1  UNL1        0.1208
     23 C          21.0380   44.6250  -10.5572 C.ar    1  UNL1       -0.0167
     24 O          23.3616   45.0969  -10.4262 O.3     1  UNL1       -0.4920
     25 C          24.4450   46.0145  -10.2963 C.3     1  UNL1        0.0896
     26 C          24.3809   46.8037   -8.9731 C.3     1  UNL1       -0.0172
     27 C          24.3214   45.8973   -7.7334 C.3     1  UNL1       -0.0344
     28 C          24.0040   46.6795   -6.4441 C.3     1  UNL1        0.0092
     29 N          23.6296   45.8112   -5.3324 N.pl3   1  UNL1       -0.3438
     30 C          22.4853   45.0056   -5.4387 C.ar    1  UNL1        0.0285
     31 C          21.3970   45.3289   -6.2846 C.ar    1  UNL1       -0.0287
     32 C          20.3127   44.4395   -6.4317 C.ar    1  UNL1        0.0391
     33 C          20.2932   43.2470   -5.6808 C.ar    1  UNL1       -0.0390
     34 C          21.3340   42.9508   -4.7750 C.ar    1  UNL1        0.0196
     35 C          22.4415   43.8189   -4.6817 C.ar    1  UNL1       -0.0303
     36 C          21.2803   41.7212   -3.9547 C.2     1  UNL1        0.1602
     37 O          20.8559   40.6425   -4.3606 O.2     1  UNL1       -0.2924
     38 C          21.7523   41.8566   -2.5091 C.3     1  UNL1       -0.0014
     39 C          19.1816   44.7857   -7.3557 C.2     1  UNL1        0.2445
     40 O          18.7024   45.9203   -7.3573 O.2     1  UNL1       -0.2702
     41 N          18.7967   43.8098   -8.1967 N.am    1  UNL1       -0.3055
     42 O          15.7061   43.2172  -10.1451 O.3     1  UNL1       -0.3847
     43 H          17.2369   41.9763   -9.7151 H       1  UNL1        0.0666
     44 H          17.3155   44.9184   -9.1804 H       1  UNL1        0.0529
     45 H          22.4747   38.1630   -8.0046 H       1  UNL1        0.0235
     46 H          22.1465   38.6251   -9.6751 H       1  UNL1        0.0235
     47 H          21.0519   37.5616   -8.8126 H       1  UNL1        0.0235
     48 H          20.7550   39.4961   -7.1100 H       1  UNL1        0.0343
     49 H          22.6433   40.9301   -7.8721 H       1  UNL1        0.0235
     50 H          21.1240   41.8060   -7.9747 H       1  UNL1        0.0235
     51 H          21.8593   41.1643   -9.4309 H       1  UNL1        0.0235
     52 H          20.2782   39.4293  -10.8466 H       1  UNL1        0.0620
     53 H          18.0601   39.2809  -11.8568 H       1  UNL1        0.0618
     54 H          16.0010   39.4252  -10.4456 H       1  UNL1        0.0622
     55 H          18.4879   40.0084   -6.9672 H       1  UNL1        0.0625
     56 H          16.5400   38.6768   -6.0734 H       1  UNL1        0.0329
     57 H          15.2589   39.9027   -5.6052 H       1  UNL1        0.0329
     58 H          13.8191   39.1332   -7.4667 H       1  UNL1        0.0329
     59 H          15.0949   37.8975   -7.9443 H       1  UNL1        0.0329
     60 H          14.7525   41.4280   -6.9333 H       1  UNL1        0.2023
     61 H          16.9087   42.4371   -7.1050 H       1  UNL1        0.0840
     62 H          15.5523   43.4067   -7.6395 H       1  UNL1        0.0840
     63 H          19.0059   43.0006  -10.8681 H       1  UNL1        0.0332
     64 H          17.8684   44.1756  -11.4643 H       1  UNL1        0.0332
     65 H          18.3743   46.6517  -11.2483 H       1  UNL1        0.0620
     66 H          20.2020   48.3077  -11.4841 H       1  UNL1        0.0619
     67 H          22.5418   47.6475  -11.1181 H       1  UNL1        0.0654
     68 H          21.2739   43.6032  -10.2948 H       1  UNL1        0.0657
     69 H          25.3635   45.4274  -10.3170 H       1  UNL1        0.0696
     70 H          24.5065   46.6787  -11.1590 H       1  UNL1        0.0696
     71 H          25.2472   47.4606   -8.8969 H       1  UNL1        0.0298
     72 H          23.5089   47.4556   -8.9821 H       1  UNL1        0.0298
     73 H          23.5554   45.1435   -7.9045 H       1  UNL1        0.0281
     74 H          25.2563   45.3496   -7.6169 H       1  UNL1        0.0281
     75 H          24.8804   47.2571   -6.1483 H       1  UNL1        0.0461
     76 H          23.2137   47.4088   -6.6134 H       1  UNL1        0.0461
     77 H          24.3861   45.4532   -4.7613 H       1  UNL1        0.1461
     78 H          21.4024   46.2436   -6.8573 H       1  UNL1        0.0643
     79 H          19.4523   42.5784   -5.7719 H       1  UNL1        0.0632
     80 H          23.2704   43.5743   -4.0302 H       1  UNL1        0.0643
     81 H          21.5884   42.8677   -2.1392 H       1  UNL1        0.0309
     82 H          22.8134   41.6330   -2.4418 H       1  UNL1        0.0309
     83 H          21.2101   41.1704   -1.8610 H       1  UNL1        0.0309
     84 H          19.2727   42.9222   -8.1171 H       1  UNL1        0.1494
     85 H          15.2500   42.4420  -10.4365 H       1  UNL1        0.2101
     86 H          14.5918   41.3571   -8.5587 H       1  UNL1        0.2023
@<TRIPOS>BOND
     1     1     2    1
     2     1    45    1
     3     1    46    1
     4     1    47    1
     5     2     3    1
     6     2     4    1
     7     2    48    1
     8     3    49    1
     9     3    50    1
    10     3    51    1
    11     4     9   ar
    12     4     5   ar
    13     5     6   ar
    14     5    52    1
    15     6     7   ar
    16     6    53    1
    17     7     8   ar
    18     7    54    1
    19     8     9   ar
    20     8    10    1
    21     9    55    1
    22    10    12    1
    23    10    11    1
    24    10    13    1
    25    11    12    1
    26    11    56    1
    27    11    57    1
    28    12    58    1
    29    12    59    1
    30    13    14    1
    31    13    60    1
    32    13    86    1
    33    14    15    1
    34    14    61    1
    35    14    62    1
    36    15    43    1
    37    15    16    1
    38    15    42    1
    39    16    44    1
    40    16    41    1
    41    16    17    1
    42    17    18    1
    43    17    63    1
    44    17    64    1
    45    18    23   ar
    46    18    19   ar
    47    19    20   ar
    48    19    65    1
    49    20    21   ar
    50    20    66    1
    51    21    22   ar
    52    21    67    1
    53    22    23   ar
    54    22    24    1
    55    23    68    1
    56    24    25    1
    57    25    26    1
    58    25    69    1
    59    25    70    1
    60    26    27    1
    61    26    71    1
    62    26    72    1
    63    27    28    1
    64    27    73    1
    65    27    74    1
    66    28    29    1
    67    28    75    1
    68    28    76    1
    69    29    30    1
    70    29    77    1
    71    30    35   ar
    72    30    31   ar
    73    31    32   ar
    74    31    78    1
    75    32    33   ar
    76    32    39    1
    77    33    34   ar
    78    33    79    1
    79    34    35   ar
    80    34    36    1
    81    35    80    1
    82    36    37    2
    83    36    38    1
    84    38    81    1
    85    38    82    1
    86    38    83    1
    87    39    40    2
    88    39    41   am
    89    41    84    1
    90    42    85    1
