@<TRIPOS>MOLECULE
BACE_16.smi:1
 85 88 0 0 0
SMALL
GASTEIGER
****
Structure written by MMmdl.
@<TRIPOS>ATOM
      1 C          31.8681   42.1552  -13.9147 C.3     1  UNL1       -0.0586
      2 C          30.4157   41.9809  -14.3817 C.3     1  UNL1       -0.0215
      3 C          30.2862   42.1499  -15.9023 C.3     1  UNL1       -0.0586
      4 C          29.4725   42.9181  -13.6393 C.ar    1  UNL1       -0.0444
      5 C          29.5681   44.3156  -13.8176 C.ar    1  UNL1       -0.0583
      6 C          28.6812   45.1794  -13.1496 C.ar    1  UNL1       -0.0611
      7 C          27.6930   44.6516  -12.2985 C.ar    1  UNL1       -0.0535
      8 C          27.5861   43.2570  -12.1161 C.ar    1  UNL1       -0.0027
      9 C          28.4832   42.3956  -12.7803 C.ar    1  UNL1       -0.0501
     10 C          26.5416   42.6988  -11.1708 C.3     1  UNL1       -0.0076
     11 N          25.1640   42.9613  -11.6433 N.4     1  UNL1        0.2321
     12 C          24.1867   42.9605  -10.5317 C.3     1  UNL1       -0.0049
     13 C          22.7180   43.2087  -10.9534 C.3     1  UNL1        0.1133
     14 C          21.7308   43.4632   -9.7580 C.3     1  UNL1        0.0583
     15 C          22.1358   42.8444   -8.3804 C.3     1  UNL1       -0.0065
     16 C          21.6775   41.4077   -8.1361 C.ar    1  UNL1       -0.0421
     17 C          22.5113   40.3104   -8.4433 C.ar    1  UNL1       -0.0583
     18 C          22.0596   38.9965   -8.2288 C.ar    1  UNL1       -0.0580
     19 C          20.7807   38.7679   -7.6948 C.ar    1  UNL1       -0.0199
     20 C          19.9365   39.8528   -7.3668 C.ar    1  UNL1        0.1208
     21 C          20.4000   41.1648   -7.5836 C.ar    1  UNL1       -0.0167
     22 O          18.6714   39.7286   -6.8424 O.3     1  UNL1       -0.4920
     23 C          18.0889   38.4412   -6.6840 C.3     1  UNL1        0.0897
     24 C          17.5802   37.9147   -8.0337 C.3     1  UNL1       -0.0156
     25 C          16.3016   38.6326   -8.4930 C.3     1  UNL1       -0.0156
     26 C          16.1072   38.5396  -10.0111 C.3     1  UNL1        0.0897
     27 O          17.0744   39.3493  -10.6812 O.3     1  UNL1       -0.4918
     28 C          16.9282   40.7180  -10.6652 C.ar    1  UNL1        0.1247
     29 C          18.1063   41.4765  -10.7636 C.ar    1  UNL1       -0.0076
     30 C          18.0757   42.8874  -10.6838 C.ar    1  UNL1        0.0436
     31 C          16.8231   43.5385  -10.5861 C.ar    1  UNL1       -0.0076
     32 C          15.6207   42.7986  -10.5204 C.ar    1  UNL1        0.1253
     33 C          15.6864   41.3826  -10.5558 C.ar    1  UNL1        0.0218
     34 O          14.4311   43.4937  -10.4079 O.3     1  UNL1       -0.4844
     35 C          13.2250   42.7319  -10.4021 C.3     1  UNL1        0.1470
     36 C          12.0399   43.6345  -10.0735 C.2     1  UNL1        0.1673
     37 O          11.0831   43.7499  -10.8400 O.2     1  UNL1       -0.2941
     38 C          12.0804   44.3895   -8.7523 C.3     1  UNL1       -0.0026
     39 C          19.3614   43.6694  -10.6668 C.2     1  UNL1        0.2446
     40 O          19.4351   44.8171  -11.1019 O.2     1  UNL1       -0.2702
     41 N          20.3694   43.0232  -10.0664 N.am    1  UNL1       -0.3055
     42 O          22.2473   42.1405  -11.7507 O.3     1  UNL1       -0.3847
     43 H          22.6868   44.0918  -11.5949 H       1  UNL1        0.0666
     44 H          21.7165   44.5440   -9.6070 H       1  UNL1        0.0529
     45 H          31.9659   41.9610  -12.8458 H       1  UNL1        0.0235
     46 H          32.2361   43.1647  -14.1055 H       1  UNL1        0.0235
     47 H          32.5252   41.4608  -14.4396 H       1  UNL1        0.0235
     48 H          30.1274   40.9537  -14.1451 H       1  UNL1        0.0343
     49 H          29.2607   41.9752  -16.2285 H       1  UNL1        0.0235
     50 H          30.9178   41.4308  -16.4282 H       1  UNL1        0.0235
     51 H          30.5812   43.1475  -16.2314 H       1  UNL1        0.0235
     52 H          30.3233   44.7298  -14.4683 H       1  UNL1        0.0620
     53 H          28.7673   46.2477  -13.2825 H       1  UNL1        0.0618
     54 H          27.0316   45.3270  -11.7774 H       1  UNL1        0.0622
     55 H          28.4183   41.3264  -12.6309 H       1  UNL1        0.0625
     56 H          26.6799   41.6246  -11.0253 H       1  UNL1        0.0866
     57 H          26.7072   43.1658  -10.1975 H       1  UNL1        0.0866
     58 H          25.1475   43.8709  -12.0852 H       1  UNL1        0.2018
     59 H          24.2840   42.0086  -10.0144 H       1  UNL1        0.0840
     60 H          24.4860   43.7431   -9.8293 H       1  UNL1        0.0840
     61 H          23.1989   42.9339   -8.1617 H       1  UNL1        0.0332
     62 H          21.6647   43.4466   -7.6040 H       1  UNL1        0.0332
     63 H          23.5034   40.4515   -8.8369 H       1  UNL1        0.0620
     64 H          22.6937   38.1557   -8.4688 H       1  UNL1        0.0619
     65 H          20.4651   37.7502   -7.5492 H       1  UNL1        0.0654
     66 H          19.7530   41.9916   -7.3305 H       1  UNL1        0.0657
     67 H          18.7767   37.7497   -6.1983 H       1  UNL1        0.0696
     68 H          17.2483   38.5486   -5.9980 H       1  UNL1        0.0696
     69 H          18.3610   38.0130   -8.7864 H       1  UNL1        0.0299
     70 H          17.3747   36.8469   -7.9599 H       1  UNL1        0.0299
     71 H          15.4472   38.1880   -7.9796 H       1  UNL1        0.0299
     72 H          16.3199   39.6784   -8.1865 H       1  UNL1        0.0299
     73 H          16.2633   37.5080  -10.3231 H       1  UNL1        0.0696
     74 H          15.0831   38.7667  -10.3034 H       1  UNL1        0.0696
     75 H          19.0424   40.9452  -10.8546 H       1  UNL1        0.0662
     76 H          16.7818   44.6180  -10.5316 H       1  UNL1        0.0662
     77 H          14.7841   40.8013  -10.5008 H       1  UNL1        0.0691
     78 H          13.0717   42.2583  -11.3733 H       1  UNL1        0.0777
     79 H          13.2625   41.9519   -9.6399 H       1  UNL1        0.0777
     80 H          13.1088   44.5760   -8.4451 H       1  UNL1        0.0307
     81 H          11.5950   43.7989   -7.9757 H       1  UNL1        0.0307
     82 H          11.5549   45.3400   -8.8410 H       1  UNL1        0.0307
     83 H          20.1574   42.0859   -9.7510 H       1  UNL1        0.1494
     84 H          22.9548   41.7100  -12.2177 H       1  UNL1        0.2101
     85 H          24.9181   42.2575  -12.3314 H       1  UNL1        0.2018
@<TRIPOS>BOND
     1     1     2    1
     2     1    45    1
     3     1    46    1
     4     1    47    1
     5     2     3    1
     6     2     4    1
     7     2    48    1
     8     3    49    1
     9     3    50    1
    10     3    51    1
    11     4     9   ar
    12     4     5   ar
    13     5     6   ar
    14     5    52    1
    15     6     7   ar
    16     6    53    1
    17     7     8   ar
    18     7    54    1
    19     8     9   ar
    20     8    10    1
    21     9    55    1
    22    10    11    1
    23    10    56    1
    24    10    57    1
    25    11    12    1
    26    11    58    1
    27    11    85    1
    28    12    13    1
    29    12    59    1
    30    12    60    1
    31    13    43    1
    32    13    14    1
    33    13    42    1
    34    14    44    1
    35    14    41    1
    36    14    15    1
    37    15    16    1
    38    15    61    1
    39    15    62    1
    40    16    21   ar
    41    16    17   ar
    42    17    18   ar
    43    17    63    1
    44    18    19   ar
    45    18    64    1
    46    19    20   ar
    47    19    65    1
    48    20    21   ar
    49    20    22    1
    50    21    66    1
    51    22    23    1
    52    23    24    1
    53    23    67    1
    54    23    68    1
    55    24    25    1
    56    24    69    1
    57    24    70    1
    58    25    26    1
    59    25    71    1
    60    25    72    1
    61    26    27    1
    62    26    73    1
    63    26    74    1
    64    27    28    1
    65    28    33   ar
    66    28    29   ar
    67    29    30   ar
    68    29    75    1
    69    30    31   ar
    70    30    39    1
    71    31    32   ar
    72    31    76    1
    73    32    33   ar
    74    32    34    1
    75    33    77    1
    76    34    35    1
    77    35    36    1
    78    35    78    1
    79    35    79    1
    80    36    37    2
    81    36    38    1
    82    38    80    1
    83    38    81    1
    84    38    82    1
    85    39    40    2
    86    39    41   am
    87    41    83    1
    88    42    84    1
