@<TRIPOS>MOLECULE
BACE_16.smi:1
 84 87 0 0 0
SMALL
GASTEIGER
****
Structure written by MMmdl.
@<TRIPOS>ATOM
      1 C          22.8286   42.9633   -3.6328 C.3     1  UNL1       -0.0586
      2 C          21.4288   42.4238   -3.9509 C.3     1  UNL1       -0.0215
      3 C          21.1099   41.1623   -3.1307 C.3     1  UNL1       -0.0586
      4 C          21.2293   42.1858   -5.4424 C.ar    1  UNL1       -0.0445
      5 C          20.2107   42.8787   -6.1302 C.ar    1  UNL1       -0.0583
      6 C          19.9601   42.6068   -7.4881 C.ar    1  UNL1       -0.0612
      7 C          20.7418   41.6594   -8.1734 C.ar    1  UNL1       -0.0573
      8 C          21.7981   40.9945   -7.5114 C.ar    1  UNL1       -0.0333
      9 C          22.0272   41.2537   -6.1418 C.ar    1  UNL1       -0.0539
     10 C          22.6749   39.9794   -8.2335 C.3     1  UNL1        0.0213
     11 N          22.8599   40.2085   -9.6729 N.3     1  UNL1       -0.3095
     12 C          23.4204   41.5134  -10.0796 C.3     1  UNL1        0.0240
     13 C          24.7938   41.8374   -9.4544 C.3     1  UNL1        0.0862
     14 C          25.2270   43.3169   -9.6911 C.3     1  UNL1        0.0545
     15 C          26.1293   43.5807  -10.9335 C.3     1  UNL1       -0.0066
     16 C          27.6349   43.4498  -10.6945 C.ar    1  UNL1       -0.0421
     17 C          28.3187   42.2802  -11.0863 C.ar    1  UNL1       -0.0583
     18 C          29.6966   42.1497  -10.8399 C.ar    1  UNL1       -0.0580
     19 C          30.4049   43.1839  -10.1962 C.ar    1  UNL1       -0.0199
     20 C          29.7416   44.3802   -9.8207 C.ar    1  UNL1        0.1208
     21 C          28.3615   44.5016  -10.0930 C.ar    1  UNL1       -0.0167
     22 O          30.3512   45.4688   -9.2308 O.3     1  UNL1       -0.4920
     23 C          31.5915   45.3060   -8.5474 C.3     1  UNL1        0.0897
     24 C          31.3548   44.8215   -7.1077 C.3     1  UNL1       -0.0156
     25 C          30.7988   45.9347   -6.1990 C.3     1  UNL1       -0.0156
     26 C          30.4353   45.4460   -4.7859 C.3     1  UNL1        0.0897
     27 O          29.3282   44.5501   -4.8382 O.3     1  UNL1       -0.4918
     28 C          28.0934   45.1074   -5.0815 C.ar    1  UNL1        0.1247
     29 C          27.2857   44.5151   -6.0696 C.ar    1  UNL1       -0.0076
     30 C          26.0093   45.0329   -6.3740 C.ar    1  UNL1        0.0436
     31 C          25.5252   46.1375   -5.6407 C.ar    1  UNL1       -0.0076
     32 C          26.3064   46.7267   -4.6145 C.ar    1  UNL1        0.1253
     33 C          27.5951   46.2152   -4.3571 C.ar    1  UNL1        0.0218
     34 O          25.8674   47.7576   -3.8092 O.3     1  UNL1       -0.4844
     35 C          24.5302   48.2070   -3.9859 C.3     1  UNL1        0.1470
     36 C          24.1354   49.1474   -2.8467 C.2     1  UNL1        0.1673
     37 O          24.4904   48.9503   -1.6848 O.2     1  UNL1       -0.2941
     38 C          23.2062   50.3063   -3.1894 C.3     1  UNL1       -0.0026
     39 C          25.1517   44.3979   -7.4327 C.2     1  UNL1        0.2446
     40 O          23.9242   44.4254   -7.3577 O.2     1  UNL1       -0.2702
     41 N          25.8173   43.8843   -8.4786 N.am    1  UNL1       -0.3057
     42 O          25.7197   40.9497  -10.0400 O.3     1  UNL1       -0.3887
     43 H          24.7634   41.6465   -8.3837 H       1  UNL1        0.0624
     44 H          24.3103   43.8803   -9.8762 H       1  UNL1        0.0527
     45 H          23.0349   43.8787   -4.1914 H       1  UNL1        0.0235
     46 H          23.6115   42.2434   -3.8745 H       1  UNL1        0.0235
     47 H          22.9003   43.1991   -2.5715 H       1  UNL1        0.0235
     48 H          20.7180   43.1919   -3.6421 H       1  UNL1        0.0343
     49 H          20.0923   40.8198   -3.3270 H       1  UNL1        0.0235
     50 H          21.1943   41.3583   -2.0614 H       1  UNL1        0.0235
     51 H          21.7879   40.3428   -3.3724 H       1  UNL1        0.0235
     52 H          19.5885   43.5905   -5.6095 H       1  UNL1        0.0620
     53 H          19.1565   43.1161   -8.0036 H       1  UNL1        0.0618
     54 H          20.5364   41.4521   -9.2131 H       1  UNL1        0.0621
     55 H          22.8094   40.7213   -5.6230 H       1  UNL1        0.0623
     56 H          23.6407   39.9135   -7.7316 H       1  UNL1        0.0473
     57 H          22.2106   39.0020   -8.0929 H       1  UNL1        0.0473
     58 H          23.4484   39.4645  -10.0393 H       1  UNL1        0.1223
     59 H          23.4885   41.5611  -11.1660 H       1  UNL1        0.0450
     60 H          22.7185   42.3011   -9.8047 H       1  UNL1        0.0450
     61 H          25.8246   42.9460  -11.7687 H       1  UNL1        0.0332
     62 H          25.9574   44.6012  -11.2770 H       1  UNL1        0.0332
     63 H          27.7881   41.4686  -11.5637 H       1  UNL1        0.0620
     64 H          30.2071   41.2473  -11.1424 H       1  UNL1        0.0619
     65 H          31.4583   43.0352  -10.0262 H       1  UNL1        0.0654
     66 H          27.8535   45.4128   -9.8134 H       1  UNL1        0.0657
     67 H          32.2949   44.6641   -9.0738 H       1  UNL1        0.0696
     68 H          32.0807   46.2796   -8.5204 H       1  UNL1        0.0696
     69 H          30.6871   43.9595   -7.1146 H       1  UNL1        0.0299
     70 H          32.2983   44.4670   -6.6907 H       1  UNL1        0.0299
     71 H          31.5451   46.7259   -6.1151 H       1  UNL1        0.0299
     72 H          29.9281   46.3963   -6.6668 H       1  UNL1        0.0299
     73 H          31.2853   44.9189   -4.3532 H       1  UNL1        0.0696
     74 H          30.2514   46.2941   -4.1273 H       1  UNL1        0.0696
     75 H          27.6602   43.6529   -6.5989 H       1  UNL1        0.0662
     76 H          24.5376   46.5083   -5.8689 H       1  UNL1        0.0662
     77 H          28.1782   46.6568   -3.5637 H       1  UNL1        0.0691
     78 H          24.4350   48.7174   -4.9437 H       1  UNL1        0.0777
     79 H          23.8430   47.3615   -3.9718 H       1  UNL1        0.0777
     80 H          23.0607   50.3840   -4.2672 H       1  UNL1        0.0307
     81 H          23.6274   51.2449   -2.8276 H       1  UNL1        0.0307
     82 H          22.2321   50.1618   -2.7171 H       1  UNL1        0.0307
     83 H          26.8268   43.9235   -8.4630 H       1  UNL1        0.1494
     84 H          25.4161   40.0604   -9.9146 H       1  UNL1        0.2099
@<TRIPOS>BOND
     1     1     2    1
     2     1    45    1
     3     1    46    1
     4     1    47    1
     5     2     3    1
     6     2     4    1
     7     2    48    1
     8     3    49    1
     9     3    50    1
    10     3    51    1
    11     4     9   ar
    12     4     5   ar
    13     5     6   ar
    14     5    52    1
    15     6     7   ar
    16     6    53    1
    17     7     8   ar
    18     7    54    1
    19     8     9   ar
    20     8    10    1
    21     9    55    1
    22    10    11    1
    23    10    56    1
    24    10    57    1
    25    11    12    1
    26    11    58    1
    27    12    13    1
    28    12    59    1
    29    12    60    1
    30    13    43    1
    31    13    14    1
    32    13    42    1
    33    14    44    1
    34    14    41    1
    35    14    15    1
    36    15    16    1
    37    15    61    1
    38    15    62    1
    39    16    21   ar
    40    16    17   ar
    41    17    18   ar
    42    17    63    1
    43    18    19   ar
    44    18    64    1
    45    19    20   ar
    46    19    65    1
    47    20    21   ar
    48    20    22    1
    49    21    66    1
    50    22    23    1
    51    23    24    1
    52    23    67    1
    53    23    68    1
    54    24    25    1
    55    24    69    1
    56    24    70    1
    57    25    26    1
    58    25    71    1
    59    25    72    1
    60    26    27    1
    61    26    73    1
    62    26    74    1
    63    27    28    1
    64    28    33   ar
    65    28    29   ar
    66    29    30   ar
    67    29    75    1
    68    30    31   ar
    69    30    39    1
    70    31    32   ar
    71    31    76    1
    72    32    33   ar
    73    32    34    1
    74    33    77    1
    75    34    35    1
    76    35    36    1
    77    35    78    1
    78    35    79    1
    79    36    37    2
    80    36    38    1
    81    38    80    1
    82    38    81    1
    83    38    82    1
    84    39    40    2
    85    39    41   am
    86    41    83    1
    87    42    84    1
