@<TRIPOS>MOLECULE
BACE_8.smi:1
 77 79 0 0 0
SMALL
GASTEIGER
****
Structure written by MMmdl.
@<TRIPOS>ATOM
      1 C          20.5277   38.9237   -7.4621 C.3     1  UNL1       -0.0623
      2 C          19.7896   39.1856   -8.7929 C.3     1  UNL1       -0.0400
      3 C          19.0022   37.9312   -9.2415 C.3     1  UNL1       -0.0268
      4 C          17.7777   37.6117   -8.3754 C.3     1  UNL1        0.0479
      5 O          16.8383   38.6636   -8.5171 O.3     1  UNL1       -0.3797
      6 C          15.7648   38.5500   -7.5980 C.3     1  UNL1        0.0477
      7 C          14.7620   39.6841   -7.7951 C.3     1  UNL1       -0.0281
      8 C          15.2549   41.0418   -7.2771 C.3     1  UNL1       -0.0354
      9 C          16.5097   41.5515   -7.9873 C.3     1  UNL1        0.0105
     10 N          16.7867   42.9323   -7.6402 N.pl3   1  UNL1       -0.3290
     11 C          18.0532   43.4403   -7.9268 C.ar    1  UNL1        0.1211
     12 C          18.8095   42.9848   -9.0259 C.ar    1  UNL1       -0.0097
     13 C          20.0475   43.5966   -9.2915 C.ar    1  UNL1        0.0428
     14 C          20.4921   44.6198   -8.4315 C.ar    1  UNL1       -0.0126
     15 C          19.6831   44.9788   -7.3354 C.ar    1  UNL1        0.1320
     16 N          18.4801   44.4151   -7.0991 N.ar    1  UNL1       -0.2208
     17 CL         20.2228   46.2091   -6.2512 Cl      1  UNL1       -0.0619
     18 C          20.8244   43.2355  -10.5222 C.2     1  UNL1        0.2446
     19 O          21.0604   44.0990  -11.3629 O.2     1  UNL1       -0.2702
     20 N          21.2279   41.9642  -10.6928 N.am    1  UNL1       -0.3060
     21 C          21.5120   40.9761   -9.6452 C.3     1  UNL1        0.0508
     22 C          20.7320   39.6603   -9.9251 C.3     1  UNL1       -0.0294
     23 C          23.0434   40.7214   -9.5936 C.3     1  UNL1        0.0859
     24 C          23.9239   41.9888   -9.5144 C.3     1  UNL1        0.0240
     25 N          25.2831   41.7506   -9.9964 N.3     1  UNL1       -0.3095
     26 C          26.0067   43.0015  -10.2032 C.3     1  UNL1        0.0213
     27 C          27.5107   42.8508  -10.3293 C.ar    1  UNL1       -0.0333
     28 C          28.0860   41.8362  -11.1192 C.ar    1  UNL1       -0.0573
     29 C          29.4874   41.7504  -11.2459 C.ar    1  UNL1       -0.0612
     30 C          30.3192   42.6848  -10.5948 C.ar    1  UNL1       -0.0583
     31 C          29.7523   43.7075   -9.8048 C.ar    1  UNL1       -0.0445
     32 C          28.3474   43.7825   -9.6811 C.ar    1  UNL1       -0.0539
     33 C          30.6151   44.7641   -9.1200 C.3     1  UNL1       -0.0215
     34 C          31.0834   45.8318  -10.1210 C.3     1  UNL1       -0.0586
     35 C          31.8005   44.1630   -8.3482 C.3     1  UNL1       -0.0586
     36 O          23.3248   39.9652   -8.4394 O.3     1  UNL1       -0.3887
     37 H          19.0769   39.9904   -8.6258 H       1  UNL1        0.0299
     38 H          21.2086   41.3825   -8.6802 H       1  UNL1        0.0524
     39 H          23.3261   40.1501  -10.4765 H       1  UNL1        0.0624
     40 H          21.2877   38.1497   -7.5741 H       1  UNL1        0.0232
     41 H          19.8474   38.6117   -6.6736 H       1  UNL1        0.0232
     42 H          21.0193   39.8217   -7.0875 H       1  UNL1        0.0232
     43 H          18.6612   38.0550  -10.2717 H       1  UNL1        0.0290
     44 H          19.6718   37.0726   -9.2461 H       1  UNL1        0.0290
     45 H          17.3230   36.6750   -8.7015 H       1  UNL1        0.0560
     46 H          18.0624   37.4740   -7.3319 H       1  UNL1        0.0560
     47 H          15.2600   37.6032   -7.7701 H       1  UNL1        0.0560
     48 H          16.1321   38.5509   -6.5720 H       1  UNL1        0.0560
     49 H          14.4757   39.7530   -8.8451 H       1  UNL1        0.0288
     50 H          13.8556   39.4166   -7.2499 H       1  UNL1        0.0288
     51 H          14.4593   41.7686   -7.4079 H       1  UNL1        0.0281
     52 H          15.4322   40.9807   -6.2007 H       1  UNL1        0.0281
     53 H          17.3604   40.9412   -7.6912 H       1  UNL1        0.0462
     54 H          16.3868   41.4647   -9.0658 H       1  UNL1        0.0462
     55 H          16.3459   43.2501   -6.7774 H       1  UNL1        0.1474
     56 H          18.4344   42.2202   -9.6904 H       1  UNL1        0.0659
     57 H          21.4341   45.1190   -8.6059 H       1  UNL1        0.0655
     58 H          21.6470   41.7623  -11.5886 H       1  UNL1        0.1494
     59 H          21.4262   38.8526  -10.1591 H       1  UNL1        0.0286
     60 H          20.1367   39.7822  -10.8308 H       1  UNL1        0.0286
     61 H          23.4977   42.7773  -10.1310 H       1  UNL1        0.0450
     62 H          23.9367   42.3875   -8.4992 H       1  UNL1        0.0450
     63 H          25.2239   41.2466  -10.8791 H       1  UNL1        0.1223
     64 H          25.6312   43.5081  -11.0915 H       1  UNL1        0.0473
     65 H          25.8113   43.6742   -9.3667 H       1  UNL1        0.0473
     66 H          27.4622   41.1153  -11.6253 H       1  UNL1        0.0621
     67 H          29.9208   40.9661  -11.8486 H       1  UNL1        0.0618
     68 H          31.3892   42.6204  -10.7214 H       1  UNL1        0.0620
     69 H          27.9051   44.5751   -9.0910 H       1  UNL1        0.0623
     70 H          29.9880   45.2671   -8.3804 H       1  UNL1        0.0343
     71 H          30.2329   46.3088  -10.6052 H       1  UNL1        0.0235
     72 H          31.7127   45.3978  -10.9001 H       1  UNL1        0.0235
     73 H          31.6605   46.6102   -9.6232 H       1  UNL1        0.0235
     74 H          31.4754   43.3725   -7.6711 H       1  UNL1        0.0235
     75 H          32.2987   44.9220   -7.7461 H       1  UNL1        0.0235
     76 H          32.5476   43.7502   -9.0250 H       1  UNL1        0.0235
     77 H          24.0747   39.4222   -8.6453 H       1  UNL1        0.2099
@<TRIPOS>BOND
     1     1     2    1
     2     1    40    1
     3     1    41    1
     4     1    42    1
     5     2    37    1
     6     2    22    1
     7     2     3    1
     8     3     4    1
     9     3    43    1
    10     3    44    1
    11     4     5    1
    12     4    45    1
    13     4    46    1
    14     5     6    1
    15     6     7    1
    16     6    47    1
    17     6    48    1
    18     7     8    1
    19     7    49    1
    20     7    50    1
    21     8     9    1
    22     8    51    1
    23     8    52    1
    24     9    10    1
    25     9    53    1
    26     9    54    1
    27    10    11    1
    28    10    55    1
    29    11    16   ar
    30    11    12   ar
    31    12    13   ar
    32    12    56    1
    33    13    14   ar
    34    13    18    1
    35    14    15   ar
    36    14    57    1
    37    15    16   ar
    38    15    17    1
    39    18    19    2
    40    18    20   am
    41    20    21    1
    42    20    58    1
    43    21    38    1
    44    21    22    1
    45    21    23    1
    46    22    59    1
    47    22    60    1
    48    23    39    1
    49    23    24    1
    50    23    36    1
    51    24    25    1
    52    24    61    1
    53    24    62    1
    54    25    26    1
    55    25    63    1
    56    26    27    1
    57    26    64    1
    58    26    65    1
    59    27    32   ar
    60    27    28   ar
    61    28    29   ar
    62    28    66    1
    63    29    30   ar
    64    29    67    1
    65    30    31   ar
    66    30    68    1
    67    31    32   ar
    68    31    33    1
    69    32    69    1
    70    33    34    1
    71    33    35    1
    72    33    70    1
    73    34    71    1
    74    34    72    1
    75    34    73    1
    76    35    74    1
    77    35    75    1
    78    35    76    1
    79    36    77    1
