@<TRIPOS>MOLECULE
BACE_16.smi:1
 84 87 0 0 0
SMALL
GASTEIGER
****
Structure written by MMmdl.
@<TRIPOS>ATOM
      1 C          27.2178   49.9097   -0.9171 C.3     1  UNL1       -0.0586
      2 C          25.7663   50.1265   -0.4431 C.3     1  UNL1       -0.0215
      3 C          25.4289   49.1957    0.7301 C.3     1  UNL1       -0.0586
      4 C          24.7437   49.9908   -1.5689 C.ar    1  UNL1       -0.0445
      5 C          23.6629   50.8960   -1.6416 C.ar    1  UNL1       -0.0583
      6 C          22.7052   50.7840   -2.6686 C.ar    1  UNL1       -0.0612
      7 C          22.8311   49.7737   -3.6429 C.ar    1  UNL1       -0.0573
      8 C          23.9079   48.8670   -3.5858 C.ar    1  UNL1       -0.0333
      9 C          24.8510   48.9669   -2.5401 C.ar    1  UNL1       -0.0539
     10 C          24.0410   47.7725   -4.6263 C.3     1  UNL1        0.0213
     11 N          23.2601   46.5959   -4.2605 N.3     1  UNL1       -0.3095
     12 C          23.5576   45.4181   -5.0737 C.3     1  UNL1        0.0240
     13 C          22.5760   45.2773   -6.2608 C.3     1  UNL1        0.0862
     14 C          21.5858   44.0909   -6.0922 C.3     1  UNL1        0.0545
     15 C          22.2330   42.6737   -6.1019 C.3     1  UNL1       -0.0066
     16 C          22.4074   42.0361   -7.4789 C.ar    1  UNL1       -0.0421
     17 C          23.6478   42.1025   -8.1409 C.ar    1  UNL1       -0.0583
     18 C          23.7931   41.5483   -9.4259 C.ar    1  UNL1       -0.0580
     19 C          22.7045   40.9158  -10.0512 C.ar    1  UNL1       -0.0199
     20 C          21.4583   40.8021   -9.3871 C.ar    1  UNL1        0.1208
     21 C          21.3291   41.3613   -8.0971 C.ar    1  UNL1       -0.0167
     22 O          20.3443   40.1730   -9.9049 O.3     1  UNL1       -0.4920
     23 C          20.3058   39.8335  -11.2908 C.3     1  UNL1        0.0897
     24 C          19.9706   41.0712  -12.1411 C.3     1  UNL1       -0.0156
     25 C          18.5081   41.5143  -11.9727 C.3     1  UNL1       -0.0156
     26 C          18.2152   42.8883  -12.6034 C.3     1  UNL1        0.0897
     27 O          18.7562   43.9424  -11.8093 O.3     1  UNL1       -0.4918
     28 C          18.1570   44.1773  -10.5890 C.ar    1  UNL1        0.1247
     29 C          18.9954   44.4392   -9.4896 C.ar    1  UNL1       -0.0076
     30 C          18.4589   44.6361   -8.1930 C.ar    1  UNL1        0.0436
     31 C          17.0577   44.6209   -8.0221 C.ar    1  UNL1       -0.0076
     32 C          16.2048   44.3810   -9.1175 C.ar    1  UNL1        0.1253
     33 C          16.7568   44.1670  -10.3971 C.ar    1  UNL1        0.0218
     34 O          14.8441   44.3796   -8.9298 O.3     1  UNL1       -0.4844
     35 C          14.2325   43.0938   -8.9870 C.3     1  UNL1        0.1470
     36 C          13.3560   42.9743  -10.2367 C.2     1  UNL1        0.1673
     37 O          13.8387   42.9464  -11.3693 O.2     1  UNL1       -0.2941
     38 C          11.8490   42.8691  -10.0408 C.3     1  UNL1       -0.0026
     39 C          19.3664   44.8455   -7.0120 C.2     1  UNL1        0.2446
     40 O          19.0293   45.5244   -6.0406 O.2     1  UNL1       -0.2702
     41 N          20.5243   44.1753   -7.0896 N.am    1  UNL1       -0.3057
     42 O          23.3212   45.1127   -7.4485 O.3     1  UNL1       -0.3887
     43 H          22.0143   46.2059   -6.3813 H       1  UNL1        0.0624
     44 H          21.1273   44.2188   -5.1080 H       1  UNL1        0.0527
     45 H          27.4587   50.5506   -1.7636 H       1  UNL1        0.0235
     46 H          27.4021   48.8771   -1.2134 H       1  UNL1        0.0235
     47 H          27.9199   50.1455   -0.1170 H       1  UNL1        0.0235
     48 H          25.7096   51.1521   -0.0746 H       1  UNL1        0.0343
     49 H          24.4229   49.3812    1.1018 H       1  UNL1        0.0235
     50 H          26.1170   49.3494    1.5618 H       1  UNL1        0.0235
     51 H          25.4893   48.1489    0.4325 H       1  UNL1        0.0235
     52 H          23.5619   51.6778   -0.9051 H       1  UNL1        0.0620
     53 H          21.8747   51.4717   -2.7101 H       1  UNL1        0.0618
     54 H          22.0959   49.6946   -4.4285 H       1  UNL1        0.0621
     55 H          25.6630   48.2570   -2.5005 H       1  UNL1        0.0623
     56 H          23.7316   48.1492   -5.6021 H       1  UNL1        0.0473
     57 H          25.0992   47.5148   -4.7099 H       1  UNL1        0.0473
     58 H          22.2888   46.8270   -4.4402 H       1  UNL1        0.1223
     59 H          24.5964   45.4351   -5.4104 H       1  UNL1        0.0450
     60 H          23.4824   44.5380   -4.4382 H       1  UNL1        0.0450
     61 H          23.1866   42.6670   -5.5756 H       1  UNL1        0.0332
     62 H          21.5921   42.0043   -5.5250 H       1  UNL1        0.0332
     63 H          24.5007   42.5736   -7.6712 H       1  UNL1        0.0620
     64 H          24.7448   41.6042   -9.9345 H       1  UNL1        0.0619
     65 H          22.8630   40.5126  -11.0405 H       1  UNL1        0.0654
     66 H          20.3808   41.2861   -7.5858 H       1  UNL1        0.0657
     67 H          21.2219   39.3463  -11.6250 H       1  UNL1        0.0696
     68 H          19.5269   39.0829  -11.4279 H       1  UNL1        0.0696
     69 H          20.6424   41.8902  -11.8861 H       1  UNL1        0.0299
     70 H          20.1537   40.8433  -13.1917 H       1  UNL1        0.0299
     71 H          17.8641   40.7639  -12.4299 H       1  UNL1        0.0299
     72 H          18.2358   41.5193  -10.9172 H       1  UNL1        0.0299
     73 H          18.6666   42.9355  -13.5940 H       1  UNL1        0.0696
     74 H          17.1479   43.0167  -12.7740 H       1  UNL1        0.0696
     75 H          20.0644   44.4538   -9.6513 H       1  UNL1        0.0662
     76 H          16.6296   44.7634   -7.0414 H       1  UNL1        0.0662
     77 H          16.0911   44.0219  -11.2301 H       1  UNL1        0.0691
     78 H          14.9728   42.2935   -8.9798 H       1  UNL1        0.0777
     79 H          13.6172   42.9678   -8.0965 H       1  UNL1        0.0777
     80 H          11.5480   43.3240   -9.0970 H       1  UNL1        0.0307
     81 H          11.5433   41.8207  -10.0387 H       1  UNL1        0.0307
     82 H          11.3289   43.3768  -10.8520 H       1  UNL1        0.0307
     83 H          20.6741   43.6227   -7.9224 H       1  UNL1        0.1494
     84 H          23.5959   44.2107   -7.5087 H       1  UNL1        0.2099
@<TRIPOS>BOND
     1     1     2    1
     2     1    45    1
     3     1    46    1
     4     1    47    1
     5     2     3    1
     6     2     4    1
     7     2    48    1
     8     3    49    1
     9     3    50    1
    10     3    51    1
    11     4     9   ar
    12     4     5   ar
    13     5     6   ar
    14     5    52    1
    15     6     7   ar
    16     6    53    1
    17     7     8   ar
    18     7    54    1
    19     8     9   ar
    20     8    10    1
    21     9    55    1
    22    10    11    1
    23    10    56    1
    24    10    57    1
    25    11    12    1
    26    11    58    1
    27    12    13    1
    28    12    59    1
    29    12    60    1
    30    13    43    1
    31    13    14    1
    32    13    42    1
    33    14    44    1
    34    14    41    1
    35    14    15    1
    36    15    16    1
    37    15    61    1
    38    15    62    1
    39    16    21   ar
    40    16    17   ar
    41    17    18   ar
    42    17    63    1
    43    18    19   ar
    44    18    64    1
    45    19    20   ar
    46    19    65    1
    47    20    21   ar
    48    20    22    1
    49    21    66    1
    50    22    23    1
    51    23    24    1
    52    23    67    1
    53    23    68    1
    54    24    25    1
    55    24    69    1
    56    24    70    1
    57    25    26    1
    58    25    71    1
    59    25    72    1
    60    26    27    1
    61    26    73    1
    62    26    74    1
    63    27    28    1
    64    28    33   ar
    65    28    29   ar
    66    29    30   ar
    67    29    75    1
    68    30    31   ar
    69    30    39    1
    70    31    32   ar
    71    31    76    1
    72    32    33   ar
    73    32    34    1
    74    33    77    1
    75    34    35    1
    76    35    36    1
    77    35    78    1
    78    35    79    1
    79    36    37    2
    80    36    38    1
    81    38    80    1
    82    38    81    1
    83    38    82    1
    84    39    40    2
    85    39    41   am
    86    41    83    1
    87    42    84    1
