@<TRIPOS>MOLECULE
BACE_14.smi:1
 86 90 0 0 0
SMALL
GASTEIGER
****
Structure written by MMmdl.
@<TRIPOS>ATOM
      1 C          21.9432   38.7173   -7.4737 C.3     1  UNL1       -0.0586
      2 C          21.1180   39.9834   -7.7245 C.3     1  UNL1       -0.0215
      3 C          21.9399   41.0693   -8.4359 C.3     1  UNL1       -0.0586
      4 C          19.8183   39.6771   -8.4573 C.ar    1  UNL1       -0.0443
      5 C          19.8219   39.2102   -9.7875 C.ar    1  UNL1       -0.0583
      6 C          18.6040   38.9463  -10.4414 C.ar    1  UNL1       -0.0610
      7 C          17.3774   39.1584   -9.7831 C.ar    1  UNL1       -0.0529
      8 C          17.3580   39.6418   -8.4584 C.ar    1  UNL1        0.0034
      9 C          18.5861   39.8645   -7.8004 C.ar    1  UNL1       -0.0495
     10 C          16.0642   39.9368   -7.7507 C.3     1  UNL1        0.0145
     11 C          15.7921   39.3507   -6.3993 C.3     1  UNL1        0.0032
     12 C          14.9887   38.8889   -7.5925 C.3     1  UNL1        0.0032
     13 N          15.4974   41.3024   -7.8953 N.4     1  UNL1        0.2365
     14 C          16.4410   42.4443   -7.9229 C.3     1  UNL1       -0.0044
     15 C          17.0502   42.7049   -9.3226 C.3     1  UNL1        0.1133
     16 C          18.1156   43.8286   -9.3726 C.3     1  UNL1        0.0583
     17 C          18.8984   43.8120  -10.7116 C.3     1  UNL1       -0.0065
     18 C          20.0033   44.8529  -10.8079 C.ar    1  UNL1       -0.0421
     19 C          19.6877   46.1881  -11.1255 C.ar    1  UNL1       -0.0583
     20 C          20.7095   47.1517  -11.2109 C.ar    1  UNL1       -0.0580
     21 C          22.0489   46.7883  -10.9738 C.ar    1  UNL1       -0.0199
     22 C          22.3815   45.4510  -10.6423 C.ar    1  UNL1        0.1208
     23 C          21.3497   44.4923  -10.5798 C.ar    1  UNL1       -0.0167
     24 O          23.6585   45.0035  -10.3730 O.3     1  UNL1       -0.4920
     25 C          24.7168   45.9415  -10.1782 C.3     1  UNL1        0.0896
     26 C          24.5929   46.6997   -8.8411 C.3     1  UNL1       -0.0172
     27 C          24.5210   45.7707   -7.6208 C.3     1  UNL1       -0.0344
     28 C          24.1839   46.5324   -6.3233 C.3     1  UNL1        0.0092
     29 N          23.7700   45.6476   -5.2396 N.pl3   1  UNL1       -0.3438
     30 C          22.5999   44.8823   -5.3550 C.ar    1  UNL1        0.0285
     31 C          21.5696   45.2052   -6.2673 C.ar    1  UNL1       -0.0287
     32 C          20.4581   44.3540   -6.4226 C.ar    1  UNL1        0.0391
     33 C          20.3526   43.1967   -5.6253 C.ar    1  UNL1       -0.0390
     34 C          21.3258   42.9154   -4.6449 C.ar    1  UNL1        0.0196
     35 C          22.4598   43.7456   -4.5332 C.ar    1  UNL1       -0.0303
     36 C          21.1673   41.7446   -3.7537 C.2     1  UNL1        0.1602
     37 O          20.8290   40.6251   -4.1321 O.2     1  UNL1       -0.2924
     38 C          21.3918   42.0125   -2.2709 C.3     1  UNL1       -0.0014
     39 C          19.3915   44.7050   -7.4110 C.2     1  UNL1        0.2445
     40 O          18.9287   45.8452   -7.4601 O.2     1  UNL1       -0.2702
     41 N          19.0452   43.7132   -8.2458 N.am    1  UNL1       -0.3055
     42 O          15.9770   43.0466  -10.1790 O.3     1  UNL1       -0.3847
     43 H          17.5130   41.8079   -9.7197 H       1  UNL1        0.0666
     44 H          17.5934   44.7845   -9.2932 H       1  UNL1        0.0529
     45 H          22.8365   38.9500   -6.8947 H       1  UNL1        0.0235
     46 H          22.2585   38.2508   -8.4076 H       1  UNL1        0.0235
     47 H          21.3691   37.9860   -6.9033 H       1  UNL1        0.0235
     48 H          20.8526   40.3832   -6.7475 H       1  UNL1        0.0343
     49 H          22.8349   41.3199   -7.8658 H       1  UNL1        0.0235
     50 H          21.3605   41.9846   -8.5443 H       1  UNL1        0.0235
     51 H          22.2600   40.7506   -9.4276 H       1  UNL1        0.0235
     52 H          20.7546   39.0480  -10.3065 H       1  UNL1        0.0620
     53 H          18.6098   38.5851  -11.4590 H       1  UNL1        0.0618
     54 H          16.4530   38.9610  -10.3053 H       1  UNL1        0.0622
     55 H          18.5815   40.1925   -6.7739 H       1  UNL1        0.0625
     56 H          16.5347   38.6542   -6.0218 H       1  UNL1        0.0329
     57 H          15.2721   39.9382   -5.6433 H       1  UNL1        0.0329
     58 H          13.9416   39.1894   -7.6149 H       1  UNL1        0.0329
     59 H          15.1921   37.8809   -7.9485 H       1  UNL1        0.0329
     60 H          14.8953   41.4384   -7.0901 H       1  UNL1        0.2023
     61 H          17.1979   42.2868   -7.1564 H       1  UNL1        0.0840
     62 H          15.8899   43.3405   -7.6404 H       1  UNL1        0.0840
     63 H          19.3418   42.8274  -10.8683 H       1  UNL1        0.0332
     64 H          18.2138   43.9660  -11.5461 H       1  UNL1        0.0332
     65 H          18.6623   46.4777  -11.3043 H       1  UNL1        0.0620
     66 H          20.4659   48.1753  -11.4563 H       1  UNL1        0.0619
     67 H          22.8024   47.5562  -11.0471 H       1  UNL1        0.0654
     68 H          21.5994   43.4704  -10.3368 H       1  UNL1        0.0657
     69 H          25.6501   45.3770  -10.1756 H       1  UNL1        0.0696
     70 H          24.7944   46.6263  -11.0219 H       1  UNL1        0.0696
     71 H          25.4428   47.3732   -8.7299 H       1  UNL1        0.0298
     72 H          23.7084   47.3343   -8.8590 H       1  UNL1        0.0298
     73 H          23.7649   45.0113   -7.8180 H       1  UNL1        0.0281
     74 H          25.4586   45.2300   -7.4998 H       1  UNL1        0.0281
     75 H          25.0584   47.0939   -5.9945 H       1  UNL1        0.0461
     76 H          23.4035   47.2732   -6.4984 H       1  UNL1        0.0461
     77 H          24.4913   45.3010   -4.6140 H       1  UNL1        0.1461
     78 H          21.6379   46.0839   -6.8915 H       1  UNL1        0.0643
     79 H          19.4965   42.5502   -5.7293 H       1  UNL1        0.0632
     80 H          23.2349   43.5063   -3.8175 H       1  UNL1        0.0643
     81 H          21.0278   43.0064   -2.0100 H       1  UNL1        0.0309
     82 H          22.4535   41.9656   -2.0468 H       1  UNL1        0.0309
     83 H          20.8634   41.2815   -1.6577 H       1  UNL1        0.0309
     84 H          19.5116   42.8271   -8.1215 H       1  UNL1        0.1494
     85 H          16.3019   43.0624  -11.0684 H       1  UNL1        0.2101
     86 H          14.9292   41.3448   -8.7291 H       1  UNL1        0.2023
@<TRIPOS>BOND
     1     1     2    1
     2     1    45    1
     3     1    46    1
     4     1    47    1
     5     2     3    1
     6     2     4    1
     7     2    48    1
     8     3    49    1
     9     3    50    1
    10     3    51    1
    11     4     9   ar
    12     4     5   ar
    13     5     6   ar
    14     5    52    1
    15     6     7   ar
    16     6    53    1
    17     7     8   ar
    18     7    54    1
    19     8     9   ar
    20     8    10    1
    21     9    55    1
    22    10    12    1
    23    10    11    1
    24    10    13    1
    25    11    12    1
    26    11    56    1
    27    11    57    1
    28    12    58    1
    29    12    59    1
    30    13    14    1
    31    13    60    1
    32    13    86    1
    33    14    15    1
    34    14    61    1
    35    14    62    1
    36    15    43    1
    37    15    16    1
    38    15    42    1
    39    16    44    1
    40    16    41    1
    41    16    17    1
    42    17    18    1
    43    17    63    1
    44    17    64    1
    45    18    23   ar
    46    18    19   ar
    47    19    20   ar
    48    19    65    1
    49    20    21   ar
    50    20    66    1
    51    21    22   ar
    52    21    67    1
    53    22    23   ar
    54    22    24    1
    55    23    68    1
    56    24    25    1
    57    25    26    1
    58    25    69    1
    59    25    70    1
    60    26    27    1
    61    26    71    1
    62    26    72    1
    63    27    28    1
    64    27    73    1
    65    27    74    1
    66    28    29    1
    67    28    75    1
    68    28    76    1
    69    29    30    1
    70    29    77    1
    71    30    35   ar
    72    30    31   ar
    73    31    32   ar
    74    31    78    1
    75    32    33   ar
    76    32    39    1
    77    33    34   ar
    78    33    79    1
    79    34    35   ar
    80    34    36    1
    81    35    80    1
    82    36    37    2
    83    36    38    1
    84    38    81    1
    85    38    82    1
    86    38    83    1
    87    39    40    2
    88    39    41   am
    89    41    84    1
    90    42    85    1
