@<TRIPOS>MOLECULE
BACE_17.smi:1
 62 64 0 0 0
SMALL
GASTEIGER
****
Structure written by MMmdl.
@<TRIPOS>ATOM
      1 C          21.6157   43.6959   -6.6065 C.3     1  UNL1        0.0031
      2 N          20.9672   44.9427   -6.1797 N.am    1  UNL1       -0.3036
      3 C          21.7902   45.7379   -5.2704 C.3     1  UNL1        0.0031
      4 C          19.7200   45.3308   -6.5523 C.2     1  UNL1        0.2463
      5 O          19.0703   46.1895   -5.9486 O.2     1  UNL1       -0.2700
      6 C          19.1280   44.6847   -7.7747 C.ar    1  UNL1        0.0410
      7 C          19.8842   44.5765   -8.9655 C.ar    1  UNL1       -0.0078
      8 C          17.8113   44.1788   -7.7414 C.ar    1  UNL1       -0.0373
      9 C          17.2940   43.4931   -8.8580 C.ar    1  UNL1        0.0409
     10 C          18.0780   43.3495  -10.0217 C.ar    1  UNL1       -0.0078
     11 C          19.3861   43.8625  -10.0792 C.ar    1  UNL1        0.1219
     12 C          15.9635   42.8222   -8.7801 C.2     1  UNL1        0.2445
     13 O          14.9180   43.4531   -8.6244 O.2     1  UNL1       -0.2702
     14 N          16.0645   41.4937   -8.8908 N.am    1  UNL1       -0.3056
     15 C          15.0052   40.4971   -8.8505 C.3     1  UNL1        0.0554
     16 C          14.8550   39.8872   -7.4170 C.3     1  UNL1        0.0968
     17 O          14.4570   38.5477   -7.4380 O.3     1  UNL1       -0.3877
     18 C          16.0432   39.9243   -6.4511 C.3     1  UNL1        0.0719
     19 O          17.0369   38.9503   -6.7411 O.3     1  UNL1       -0.3924
     20 C          15.2509   39.4852  -10.0006 C.3     1  UNL1       -0.0066
     21 C          16.5714   38.7406   -9.8961 C.ar    1  UNL1       -0.0421
     22 C          17.7841   39.3483  -10.2968 C.ar    1  UNL1       -0.0167
     23 C          19.0190   38.6923  -10.0709 C.ar    1  UNL1        0.1208
     24 C          19.0067   37.4298   -9.4550 C.ar    1  UNL1       -0.0199
     25 C          17.8014   36.7892   -9.1214 C.ar    1  UNL1       -0.0580
     26 C          16.5828   37.4391   -9.3557 C.ar    1  UNL1       -0.0583
     27 O          20.2571   39.2009  -10.3980 O.3     1  UNL1       -0.4920
     28 C          20.3265   40.5083  -10.9409 C.3     1  UNL1        0.0897
     29 C          21.8029   40.9115  -11.0575 C.3     1  UNL1       -0.0156
     30 C          22.0527   42.2296  -11.8102 C.3     1  UNL1       -0.0156
     31 C          21.5380   43.4903  -11.0934 C.3     1  UNL1        0.0897
     32 O          20.1194   43.5969  -11.2163 O.3     1  UNL1       -0.4919
     33 H          14.0599   40.9863   -9.0897 H       1  UNL1        0.0528
     34 H          14.0639   40.4411   -6.9166 H       1  UNL1        0.0635
     35 H          22.2258   43.2728   -5.8063 H       1  UNL1        0.0428
     36 H          22.2736   43.8784   -7.4566 H       1  UNL1        0.0428
     37 H          20.8963   42.9223   -6.8847 H       1  UNL1        0.0428
     38 H          22.6553   46.1290   -5.8060 H       1  UNL1        0.0428
     39 H          22.1614   45.1180   -4.4552 H       1  UNL1        0.0428
     40 H          21.2629   46.5890   -4.8404 H       1  UNL1        0.0428
     41 H          20.8713   45.0126   -8.9981 H       1  UNL1        0.0662
     42 H          17.2190   44.2534   -6.8398 H       1  UNL1        0.0633
     43 H          17.6936   42.7970  -10.8670 H       1  UNL1        0.0662
     44 H          16.9987   41.1134   -8.9457 H       1  UNL1        0.1494
     45 H          14.5095   38.2052   -6.5517 H       1  UNL1        0.2100
     46 H          16.4591   40.9245   -6.4414 H       1  UNL1        0.0583
     47 H          15.6601   39.7494   -5.4471 H       1  UNL1        0.0583
     48 H          16.6440   38.0857   -6.6406 H       1  UNL1        0.2095
     49 H          14.4323   38.7676  -10.0384 H       1  UNL1        0.0332
     50 H          15.2251   40.0043  -10.9591 H       1  UNL1        0.0332
     51 H          17.7497   40.3252  -10.7513 H       1  UNL1        0.0657
     52 H          19.9479   36.9499   -9.2402 H       1  UNL1        0.0654
     53 H          17.8100   35.8159   -8.6546 H       1  UNL1        0.0619
     54 H          15.6629   36.9564   -9.0623 H       1  UNL1        0.0620
     55 H          19.8406   40.5359  -11.9174 H       1  UNL1        0.0696
     56 H          19.8139   41.1980  -10.2744 H       1  UNL1        0.0696
     57 H          22.2495   40.9574  -10.0637 H       1  UNL1        0.0299
     58 H          22.3363   40.1246  -11.5876 H       1  UNL1        0.0299
     59 H          23.1310   42.3400  -11.9284 H       1  UNL1        0.0299
     60 H          21.6599   42.1502  -12.8220 H       1  UNL1        0.0299
     61 H          21.8953   43.4478  -10.0651 H       1  UNL1        0.0696
     62 H          21.9794   44.3784  -11.5454 H       1  UNL1        0.0696
@<TRIPOS>BOND
     1     1     2    1
     2     1    35    1
     3     1    36    1
     4     1    37    1
     5     2     3    1
     6     2     4   am
     7     3    38    1
     8     3    39    1
     9     3    40    1
    10     4     5    2
    11     4     6    1
    12     6     7   ar
    13     6     8   ar
    14     7    11   ar
    15     7    41    1
    16     8     9   ar
    17     8    42    1
    18     9    10   ar
    19     9    12    1
    20    10    11   ar
    21    10    43    1
    22    11    32    1
    23    12    13    2
    24    12    14   am
    25    14    15    1
    26    14    44    1
    27    15    33    1
    28    15    16    1
    29    15    20    1
    30    16    34    1
    31    16    17    1
    32    16    18    1
    33    17    45    1
    34    18    19    1
    35    18    46    1
    36    18    47    1
    37    19    48    1
    38    20    21    1
    39    20    49    1
    40    20    50    1
    41    21    26   ar
    42    21    22   ar
    43    22    23   ar
    44    22    51    1
    45    23    24   ar
    46    23    27    1
    47    24    25   ar
    48    24    52    1
    49    25    26   ar
    50    25    53    1
    51    26    54    1
    52    27    28    1
    53    28    29    1
    54    28    55    1
    55    28    56    1
    56    29    30    1
    57    29    57    1
    58    29    58    1
    59    30    31    1
    60    30    59    1
    61    30    60    1
    62    31    32    1
    63    31    61    1
    64    31    62    1
