@<TRIPOS>MOLECULE
BACE_6.smi:1
 82 84 0 0 0
SMALL
GASTEIGER
****
Structure written by MMmdl.
@<TRIPOS>ATOM
      1 C          26.6920   44.8331   -6.2233 C.3     1  UNL1       -0.0493
      2 C          25.7654   45.7833   -6.9939 C.3     1  UNL1        0.0121
      3 N          24.4108   45.2187   -7.1113 N.am    1  UNL1       -0.2978
      4 C          24.2184   44.3728   -8.3090 C.3     1  UNL1        0.0150
      5 C          23.9417   42.8838   -8.0019 C.3     1  UNL1       -0.0371
      6 C          24.0977   41.9651   -9.2258 C.3     1  UNL1       -0.0516
      7 C          23.1532   42.2569  -10.4077 C.3     1  UNL1       -0.0528
      8 C          21.6958   41.7920  -10.2110 C.3     1  UNL1       -0.0504
      9 C          20.7544   42.0887  -11.4159 C.3     1  UNL1       -0.0421
     10 C          19.2614   41.7453  -11.1592 C.3     1  UNL1       -0.0295
     11 C          18.3909   42.8253  -10.4725 C.3     1  UNL1        0.0508
     12 N          18.9338   43.1376   -9.1618 N.am    1  UNL1       -0.3060
     13 C          19.2882   44.3524   -8.7214 C.2     1  UNL1        0.2444
     14 O          19.1014   45.4053   -9.3297 O.2     1  UNL1       -0.2702
     15 C          20.0784   44.3032   -7.4576 C.ar    1  UNL1        0.0374
     16 C          19.6608   43.4817   -6.3884 C.ar    1  UNL1       -0.0496
     17 C          20.4696   43.3459   -5.2474 C.ar    1  UNL1       -0.0603
     18 C          21.7065   44.0102   -5.1894 C.ar    1  UNL1       -0.0496
     19 C          22.1322   44.8379   -6.2466 C.ar    1  UNL1        0.0376
     20 C          21.2845   45.0277   -7.3586 C.ar    1  UNL1       -0.0375
     21 C          23.4768   45.4952   -6.1584 C.2     1  UNL1        0.2466
     22 O          23.6967   46.2224   -5.1873 O.2     1  UNL1       -0.2700
     23 C          16.9215   42.3538  -10.3529 C.3     1  UNL1        0.0859
     24 C          15.9898   43.2312   -9.4893 C.3     1  UNL1        0.0240
     25 N          16.0152   42.8799   -8.0698 N.3     1  UNL1       -0.3095
     26 C          15.1537   41.7571   -7.6723 C.3     1  UNL1        0.0213
     27 C          15.6719   40.3941   -8.0742 C.ar    1  UNL1       -0.0333
     28 C          14.8437   39.4875   -8.7655 C.ar    1  UNL1       -0.0573
     29 C          15.3505   38.2333   -9.1523 C.ar    1  UNL1       -0.0612
     30 C          16.6780   37.8800   -8.8419 C.ar    1  UNL1       -0.0583
     31 C          17.5063   38.7817   -8.1405 C.ar    1  UNL1       -0.0445
     32 C          16.9971   40.0372   -7.7638 C.ar    1  UNL1       -0.0539
     33 C          18.9252   38.3945   -7.7684 C.3     1  UNL1       -0.0215
     34 C          19.2011   38.5735   -6.2718 C.3     1  UNL1       -0.0586
     35 C          19.9671   39.1289   -8.6097 C.3     1  UNL1       -0.0586
     36 O          16.3759   42.3606  -11.6400 O.3     1  UNL1       -0.3887
     37 C          21.2235   41.3214  -12.6679 C.3     1  UNL1       -0.0624
     38 H          20.8123   43.1548  -11.6394 H       1  UNL1        0.0299
     39 H          18.4139   43.7247  -11.0907 H       1  UNL1        0.0524
     40 H          16.8970   41.3159  -10.0440 H       1  UNL1        0.0624
     41 H          27.6827   45.2710   -6.0978 H       1  UNL1        0.0245
     42 H          26.8079   43.8807   -6.7451 H       1  UNL1        0.0245
     43 H          26.2984   44.6204   -5.2300 H       1  UNL1        0.0245
     44 H          25.7431   46.7532   -6.4948 H       1  UNL1        0.0462
     45 H          26.1897   45.9961   -7.9744 H       1  UNL1        0.0462
     46 H          23.4370   44.7890   -8.9383 H       1  UNL1        0.0464
     47 H          25.1102   44.4102   -8.9342 H       1  UNL1        0.0464
     48 H          24.6455   42.5526   -7.2405 H       1  UNL1        0.0280
     49 H          22.9515   42.7383   -7.5756 H       1  UNL1        0.0280
     50 H          25.1262   42.0415   -9.5807 H       1  UNL1        0.0266
     51 H          23.9805   40.9256   -8.9173 H       1  UNL1        0.0266
     52 H          23.1830   43.3115  -10.6805 H       1  UNL1        0.0265
     53 H          23.5724   41.7232  -11.2527 H       1  UNL1        0.0265
     54 H          21.7035   40.7203  -10.0199 H       1  UNL1        0.0268
     55 H          21.3190   42.2535   -9.3023 H       1  UNL1        0.0268
     56 H          18.7886   41.5413  -12.1190 H       1  UNL1        0.0286
     57 H          19.1878   40.8063  -10.6208 H       1  UNL1        0.0286
     58 H          19.1857   42.3514   -8.5813 H       1  UNL1        0.1494
     59 H          18.7287   42.9368   -6.4388 H       1  UNL1        0.0625
     60 H          20.1531   42.7116   -4.4313 H       1  UNL1        0.0618
     61 H          22.3378   43.8733   -4.3223 H       1  UNL1        0.0625
     62 H          21.5856   45.6727   -8.1707 H       1  UNL1        0.0633
     63 H          16.2757   44.2762   -9.6171 H       1  UNL1        0.0450
     64 H          14.9631   43.1657   -9.8480 H       1  UNL1        0.0450
     65 H          16.9655   42.6766   -7.7800 H       1  UNL1        0.1223
     66 H          15.0758   41.7341   -6.5877 H       1  UNL1        0.0473
     67 H          14.1416   41.9045   -8.0509 H       1  UNL1        0.0473
     68 H          13.8196   39.7483   -8.9967 H       1  UNL1        0.0621
     69 H          14.7131   37.5339   -9.6706 H       1  UNL1        0.0618
     70 H          17.0509   36.9077   -9.1246 H       1  UNL1        0.0620
     71 H          17.6267   40.7372   -7.2393 H       1  UNL1        0.0623
     72 H          19.0345   37.3454   -8.0069 H       1  UNL1        0.0343
     73 H          18.4828   38.0261   -5.6550 H       1  UNL1        0.0235
     74 H          19.1699   39.6218   -5.9742 H       1  UNL1        0.0235
     75 H          20.2004   38.2102   -6.0405 H       1  UNL1        0.0235
     76 H          19.8347   38.9080   -9.6678 H       1  UNL1        0.0235
     77 H          20.9778   38.8226   -8.3389 H       1  UNL1        0.0235
     78 H          19.8961   40.2055   -8.4619 H       1  UNL1        0.0235
     79 H          16.7259   41.6009  -12.0829 H       1  UNL1        0.2099
     80 H          21.4160   40.2701  -12.4481 H       1  UNL1        0.0232
     81 H          22.1294   41.7539  -13.0805 H       1  UNL1        0.0232
     82 H          20.4834   41.3503  -13.4653 H       1  UNL1        0.0232
@<TRIPOS>BOND
     1     1     2    1
     2     1    41    1
     3     1    42    1
     4     1    43    1
     5     2     3    1
     6     2    44    1
     7     2    45    1
     8     3    21   am
     9     3     4    1
    10     4     5    1
    11     4    46    1
    12     4    47    1
    13     5     6    1
    14     5    48    1
    15     5    49    1
    16     6     7    1
    17     6    50    1
    18     6    51    1
    19     7     8    1
    20     7    52    1
    21     7    53    1
    22     8     9    1
    23     8    54    1
    24     8    55    1
    25     9    38    1
    26     9    10    1
    27     9    37    1
    28    10    11    1
    29    10    56    1
    30    10    57    1
    31    11    39    1
    32    11    12    1
    33    11    23    1
    34    12    13   am
    35    12    58    1
    36    13    14    2
    37    13    15    1
    38    15    20   ar
    39    15    16   ar
    40    16    17   ar
    41    16    59    1
    42    17    18   ar
    43    17    60    1
    44    18    19   ar
    45    18    61    1
    46    19    20   ar
    47    19    21    1
    48    20    62    1
    49    21    22    2
    50    23    40    1
    51    23    24    1
    52    23    36    1
    53    24    25    1
    54    24    63    1
    55    24    64    1
    56    25    26    1
    57    25    65    1
    58    26    27    1
    59    26    66    1
    60    26    67    1
    61    27    32   ar
    62    27    28   ar
    63    28    29   ar
    64    28    68    1
    65    29    30   ar
    66    29    69    1
    67    30    31   ar
    68    30    70    1
    69    31    32   ar
    70    31    33    1
    71    32    71    1
    72    33    34    1
    73    33    35    1
    74    33    72    1
    75    34    73    1
    76    34    74    1
    77    34    75    1
    78    35    76    1
    79    35    77    1
    80    35    78    1
    81    36    79    1
    82    37    80    1
    83    37    81    1
    84    37    82    1
