@<TRIPOS>MOLECULE
BACE_7.smi:1
 99 103 0 0 0
SMALL
GASTEIGER
****
Structure written by MMmdl.
@<TRIPOS>ATOM
      1 C          18.1837   38.3914   -6.3902 C.3     1  UNL1       -0.0624
      2 C          18.2937   38.7885   -7.8731 C.3     1  UNL1       -0.0421
      3 C          17.4101   37.8880   -8.7699 C.3     1  UNL1       -0.0504
      4 C          15.9356   38.3390   -8.7991 C.3     1  UNL1       -0.0528
      5 C          15.7003   39.5988   -9.6582 C.3     1  UNL1       -0.0516
      6 C          14.4598   40.3953   -9.2172 C.3     1  UNL1       -0.0371
      7 C          14.1841   41.6579  -10.0563 C.3     1  UNL1        0.0156
      8 N          15.2598   42.6651   -9.9413 N.am    1  UNL1       -0.2907
      9 C          15.2388   43.5504   -8.9124 C.2     1  UNL1        0.2471
     10 O          14.1962   44.0002   -8.4364 O.2     1  UNL1       -0.2700
     11 C          16.5670   43.9845   -8.3630 C.ar    1  UNL1        0.0384
     12 C          16.8255   45.3501   -8.1264 C.ar    1  UNL1       -0.0373
     13 C          18.0706   45.7575   -7.6030 C.ar    1  UNL1        0.0383
     14 C          19.0652   44.7948   -7.3307 C.ar    1  UNL1       -0.0373
     15 C          18.8284   43.4231   -7.5708 C.ar    1  UNL1        0.0381
     16 C          17.5541   43.0265   -8.0383 C.ar    1  UNL1       -0.0375
     17 C          19.9056   42.4044   -7.2951 C.2     1  UNL1        0.2444
     18 O          20.8090   42.6228   -6.4873 O.2     1  UNL1       -0.2702
     19 N          19.8377   41.2854   -8.0317 N.am    1  UNL1       -0.3058
     20 C          20.5828   40.0435   -7.8014 C.3     1  UNL1        0.0545
     21 C          19.7612   38.8618   -8.3764 C.3     1  UNL1       -0.0293
     22 C          22.0307   40.1033   -8.3699 C.3     1  UNL1        0.1130
     23 C          22.1829   40.7902   -9.7543 C.3     1  UNL1       -0.0050
     24 N          23.5836   40.8343  -10.2500 N.4     1  UNL1        0.2321
     25 C          24.4039   41.9226   -9.6772 C.3     1  UNL1       -0.0076
     26 C          25.4080   42.4590  -10.6775 C.ar    1  UNL1       -0.0027
     27 C          25.0159   43.4736  -11.5766 C.ar    1  UNL1       -0.0535
     28 C          25.9554   44.0363  -12.4599 C.ar    1  UNL1       -0.0611
     29 C          27.2882   43.5872  -12.4501 C.ar    1  UNL1       -0.0583
     30 C          27.6899   42.5605  -11.5679 C.ar    1  UNL1       -0.0444
     31 C          26.7407   41.9937  -10.6890 C.ar    1  UNL1       -0.0501
     32 C          29.1448   42.1091  -11.5263 C.3     1  UNL1       -0.0215
     33 C          30.0458   43.2023  -10.9337 C.3     1  UNL1       -0.0586
     34 C          29.6534   41.6427  -12.9015 C.3     1  UNL1       -0.0586
     35 O          22.8242   40.7419   -7.3934 O.3     1  UNL1       -0.3847
     36 C          18.3183   47.1674   -7.3294 C.ar    1  UNL1        0.2271
     37 N          17.6600   48.2329   -7.7915 N.ar    1  UNL1       -0.2175
     38 C          18.3127   49.3262   -7.2400 C.ar    1  UNL1        0.0663
     39 C          19.3225   48.8599   -6.4416 C.ar    1  UNL1        0.1125
     40 O          19.3369   47.4923   -6.4876 O.2     1  UNL1       -0.4436
     41 C          15.9578   43.0087  -11.2063 C.3     1  UNL1        0.0487
     42 C          17.4878   42.7895  -11.1851 C.3     1  UNL1       -0.0422
     43 C          15.5021   44.3623  -11.7753 C.ar    1  UNL1       -0.0273
     44 C          14.1291   44.5621  -12.0410 C.ar    1  UNL1       -0.0568
     45 C          13.6697   45.7813  -12.5770 C.ar    1  UNL1       -0.0614
     46 C          14.5810   46.8212  -12.8401 C.ar    1  UNL1       -0.0617
     47 C          15.9488   46.6396  -12.5593 C.ar    1  UNL1       -0.0614
     48 C          16.4099   45.4182  -12.0304 C.ar    1  UNL1       -0.0568
     49 H          17.8709   39.7862   -7.9316 H       1  UNL1        0.0299
     50 H          20.6429   39.8788   -6.7229 H       1  UNL1        0.0526
     51 H          22.4213   39.0843   -8.4419 H       1  UNL1        0.0666
     52 H          15.6378   42.2899  -11.9552 H       1  UNL1        0.0548
     53 H          18.4601   37.3505   -6.2243 H       1  UNL1        0.0232
     54 H          17.1598   38.5145   -6.0413 H       1  UNL1        0.0232
     55 H          18.8042   39.0134   -5.7477 H       1  UNL1        0.0232
     56 H          17.7801   37.8689   -9.7941 H       1  UNL1        0.0268
     57 H          17.4689   36.8586   -8.4159 H       1  UNL1        0.0268
     58 H          15.3172   37.5309   -9.1890 H       1  UNL1        0.0265
     59 H          15.5894   38.4989   -7.7779 H       1  UNL1        0.0265
     60 H          16.5656   40.2517   -9.6067 H       1  UNL1        0.0266
     61 H          15.6116   39.3111  -10.7063 H       1  UNL1        0.0266
     62 H          13.5890   39.7415   -9.2629 H       1  UNL1        0.0280
     63 H          14.5669   40.6772   -8.1677 H       1  UNL1        0.0280
     64 H          14.0016   41.3500  -11.0852 H       1  UNL1        0.0465
     65 H          13.2319   42.0854   -9.7364 H       1  UNL1        0.0465
     66 H          16.0644   46.0860   -8.3432 H       1  UNL1        0.0633
     67 H          20.0279   45.1068   -6.9456 H       1  UNL1        0.0633
     68 H          17.3223   41.9827   -8.1763 H       1  UNL1        0.0633
     69 H          19.0729   41.2274   -8.6884 H       1  UNL1        0.1494
     70 H          20.2636   37.9185   -8.1623 H       1  UNL1        0.0286
     71 H          19.7571   38.9537   -9.4621 H       1  UNL1        0.0286
     72 H          21.6068   40.2227  -10.4828 H       1  UNL1        0.0840
     73 H          21.7646   41.7960   -9.7609 H       1  UNL1        0.0840
     74 H          24.0425   39.9514  -10.0485 H       1  UNL1        0.2018
     75 H          23.7738   42.7553   -9.3584 H       1  UNL1        0.0866
     76 H          24.9084   41.5578   -8.7826 H       1  UNL1        0.0866
     77 H          23.9984   43.8393  -11.5822 H       1  UNL1        0.0622
     78 H          25.6552   44.8190  -13.1430 H       1  UNL1        0.0618
     79 H          28.0000   44.0400  -13.1209 H       1  UNL1        0.0620
     80 H          27.0437   41.2128  -10.0044 H       1  UNL1        0.0625
     81 H          29.2050   41.2578  -10.8497 H       1  UNL1        0.0343
     82 H          29.7078   43.4849   -9.9348 H       1  UNL1        0.0235
     83 H          30.0461   44.0997  -11.5525 H       1  UNL1        0.0235
     84 H          31.0772   42.8572  -10.8485 H       1  UNL1        0.0235
     85 H          29.0843   40.7829  -13.2631 H       1  UNL1        0.0235
     86 H          30.7026   41.3500  -12.8475 H       1  UNL1        0.0235
     87 H          29.5845   42.4290  -13.6560 H       1  UNL1        0.0235
     88 H          22.3124   41.4543   -7.0109 H       1  UNL1        0.2101
     89 H          18.0032   50.3390   -7.4523 H       1  UNL1        0.0862
     90 H          20.0633   49.3342   -5.8124 H       1  UNL1        0.1046
     91 H          17.8948   42.8353  -12.1953 H       1  UNL1        0.0251
     92 H          17.7459   41.8091  -10.7852 H       1  UNL1        0.0251
     93 H          18.0223   43.5356  -10.6003 H       1  UNL1        0.0251
     94 H          13.4180   43.7694  -11.8485 H       1  UNL1        0.0621
     95 H          12.6214   45.9147  -12.7975 H       1  UNL1        0.0618
     96 H          14.2385   47.7503  -13.2704 H       1  UNL1        0.0618
     97 H          16.6516   47.4376  -12.7583 H       1  UNL1        0.0618
     98 H          17.4645   45.3181  -11.8273 H       1  UNL1        0.0621
     99 H          23.5734   40.9557  -11.2583 H       1  UNL1        0.2018
@<TRIPOS>BOND
     1     1     2    1
     2     1    53    1
     3     1    54    1
     4     1    55    1
     5     2    49    1
     6     2    21    1
     7     2     3    1
     8     3     4    1
     9     3    56    1
    10     3    57    1
    11     4     5    1
    12     4    58    1
    13     4    59    1
    14     5     6    1
    15     5    60    1
    16     5    61    1
    17     6     7    1
    18     6    62    1
    19     6    63    1
    20     7     8    1
    21     7    64    1
    22     7    65    1
    23     8     9   am
    24     8    41    1
    25     9    10    2
    26     9    11    1
    27    11    16   ar
    28    11    12   ar
    29    12    13   ar
    30    12    66    1
    31    13    14   ar
    32    13    36    1
    33    14    15   ar
    34    14    67    1
    35    15    16   ar
    36    15    17    1
    37    16    68    1
    38    17    18    2
    39    17    19   am
    40    19    20    1
    41    19    69    1
    42    20    50    1
    43    20    21    1
    44    20    22    1
    45    21    70    1
    46    21    71    1
    47    22    51    1
    48    22    23    1
    49    22    35    1
    50    23    24    1
    51    23    72    1
    52    23    73    1
    53    24    25    1
    54    24    74    1
    55    24    99    1
    56    25    26    1
    57    25    75    1
    58    25    76    1
    59    26    31   ar
    60    26    27   ar
    61    27    28   ar
    62    27    77    1
    63    28    29   ar
    64    28    78    1
    65    29    30   ar
    66    29    79    1
    67    30    31   ar
    68    30    32    1
    69    31    80    1
    70    32    33    1
    71    32    34    1
    72    32    81    1
    73    33    82    1
    74    33    83    1
    75    33    84    1
    76    34    85    1
    77    34    86    1
    78    34    87    1
    79    35    88    1
    80    36    40   ar
    81    36    37   ar
    82    37    38   ar
    83    38    39   ar
    84    38    89    1
    85    39    40   ar
    86    39    90    1
    87    41    52    1
    88    41    42    1
    89    41    43    1
    90    42    91    1
    91    42    92    1
    92    42    93    1
    93    43    48   ar
    94    43    44   ar
    95    44    45   ar
    96    44    94    1
    97    45    46   ar
    98    45    95    1
    99    46    47   ar
   100    46    96    1
   101    47    48   ar
   102    47    97    1
   103    48    98    1
