@<TRIPOS>MOLECULE
BACE_13.smi:1
 77 80 0 0 0
SMALL
GASTEIGER
****
Structure written by MMmdl.
@<TRIPOS>ATOM
      1 C          20.0613   40.9586   -2.2548 C.3     1  UNL1        0.0369
      2 O          21.3843   41.4362   -2.4443 O.3     1  UNL1       -0.3784
      3 C          21.4762   42.5351   -3.3428 C.3     1  UNL1        0.0724
      4 C          21.1051   42.1822   -4.7759 C.ar    1  UNL1       -0.0195
      5 C          20.1691   42.9679   -5.4776 C.ar    1  UNL1       -0.0442
      6 C          19.7601   42.6208   -6.7855 C.ar    1  UNL1        0.0388
      7 C          20.3610   41.5004   -7.4109 C.ar    1  UNL1       -0.0287
      8 C          21.3042   40.7016   -6.7149 C.ar    1  UNL1        0.0282
      9 C          21.6771   41.0578   -5.4034 C.ar    1  UNL1       -0.0355
     10 N          21.8744   39.5417   -7.2659 N.pl3   1  UNL1       -0.3438
     11 C          21.1675   38.8242   -8.3188 C.3     1  UNL1        0.0092
     12 C          21.6365   39.2252   -9.7220 C.3     1  UNL1       -0.0344
     13 C          20.5110   39.1462  -10.7622 C.3     1  UNL1       -0.0172
     14 C          20.9407   39.6731  -12.1468 C.3     1  UNL1        0.0896
     15 O          21.6151   40.9244  -12.0684 O.3     1  UNL1       -0.4920
     16 C          20.9428   42.0450  -11.6363 C.ar    1  UNL1        0.1208
     17 C          21.7321   43.1571  -11.2851 C.ar    1  UNL1       -0.0199
     18 C          21.1362   44.3512  -10.8400 C.ar    1  UNL1       -0.0580
     19 C          19.7391   44.4342  -10.7201 C.ar    1  UNL1       -0.0583
     20 C          18.9357   43.3207  -11.0403 C.ar    1  UNL1       -0.0421
     21 C          19.5348   42.1400  -11.5268 C.ar    1  UNL1       -0.0167
     22 C          17.4333   43.3739  -10.8073 C.3     1  UNL1       -0.0064
     23 C          17.0280   43.5274   -9.3161 C.3     1  UNL1        0.0586
     24 N          17.9869   42.8396   -8.4347 N.am    1  UNL1       -0.3055
     25 C          18.6930   43.4440   -7.4587 C.2     1  UNL1        0.2444
     26 O          18.4572   44.5908   -7.0773 O.2     1  UNL1       -0.2702
     27 C          15.5340   43.1488   -9.0602 C.3     1  UNL1        0.1182
     28 C          15.1434   41.7157   -8.5900 C.3     1  UNL1        0.0296
     29 C          15.4913   40.6438   -9.6462 C.3     1  UNL1        0.0935
     30 O          15.1689   39.3329   -9.1919 O.3     1  UNL1       -0.3634
     31 C          15.8422   38.9675   -7.9883 C.3     1  UNL1        0.1216
     32 C          15.3814   39.9436   -6.8837 C.3     1  UNL1       -0.0041
     33 N          15.6602   41.3498   -7.2453 N.4     1  UNL1        0.2346
     34 C          17.3713   38.9024   -8.2518 C.3     1  UNL1        0.0785
     35 O          18.0432   37.8650   -7.5683 O.3     1  UNL1       -0.3802
     36 C          18.2845   38.1598   -6.2072 C.3     1  UNL1        0.0366
     37 O          14.9204   44.1354   -8.2587 O.3     1  UNL1       -0.3843
     38 H          17.1237   44.6002   -9.1412 H       1  UNL1        0.0529
     39 H          15.0193   43.2908  -10.0120 H       1  UNL1        0.0670
     40 H          14.0601   41.7002   -8.4963 H       1  UNL1        0.0900
     41 H          15.4926   37.9648   -7.7407 H       1  UNL1        0.0673
     42 H          20.0599   40.1541   -1.5176 H       1  UNL1        0.0524
     43 H          19.6601   40.5549   -3.1831 H       1  UNL1        0.0524
     44 H          19.3997   41.7485   -1.8973 H       1  UNL1        0.0524
     45 H          22.5052   42.8977   -3.3310 H       1  UNL1        0.0610
     46 H          20.8520   43.3497   -2.9758 H       1  UNL1        0.0610
     47 H          19.7157   43.8153   -4.9820 H       1  UNL1        0.0628
     48 H          20.0878   41.2450   -8.4239 H       1  UNL1        0.0643
     49 H          22.3895   40.4548   -4.8599 H       1  UNL1        0.0639
     50 H          22.4738   38.9911   -6.6686 H       1  UNL1        0.1461
     51 H          20.1021   39.0050   -8.2171 H       1  UNL1        0.0461
     52 H          21.3017   37.7510   -8.1815 H       1  UNL1        0.0461
     53 H          22.4609   38.5857  -10.0290 H       1  UNL1        0.0281
     54 H          22.0322   40.2413   -9.6916 H       1  UNL1        0.0281
     55 H          19.6574   39.7125  -10.3952 H       1  UNL1        0.0298
     56 H          20.1567   38.1197  -10.8511 H       1  UNL1        0.0298
     57 H          20.0980   39.7351  -12.8351 H       1  UNL1        0.0696
     58 H          21.6442   38.9698  -12.5977 H       1  UNL1        0.0696
     59 H          22.8073   43.0922  -11.3656 H       1  UNL1        0.0654
     60 H          21.7534   45.1977  -10.5797 H       1  UNL1        0.0619
     61 H          19.2891   45.3443  -10.3528 H       1  UNL1        0.0620
     62 H          18.9017   41.3060  -11.7877 H       1  UNL1        0.0657
     63 H          16.9936   42.4730  -11.2305 H       1  UNL1        0.0332
     64 H          17.0201   44.2001  -11.3865 H       1  UNL1        0.0332
     65 H          18.2801   41.9126   -8.7018 H       1  UNL1        0.1494
     66 H          16.5437   40.6955   -9.9259 H       1  UNL1        0.0617
     67 H          14.9292   40.8335  -10.5615 H       1  UNL1        0.0617
     68 H          15.8385   39.7237   -5.9226 H       1  UNL1        0.0840
     69 H          14.3076   39.8299   -6.7288 H       1  UNL1        0.0840
     70 H          16.6559   41.5085   -7.1908 H       1  UNL1        0.2019
     71 H          17.5240   38.6601   -9.3048 H       1  UNL1        0.0587
     72 H          17.8613   39.8632   -8.0948 H       1  UNL1        0.0587
     73 H          18.8599   37.3502   -5.7817 H       1  UNL1        0.0524
     74 H          17.3614   38.2239   -5.6410 H       1  UNL1        0.0524
     75 H          18.8502   39.0819   -6.0751 H       1  UNL1        0.0524
     76 H          15.2606   44.0629   -7.3743 H       1  UNL1        0.2101
     77 H          15.2165   41.9295   -6.5353 H       1  UNL1        0.2019
@<TRIPOS>BOND
     1     1     2    1
     2     1    42    1
     3     1    43    1
     4     1    44    1
     5     2     3    1
     6     3     4    1
     7     3    45    1
     8     3    46    1
     9     4     9   ar
    10     4     5   ar
    11     5     6   ar
    12     5    47    1
    13     6    25    1
    14     6     7   ar
    15     7     8   ar
    16     7    48    1
    17     8     9   ar
    18     8    10    1
    19     9    49    1
    20    10    11    1
    21    10    50    1
    22    11    12    1
    23    11    51    1
    24    11    52    1
    25    12    13    1
    26    12    53    1
    27    12    54    1
    28    13    14    1
    29    13    55    1
    30    13    56    1
    31    14    15    1
    32    14    57    1
    33    14    58    1
    34    15    16    1
    35    16    21   ar
    36    16    17   ar
    37    17    18   ar
    38    17    59    1
    39    18    19   ar
    40    18    60    1
    41    19    20   ar
    42    19    61    1
    43    20    21   ar
    44    20    22    1
    45    21    62    1
    46    22    23    1
    47    22    63    1
    48    22    64    1
    49    23    38    1
    50    23    24    1
    51    23    27    1
    52    24    25   am
    53    24    65    1
    54    25    26    2
    55    27    39    1
    56    27    28    1
    57    27    37    1
    58    28    40    1
    59    28    33    1
    60    28    29    1
    61    29    30    1
    62    29    66    1
    63    29    67    1
    64    30    31    1
    65    31    41    1
    66    31    32    1
    67    31    34    1
    68    32    33    1
    69    32    68    1
    70    32    69    1
    71    33    70    1
    72    33    77    1
    73    34    35    1
    74    34    71    1
    75    34    72    1
    76    35    36    1
    77    36    73    1
    78    36    74    1
    79    36    75    1
    80    37    76    1
