@<TRIPOS>MOLECULE
BACE_11.smi:1
 81 83 0 0 0
SMALL
GASTEIGER
****
Structure written by MMmdl.
@<TRIPOS>ATOM
      1 C          21.0490   42.1157   -4.8721 C.3     1  UNL1       -0.0379
      2 C          21.0206   41.7767   -6.3755 C.3     1  UNL1        0.0991
      3 C          20.3324   40.4389   -6.7270 C.2     1  UNL1        0.2336
      4 O          20.5951   39.4517   -6.0452 O.2     1  UNL1       -0.2738
      5 N          19.5333   40.3744   -7.8079 N.am    1  UNL1       -0.3080
      6 C          18.9848   39.1583   -8.4403 C.3     1  UNL1        0.0580
      7 C          20.1162   38.4321   -9.2103 C.3     1  UNL1       -0.0065
      8 C          20.7299   39.3746  -10.2354 C.ar    1  UNL1       -0.0421
      9 C          20.0956   39.5600  -11.4790 C.ar    1  UNL1       -0.0583
     10 C          20.5661   40.5387  -12.3727 C.ar    1  UNL1       -0.0580
     11 C          21.6599   41.3500  -12.0182 C.ar    1  UNL1       -0.0199
     12 C          22.3134   41.1679  -10.7745 C.ar    1  UNL1        0.1208
     13 C          21.8563   40.1569   -9.9058 C.ar    1  UNL1       -0.0167
     14 O          23.3678   41.9353  -10.3304 O.3     1  UNL1       -0.4920
     15 C          23.8422   42.9848  -11.1594 C.3     1  UNL1        0.0896
     16 C          24.8429   43.8511  -10.3761 C.3     1  UNL1       -0.0186
     17 C          24.1953   44.9409   -9.4935 C.3     1  UNL1       -0.0495
     18 C          24.0981   44.6351   -7.9813 C.3     1  UNL1       -0.0447
     19 C          23.1229   43.5252   -7.5279 C.3     1  UNL1        0.0242
     20 C          21.6177   43.8159   -7.7222 C.2     1  UNL1        0.2159
     21 O          21.2879   44.8221   -8.3545 O.2     1  UNL1       -0.2756
     22 N          20.6880   42.9779   -7.1836 N.am    1  UNL1       -0.2932
     23 C          19.2676   43.3687   -7.2580 C.3     1  UNL1        0.0039
     24 C          18.1139   38.2836   -7.4786 C.3     1  UNL1        0.1132
     25 C          16.7127   38.8552   -7.1659 C.3     1  UNL1       -0.0049
     26 N          16.6406   40.3246   -7.2400 N.4     1  UNL1        0.2321
     27 C          15.2787   40.8689   -7.2563 C.3     1  UNL1       -0.0076
     28 C          14.9101   41.2733   -8.6679 C.ar    1  UNL1       -0.0027
     29 C          14.8588   40.3132   -9.7016 C.ar    1  UNL1       -0.0535
     30 C          14.4599   40.6873  -10.9928 C.ar    1  UNL1       -0.0611
     31 C          14.0595   42.0127  -11.2400 C.ar    1  UNL1       -0.0583
     32 C          14.1478   42.9886  -10.2311 C.ar    1  UNL1       -0.0444
     33 C          14.5897   42.6178   -8.9457 C.ar    1  UNL1       -0.0501
     34 C          13.7627   44.4247  -10.5260 C.3     1  UNL1       -0.0215
     35 C          12.3154   44.5416  -11.0315 C.3     1  UNL1       -0.0586
     36 C          14.7580   45.0805  -11.4965 C.3     1  UNL1       -0.0586
     37 O          17.8496   37.0145   -8.0401 O.3     1  UNL1       -0.3847
     38 H          22.0445   41.4879   -6.6005 H       1  UNL1        0.0594
     39 H          18.3036   39.5100   -9.2171 H       1  UNL1        0.0529
     40 H          18.6393   38.0916   -6.5442 H       1  UNL1        0.0666
     41 H          21.3861   41.2682   -4.2753 H       1  UNL1        0.0252
     42 H          20.0618   42.3977   -4.5082 H       1  UNL1        0.0252
     43 H          21.7261   42.9448   -4.6643 H       1  UNL1        0.0252
     44 H          19.4473   41.2288   -8.3389 H       1  UNL1        0.1491
     45 H          20.8847   38.0658   -8.5293 H       1  UNL1        0.0332
     46 H          19.7298   37.5579   -9.7354 H       1  UNL1        0.0332
     47 H          19.2292   38.9681  -11.7374 H       1  UNL1        0.0620
     48 H          20.0733   40.6769  -13.3224 H       1  UNL1        0.0619
     49 H          21.9916   42.0983  -12.7230 H       1  UNL1        0.0654
     50 H          22.3436   40.0221   -8.9524 H       1  UNL1        0.0657
     51 H          24.3384   42.5502  -12.0285 H       1  UNL1        0.0696
     52 H          23.0284   43.6130  -11.5245 H       1  UNL1        0.0696
     53 H          25.5323   43.2292   -9.8037 H       1  UNL1        0.0298
     54 H          25.4606   44.3621  -11.1170 H       1  UNL1        0.0298
     55 H          24.8169   45.8337   -9.5825 H       1  UNL1        0.0266
     56 H          23.2321   45.2421   -9.9024 H       1  UNL1        0.0266
     57 H          25.0950   44.3884   -7.6136 H       1  UNL1        0.0270
     58 H          23.8231   45.5561   -7.4644 H       1  UNL1        0.0270
     59 H          23.3841   42.5872   -8.0121 H       1  UNL1        0.0358
     60 H          23.2950   43.3735   -6.4631 H       1  UNL1        0.0358
     61 H          18.8280   43.0576   -8.2067 H       1  UNL1        0.0429
     62 H          19.1318   44.4489   -7.1714 H       1  UNL1        0.0429
     63 H          18.6835   42.9429   -6.4444 H       1  UNL1        0.0429
     64 H          15.9714   38.4264   -7.8363 H       1  UNL1        0.0840
     65 H          16.4071   38.5500   -6.1694 H       1  UNL1        0.0840
     66 H          17.1058   40.6856   -6.4077 H       1  UNL1        0.2018
     67 H          14.5470   40.1737   -6.8381 H       1  UNL1        0.0866
     68 H          15.2840   41.7480   -6.6142 H       1  UNL1        0.0866
     69 H          15.0827   39.2748   -9.5224 H       1  UNL1        0.0622
     70 H          14.3883   39.9343  -11.7623 H       1  UNL1        0.0618
     71 H          13.6614   42.2925  -12.2022 H       1  UNL1        0.0620
     72 H          14.6410   43.3553   -8.1577 H       1  UNL1        0.0625
     73 H          13.8218   44.9506   -9.5754 H       1  UNL1        0.0343
     74 H          11.6120   44.1545  -10.2932 H       1  UNL1        0.0235
     75 H          12.1588   43.9889  -11.9577 H       1  UNL1        0.0235
     76 H          12.0621   45.5785  -11.2417 H       1  UNL1        0.0235
     77 H          15.7721   45.0358  -11.1003 H       1  UNL1        0.0235
     78 H          14.5179   46.1314  -11.6612 H       1  UNL1        0.0235
     79 H          14.7565   44.5827  -12.4660 H       1  UNL1        0.0235
     80 H          17.2897   36.5499   -7.4202 H       1  UNL1        0.2101
     81 H          17.1263   40.6530   -8.0581 H       1  UNL1        0.2018
@<TRIPOS>BOND
     1     1     2    1
     2     1    41    1
     3     1    42    1
     4     1    43    1
     5     2    38    1
     6     2    22    1
     7     2     3    1
     8     3     4    2
     9     3     5   am
    10     5     6    1
    11     5    44    1
    12     6    39    1
    13     6     7    1
    14     6    24    1
    15     7     8    1
    16     7    45    1
    17     7    46    1
    18     8    13   ar
    19     8     9   ar
    20     9    10   ar
    21     9    47    1
    22    10    11   ar
    23    10    48    1
    24    11    12   ar
    25    11    49    1
    26    12    13   ar
    27    12    14    1
    28    13    50    1
    29    14    15    1
    30    15    16    1
    31    15    51    1
    32    15    52    1
    33    16    17    1
    34    16    53    1
    35    16    54    1
    36    17    18    1
    37    17    55    1
    38    17    56    1
    39    18    19    1
    40    18    57    1
    41    18    58    1
    42    19    20    1
    43    19    59    1
    44    19    60    1
    45    20    21    2
    46    20    22   am
    47    22    23    1
    48    23    61    1
    49    23    62    1
    50    23    63    1
    51    24    40    1
    52    24    25    1
    53    24    37    1
    54    25    26    1
    55    25    64    1
    56    25    65    1
    57    26    27    1
    58    26    66    1
    59    26    81    1
    60    27    28    1
    61    27    67    1
    62    27    68    1
    63    28    33   ar
    64    28    29   ar
    65    29    30   ar
    66    29    69    1
    67    30    31   ar
    68    30    70    1
    69    31    32   ar
    70    31    71    1
    71    32    33   ar
    72    32    34    1
    73    33    72    1
    74    34    35    1
    75    34    36    1
    76    34    73    1
    77    35    74    1
    78    35    75    1
    79    35    76    1
    80    36    77    1
    81    36    78    1
    82    36    79    1
    83    37    80    1
