@<TRIPOS>MOLECULE
BACE_6.smi:1
 83 85 0 0 0
SMALL
GASTEIGER
****
Structure written by MMmdl.
@<TRIPOS>ATOM
      1 C          16.3766   51.9311   -9.9642 C.3     1  UNL1       -0.0493
      2 C          17.7269   51.3030  -10.3361 C.3     1  UNL1        0.0121
      3 N          17.7450   49.8550  -10.0666 N.am    1  UNL1       -0.2978
      4 C          16.8023   49.0760  -10.9025 C.3     1  UNL1        0.0150
      5 C          17.4801   48.0663  -11.8599 C.3     1  UNL1       -0.0371
      6 C          16.5246   47.4985  -12.9279 C.3     1  UNL1       -0.0516
      7 C          15.3392   46.6625  -12.4025 C.3     1  UNL1       -0.0528
      8 C          15.7026   45.2290  -11.9566 C.3     1  UNL1       -0.0504
      9 C          14.5098   44.4125  -11.3913 C.3     1  UNL1       -0.0421
     10 C          14.9297   43.0098  -10.8635 C.3     1  UNL1       -0.0293
     11 C          15.2131   42.9323   -9.3377 C.3     1  UNL1        0.0545
     12 N          16.3591   43.7635   -9.0025 N.am    1  UNL1       -0.3058
     13 C          16.3490   44.9074   -8.3019 C.2     1  UNL1        0.2444
     14 O          15.3579   45.3475   -7.7216 O.2     1  UNL1       -0.2702
     15 C          17.6018   45.7164   -8.4322 C.ar    1  UNL1        0.0374
     16 C          18.8646   45.0873   -8.4893 C.ar    1  UNL1       -0.0496
     17 C          20.0183   45.8486   -8.7459 C.ar    1  UNL1       -0.0603
     18 C          19.9070   47.2341   -8.9645 C.ar    1  UNL1       -0.0496
     19 C          18.6581   47.8806   -8.8788 C.ar    1  UNL1        0.0376
     20 C          17.5128   47.1204   -8.5533 C.ar    1  UNL1       -0.0375
     21 C          18.5958   49.3632   -9.1230 C.2     1  UNL1        0.2466
     22 O          19.3955   50.0774   -8.5111 O.2     1  UNL1       -0.2700
     23 C          15.4555   41.4976   -8.7825 C.3     1  UNL1        0.1130
     24 C          15.4642   41.3935   -7.2401 C.3     1  UNL1       -0.0050
     25 N          15.5893   39.9815   -6.7838 N.4     1  UNL1        0.2321
     26 C          16.0309   38.9798   -7.7861 C.3     1  UNL1       -0.0076
     27 C          17.5242   39.0390   -8.0524 C.ar    1  UNL1       -0.0027
     28 C          18.4299   38.3702   -7.2055 C.ar    1  UNL1       -0.0535
     29 C          19.7983   38.3311   -7.5269 C.ar    1  UNL1       -0.0611
     30 C          20.2773   38.9980   -8.6709 C.ar    1  UNL1       -0.0583
     31 C          19.3860   39.7175   -9.4982 C.ar    1  UNL1       -0.0444
     32 C          18.0102   39.7301   -9.1767 C.ar    1  UNL1       -0.0501
     33 C          19.8799   40.4424  -10.7473 C.3     1  UNL1       -0.0215
     34 C          20.7283   41.6676  -10.3746 C.3     1  UNL1       -0.0586
     35 C          18.7445   40.8246  -11.7151 C.3     1  UNL1       -0.0586
     36 O          14.4355   40.6423   -9.2665 O.3     1  UNL1       -0.3847
     37 C          13.3855   44.2667  -12.4361 C.3     1  UNL1       -0.0624
     38 H          14.0824   44.9716  -10.5588 H       1  UNL1        0.0299
     39 H          14.3373   43.3368   -8.8307 H       1  UNL1        0.0526
     40 H          16.4104   41.1248   -9.1586 H       1  UNL1        0.0666
     41 H          16.3853   53.0032  -10.1554 H       1  UNL1        0.0245
     42 H          16.1497   51.7851   -8.9079 H       1  UNL1        0.0245
     43 H          15.5615   51.5020  -10.5448 H       1  UNL1        0.0245
     44 H          17.9355   51.4917  -11.3886 H       1  UNL1        0.0462
     45 H          18.5285   51.8192   -9.8090 H       1  UNL1        0.0462
     46 H          16.0607   48.5842  -10.2745 H       1  UNL1        0.0464
     47 H          16.2094   49.7472  -11.5243 H       1  UNL1        0.0464
     48 H          18.2973   48.5736  -12.3731 H       1  UNL1        0.0280
     49 H          17.9333   47.2397  -11.3160 H       1  UNL1        0.0280
     50 H          16.1290   48.3337  -13.5079 H       1  UNL1        0.0266
     51 H          17.0962   46.9008  -13.6382 H       1  UNL1        0.0266
     52 H          14.8231   47.1882  -11.5984 H       1  UNL1        0.0265
     53 H          14.6208   46.6021  -13.2174 H       1  UNL1        0.0265
     54 H          16.1402   44.6956  -12.8007 H       1  UNL1        0.0268
     55 H          16.4914   45.2915  -11.2098 H       1  UNL1        0.0268
     56 H          14.1377   42.2978  -11.0912 H       1  UNL1        0.0286
     57 H          15.7920   42.6489  -11.4290 H       1  UNL1        0.0286
     58 H          17.2275   43.4954   -9.4433 H       1  UNL1        0.1494
     59 H          18.9580   44.0191   -8.3570 H       1  UNL1        0.0625
     60 H          20.9831   45.3677   -8.7958 H       1  UNL1        0.0618
     61 H          20.7830   47.8138   -9.2128 H       1  UNL1        0.0625
     62 H          16.5500   47.5995   -8.4514 H       1  UNL1        0.0633
     63 H          16.2731   42.0126   -6.8535 H       1  UNL1        0.0840
     64 H          14.5454   41.8203   -6.8423 H       1  UNL1        0.0840
     65 H          16.2174   39.9493   -5.9927 H       1  UNL1        0.2018
     66 H          15.7492   37.9847   -7.4436 H       1  UNL1        0.0866
     67 H          15.4924   39.1452   -8.7227 H       1  UNL1        0.0866
     68 H          18.0789   37.8592   -6.3215 H       1  UNL1        0.0622
     69 H          20.4861   37.7916   -6.8923 H       1  UNL1        0.0618
     70 H          21.3294   38.9466   -8.9015 H       1  UNL1        0.0620
     71 H          17.3113   40.2663   -9.7997 H       1  UNL1        0.0625
     72 H          20.5282   39.7501  -11.2881 H       1  UNL1        0.0343
     73 H          21.5889   41.3834   -9.7690 H       1  UNL1        0.0235
     74 H          20.1483   42.3939   -9.8034 H       1  UNL1        0.0235
     75 H          21.1041   42.1718  -11.2634 H       1  UNL1        0.0235
     76 H          18.1936   39.9407  -12.0396 H       1  UNL1        0.0235
     77 H          19.1402   41.3056  -12.6082 H       1  UNL1        0.0235
     78 H          18.0371   41.5249  -11.2723 H       1  UNL1        0.0235
     79 H          13.6201   40.8128   -8.8032 H       1  UNL1        0.2101
     80 H          13.7423   43.7684  -13.3374 H       1  UNL1        0.0232
     81 H          12.9672   45.2291  -12.7286 H       1  UNL1        0.0232
     82 H          12.5559   43.6825  -12.0447 H       1  UNL1        0.0232
     83 H          14.6750   39.6929   -6.4728 H       1  UNL1        0.2018
@<TRIPOS>BOND
     1     1     2    1
     2     1    41    1
     3     1    42    1
     4     1    43    1
     5     2     3    1
     6     2    44    1
     7     2    45    1
     8     3    21   am
     9     3     4    1
    10     4     5    1
    11     4    46    1
    12     4    47    1
    13     5     6    1
    14     5    48    1
    15     5    49    1
    16     6     7    1
    17     6    50    1
    18     6    51    1
    19     7     8    1
    20     7    52    1
    21     7    53    1
    22     8     9    1
    23     8    54    1
    24     8    55    1
    25     9    38    1
    26     9    10    1
    27     9    37    1
    28    10    11    1
    29    10    56    1
    30    10    57    1
    31    11    39    1
    32    11    12    1
    33    11    23    1
    34    12    13   am
    35    12    58    1
    36    13    14    2
    37    13    15    1
    38    15    20   ar
    39    15    16   ar
    40    16    17   ar
    41    16    59    1
    42    17    18   ar
    43    17    60    1
    44    18    19   ar
    45    18    61    1
    46    19    20   ar
    47    19    21    1
    48    20    62    1
    49    21    22    2
    50    23    40    1
    51    23    24    1
    52    23    36    1
    53    24    25    1
    54    24    63    1
    55    24    64    1
    56    25    26    1
    57    25    65    1
    58    25    83    1
    59    26    27    1
    60    26    66    1
    61    26    67    1
    62    27    32   ar
    63    27    28   ar
    64    28    29   ar
    65    28    68    1
    66    29    30   ar
    67    29    69    1
    68    30    31   ar
    69    30    70    1
    70    31    32   ar
    71    31    33    1
    72    32    71    1
    73    33    34    1
    74    33    35    1
    75    33    72    1
    76    34    73    1
    77    34    74    1
    78    34    75    1
    79    35    76    1
    80    35    77    1
    81    35    78    1
    82    36    79    1
    83    37    80    1
    84    37    81    1
    85    37    82    1
