@<TRIPOS>MOLECULE
BACE_20.smi:1
 78 79 0 0 0
SMALL
GASTEIGER
****
Structure written by MMmdl.
@<TRIPOS>ATOM
      1 C          22.8753   47.1374  -15.8373 C.3     1  UNL1       -0.0652
      2 C          23.5879   47.1755  -14.4796 C.3     1  UNL1       -0.0545
      3 C          24.6785   46.1029  -14.3612 C.3     1  UNL1       -0.0377
      4 C          25.5463   46.2679  -13.1043 C.3     1  UNL1        0.0104
      5 N          26.5807   45.2462  -13.0341 N.pl3   1  UNL1       -0.3289
      6 C          26.4425   44.0774  -12.2757 C.ar    1  UNL1        0.1232
      7 C          25.2486   43.6992  -11.6273 C.ar    1  UNL1       -0.0095
      8 C          25.2309   42.5214  -10.8446 C.ar    1  UNL1        0.0450
      9 C          26.4202   41.7584  -10.7673 C.ar    1  UNL1        0.0122
     10 C          27.5658   42.2189  -11.4476 C.ar    1  UNL1        0.2168
     11 N          27.5700   43.3500  -12.1901 N.ar    1  UNL1       -0.1981
     12 O          28.7420   41.5106  -11.3337 O.3     1  UNL1       -0.4796
     13 C          29.8880   41.9814  -12.0379 C.3     1  UNL1        0.0804
     14 C          23.9712   42.1305  -10.1131 C.2     1  UNL1        0.2446
     15 O          22.8974   42.6693  -10.3829 O.2     1  UNL1       -0.2702
     16 N          24.1199   41.2509   -9.1070 N.am    1  UNL1       -0.3057
     17 C          23.1159   40.8630   -8.1017 C.3     1  UNL1        0.0533
     18 C          22.7670   42.1308   -7.2585 C.3     1  UNL1       -0.0068
     19 C          22.1418   41.9829   -5.8732 C.ar    1  UNL1       -0.0455
     20 C          22.4620   40.9168   -5.0029 C.ar    1  UNL1       -0.0585
     21 C          21.8989   40.8504   -3.7153 C.ar    1  UNL1       -0.0615
     22 C          21.0185   41.8581   -3.2734 C.ar    1  UNL1       -0.0617
     23 C          20.7145   42.9381   -4.1219 C.ar    1  UNL1       -0.0615
     24 C          21.2717   42.9991   -5.4133 C.ar    1  UNL1       -0.0585
     25 C          21.8922   40.1280   -8.7471 C.3     1  UNL1        0.0745
     26 C          21.1284   39.1782   -7.7832 C.3     1  UNL1       -0.0143
     27 C          19.5937   39.3458   -7.6916 C.3     1  UNL1        0.0351
     28 C          19.1585   40.7879   -7.3844 C.3     1  UNL1       -0.0540
     29 C          18.8233   38.8158   -8.9109 C.2     1  UNL1        0.2159
     30 O          19.0404   39.2686  -10.0332 O.2     1  UNL1       -0.2755
     31 N          17.8480   37.9329   -8.6454 N.am    1  UNL1       -0.3151
     32 C          16.7137   37.6548   -9.5238 C.3     1  UNL1        0.0116
     33 C          15.3920   37.9935   -8.8114 C.3     1  UNL1       -0.0376
     34 C          15.2656   39.4728   -8.4018 C.3     1  UNL1       -0.0545
     35 C          14.4626   39.6794   -7.1134 C.3     1  UNL1       -0.0652
     36 O          22.2960   39.3511   -9.8581 O.3     1  UNL1       -0.3899
     37 H          23.6512   40.1475   -7.4801 H       1  UNL1        0.0527
     38 H          21.2205   40.8762   -9.1621 H       1  UNL1        0.0612
     39 H          19.2786   38.7451   -6.8364 H       1  UNL1        0.0392
     40 H          22.0622   47.8638  -15.8715 H       1  UNL1        0.0230
     41 H          22.4602   46.1496  -16.0360 H       1  UNL1        0.0230
     42 H          23.5639   47.3739  -16.6476 H       1  UNL1        0.0230
     43 H          22.8588   47.0461  -13.6784 H       1  UNL1        0.0263
     44 H          24.0249   48.1667  -14.3407 H       1  UNL1        0.0263
     45 H          25.3221   46.1512  -15.2403 H       1  UNL1        0.0280
     46 H          24.2195   45.1129  -14.3668 H       1  UNL1        0.0280
     47 H          24.9344   46.2793  -12.2047 H       1  UNL1        0.0461
     48 H          26.0375   47.2400  -13.1317 H       1  UNL1        0.0461
     49 H          27.5066   45.4758  -13.3629 H       1  UNL1        0.1475
     50 H          24.3510   44.2939  -11.7135 H       1  UNL1        0.0659
     51 H          26.4783   40.8382  -10.2031 H       1  UNL1        0.0678
     52 H          30.7426   41.3466  -11.8119 H       1  UNL1        0.0660
     53 H          30.1482   42.9963  -11.7389 H       1  UNL1        0.0660
     54 H          29.7316   41.9538  -13.1177 H       1  UNL1        0.0660
     55 H          25.0378   40.8513   -8.9959 H       1  UNL1        0.1494
     56 H          23.6812   42.7032   -7.0962 H       1  UNL1        0.0332
     57 H          22.1196   42.7820   -7.8495 H       1  UNL1        0.0332
     58 H          23.1555   40.1491   -5.3031 H       1  UNL1        0.0620
     59 H          22.1560   40.0320   -3.0609 H       1  UNL1        0.0618
     60 H          20.5911   41.8120   -2.2832 H       1  UNL1        0.0618
     61 H          20.0515   43.7209   -3.7815 H       1  UNL1        0.0618
     62 H          21.0301   43.8397   -6.0477 H       1  UNL1        0.0620
     63 H          21.5167   39.2885   -6.7779 H       1  UNL1        0.0298
     64 H          21.3573   38.1379   -8.0269 H       1  UNL1        0.0298
     65 H          19.6276   41.1368   -6.4676 H       1  UNL1        0.0237
     66 H          18.0838   40.8424   -7.2397 H       1  UNL1        0.0237
     67 H          19.3918   41.4886   -8.1823 H       1  UNL1        0.0237
     68 H          17.7441   37.6142   -7.6917 H       1  UNL1        0.1487
     69 H          16.7356   36.6011   -9.8068 H       1  UNL1        0.0462
     70 H          16.7765   38.2344  -10.4405 H       1  UNL1        0.0462
     71 H          15.2997   37.3533   -7.9372 H       1  UNL1        0.0280
     72 H          14.5453   37.7394   -9.4495 H       1  UNL1        0.0280
     73 H          14.7999   40.0302   -9.2136 H       1  UNL1        0.0263
     74 H          16.2390   39.9316   -8.2623 H       1  UNL1        0.0263
     75 H          14.4568   40.7344   -6.8419 H       1  UNL1        0.0230
     76 H          14.8944   39.1359   -6.2716 H       1  UNL1        0.0230
     77 H          13.4349   39.3498   -7.2300 H       1  UNL1        0.0230
     78 H          23.1052   38.8982   -9.6418 H       1  UNL1        0.2099
@<TRIPOS>BOND
     1     1     2    1
     2     1    40    1
     3     1    41    1
     4     1    42    1
     5     2     3    1
     6     2    43    1
     7     2    44    1
     8     3     4    1
     9     3    45    1
    10     3    46    1
    11     4     5    1
    12     4    47    1
    13     4    48    1
    14     5     6    1
    15     5    49    1
    16     6    11   ar
    17     6     7   ar
    18     7     8   ar
    19     7    50    1
    20     8     9   ar
    21     8    14    1
    22     9    10   ar
    23     9    51    1
    24    10    11   ar
    25    10    12    1
    26    12    13    1
    27    13    52    1
    28    13    53    1
    29    13    54    1
    30    14    15    2
    31    14    16   am
    32    16    17    1
    33    16    55    1
    34    17    37    1
    35    17    18    1
    36    17    25    1
    37    18    19    1
    38    18    56    1
    39    18    57    1
    40    19    24   ar
    41    19    20   ar
    42    20    21   ar
    43    20    58    1
    44    21    22   ar
    45    21    59    1
    46    22    23   ar
    47    22    60    1
    48    23    24   ar
    49    23    61    1
    50    24    62    1
    51    25    38    1
    52    25    26    1
    53    25    36    1
    54    26    27    1
    55    26    63    1
    56    26    64    1
    57    27    39    1
    58    27    28    1
    59    27    29    1
    60    28    65    1
    61    28    66    1
    62    28    67    1
    63    29    30    2
    64    29    31   am
    65    31    32    1
    66    31    68    1
    67    32    33    1
    68    32    69    1
    69    32    70    1
    70    33    34    1
    71    33    71    1
    72    33    72    1
    73    34    35    1
    74    34    73    1
    75    34    74    1
    76    35    75    1
    77    35    76    1
    78    35    77    1
    79    36    78    1
