@<TRIPOS>MOLECULE
BACE_16.smi:1
 84 87 0 0 0
SMALL
GASTEIGER
****
Structure written by MMmdl.
@<TRIPOS>ATOM
      1 C          22.8597   42.9422   -3.6276 C.3     1  UNL1       -0.0586
      2 C          21.4354   42.4456   -3.9216 C.3     1  UNL1       -0.0215
      3 C          21.1022   41.1816   -3.1108 C.3     1  UNL1       -0.0586
      4 C          21.2086   42.2310   -5.4115 C.ar    1  UNL1       -0.0445
      5 C          20.1948   42.9496   -6.0808 C.ar    1  UNL1       -0.0583
      6 C          19.9373   42.7113   -7.4440 C.ar    1  UNL1       -0.0612
      7 C          20.7055   41.7641   -8.1514 C.ar    1  UNL1       -0.0573
      8 C          21.7515   41.0713   -7.5041 C.ar    1  UNL1       -0.0333
      9 C          21.9867   41.2987   -6.1329 C.ar    1  UNL1       -0.0539
     10 C          22.6053   40.0544   -8.2464 C.3     1  UNL1        0.0213
     11 N          22.8241   40.3243   -9.6725 N.3     1  UNL1       -0.3095
     12 C          23.4115   41.6266  -10.0272 C.3     1  UNL1        0.0240
     13 C          24.8036   41.8726   -9.4087 C.3     1  UNL1        0.0862
     14 C          25.2785   43.3485   -9.5976 C.3     1  UNL1        0.0545
     15 C          26.1605   43.6226  -10.8521 C.3     1  UNL1       -0.0066
     16 C          27.6658   43.4716  -10.6446 C.ar    1  UNL1       -0.0421
     17 C          28.3219   42.2926  -11.0498 C.ar    1  UNL1       -0.0583
     18 C          29.7024   42.1464  -10.8382 C.ar    1  UNL1       -0.0580
     19 C          30.4405   43.1661  -10.2119 C.ar    1  UNL1       -0.0199
     20 C          29.8063   44.3752   -9.8292 C.ar    1  UNL1        0.1208
     21 C          28.4213   44.5148  -10.0632 C.ar    1  UNL1       -0.0167
     22 O          30.4497   45.4590   -9.2626 O.3     1  UNL1       -0.4920
     23 C          31.7141   45.2840   -8.6249 C.3     1  UNL1        0.0897
     24 C          31.5254   44.7907   -7.1807 C.3     1  UNL1       -0.0156
     25 C          31.0014   45.9039   -6.2541 C.3     1  UNL1       -0.0156
     26 C          30.6640   45.4114   -4.8349 C.3     1  UNL1        0.0897
     27 O          29.5312   44.5468   -4.8625 O.3     1  UNL1       -0.4918
     28 C          28.3018   45.1303   -5.0761 C.ar    1  UNL1        0.1247
     29 C          27.4557   44.5498   -6.0380 C.ar    1  UNL1       -0.0076
     30 C          26.1768   45.0825   -6.3075 C.ar    1  UNL1        0.0436
     31 C          25.7414   46.2025   -5.5653 C.ar    1  UNL1       -0.0076
     32 C          26.5631   46.7986   -4.5831 C.ar    1  UNL1        0.1253
     33 C          27.8533   46.2578   -4.3499 C.ar    1  UNL1        0.0218
     34 O          26.0432   47.8709   -3.8866 O.3     1  UNL1       -0.4844
     35 C          26.8625   48.4771   -2.8898 C.3     1  UNL1        0.1470
     36 C          26.0414   49.4892   -2.0881 C.2     1  UNL1        0.1673
     37 O          24.8807   49.7798   -2.3822 O.2     1  UNL1       -0.2941
     38 C          26.7255   50.1260   -0.8819 C.3     1  UNL1       -0.0026
     39 C          25.2807   44.4514   -7.3383 C.2     1  UNL1        0.2446
     40 O          24.0568   44.5363   -7.2508 O.2     1  UNL1       -0.2702
     41 N          25.9049   43.8779   -8.3823 N.am    1  UNL1       -0.3057
     42 O          25.6711   40.9501  -10.0393 O.3     1  UNL1       -0.3887
     43 H          24.7676   41.6526   -8.3425 H       1  UNL1        0.0624
     44 H          24.3746   43.9409   -9.7528 H       1  UNL1        0.0527
     45 H          23.0741   43.8625   -4.1710 H       1  UNL1        0.0235
     46 H          23.6117   42.2100   -3.9190 H       1  UNL1        0.0235
     47 H          22.9906   43.1438   -2.5662 H       1  UNL1        0.0235
     48 H          20.7493   43.2269   -3.5911 H       1  UNL1        0.0343
     49 H          20.0735   40.8644   -3.2906 H       1  UNL1        0.0235
     50 H          21.2067   41.3661   -2.0429 H       1  UNL1        0.0235
     51 H          21.7568   40.3490   -3.3721 H       1  UNL1        0.0235
     52 H          19.5915   43.6643   -5.5425 H       1  UNL1        0.0620
     53 H          19.1448   43.2452   -7.9439 H       1  UNL1        0.0618
     54 H          20.4952   41.5804   -9.1924 H       1  UNL1        0.0621
     55 H          22.7640   40.7466   -5.6285 H       1  UNL1        0.0623
     56 H          23.5595   39.9460   -7.7342 H       1  UNL1        0.0473
     57 H          22.1101   39.0872   -8.1437 H       1  UNL1        0.0473
     58 H          23.4105   39.5764  -10.0394 H       1  UNL1        0.1223
     59 H          23.4759   41.7170  -11.1132 H       1  UNL1        0.0450
     60 H          22.7358   42.4187   -9.7098 H       1  UNL1        0.0450
     61 H          25.8320   43.0118  -11.6941 H       1  UNL1        0.0332
     62 H          25.9922   44.6526  -11.1729 H       1  UNL1        0.0332
     63 H          27.7674   41.4899  -11.5162 H       1  UNL1        0.0620
     64 H          30.1925   41.2332  -11.1517 H       1  UNL1        0.0619
     65 H          31.4970   43.0027  -10.0692 H       1  UNL1        0.0654
     66 H          27.9336   45.4334   -9.7811 H       1  UNL1        0.0657
     67 H          32.3932   44.6406   -9.1809 H       1  UNL1        0.0696
     68 H          32.2108   46.2570   -8.6076 H       1  UNL1        0.0696
     69 H          30.8555   43.9299   -7.1675 H       1  UNL1        0.0299
     70 H          32.4801   44.4321   -6.7954 H       1  UNL1        0.0299
     71 H          31.7583   46.6875   -6.1790 H       1  UNL1        0.0299
     72 H          30.1247   46.3784   -6.6951 H       1  UNL1        0.0299
     73 H          31.5128   44.8602   -4.4269 H       1  UNL1        0.0696
     74 H          30.5264   46.2587   -4.1623 H       1  UNL1        0.0696
     75 H          27.8018   43.6879   -6.5798 H       1  UNL1        0.0662
     76 H          24.7564   46.6104   -5.7403 H       1  UNL1        0.0662
     77 H          28.5012   46.6767   -3.5952 H       1  UNL1        0.0691
     78 H          27.2562   47.7302   -2.2005 H       1  UNL1        0.0777
     79 H          27.7110   48.9824   -3.3561 H       1  UNL1        0.0777
     80 H          27.7052   50.5155   -1.1624 H       1  UNL1        0.0307
     81 H          26.8578   49.3867   -0.0905 H       1  UNL1        0.0307
     82 H          26.1253   50.9484   -0.4895 H       1  UNL1        0.0307
     83 H          26.9137   43.8711   -8.3737 H       1  UNL1        0.1494
     84 H          25.3569   40.0696   -9.8746 H       1  UNL1        0.2099
@<TRIPOS>BOND
     1     1     2    1
     2     1    45    1
     3     1    46    1
     4     1    47    1
     5     2     3    1
     6     2     4    1
     7     2    48    1
     8     3    49    1
     9     3    50    1
    10     3    51    1
    11     4     9   ar
    12     4     5   ar
    13     5     6   ar
    14     5    52    1
    15     6     7   ar
    16     6    53    1
    17     7     8   ar
    18     7    54    1
    19     8     9   ar
    20     8    10    1
    21     9    55    1
    22    10    11    1
    23    10    56    1
    24    10    57    1
    25    11    12    1
    26    11    58    1
    27    12    13    1
    28    12    59    1
    29    12    60    1
    30    13    43    1
    31    13    14    1
    32    13    42    1
    33    14    44    1
    34    14    41    1
    35    14    15    1
    36    15    16    1
    37    15    61    1
    38    15    62    1
    39    16    21   ar
    40    16    17   ar
    41    17    18   ar
    42    17    63    1
    43    18    19   ar
    44    18    64    1
    45    19    20   ar
    46    19    65    1
    47    20    21   ar
    48    20    22    1
    49    21    66    1
    50    22    23    1
    51    23    24    1
    52    23    67    1
    53    23    68    1
    54    24    25    1
    55    24    69    1
    56    24    70    1
    57    25    26    1
    58    25    71    1
    59    25    72    1
    60    26    27    1
    61    26    73    1
    62    26    74    1
    63    27    28    1
    64    28    33   ar
    65    28    29   ar
    66    29    30   ar
    67    29    75    1
    68    30    31   ar
    69    30    39    1
    70    31    32   ar
    71    31    76    1
    72    32    33   ar
    73    32    34    1
    74    33    77    1
    75    34    35    1
    76    35    36    1
    77    35    78    1
    78    35    79    1
    79    36    37    2
    80    36    38    1
    81    38    80    1
    82    38    81    1
    83    38    82    1
    84    39    40    2
    85    39    41   am
    86    41    83    1
    87    42    84    1
