@<TRIPOS>MOLECULE
BACE_18.smi:1
 66 67 0 0 0
SMALL
GASTEIGER
****
Structure written by MMmdl.
@<TRIPOS>ATOM
      1 O          12.8644   44.5440   -8.4397 O.3     1  UNL1       -0.3924
      2 C          13.9154   44.2237   -9.3293 C.3     1  UNL1        0.0719
      3 C          15.0807   43.5017   -8.6136 C.3     1  UNL1        0.0965
      4 O          16.3654   43.9933   -8.9243 O.3     1  UNL1       -0.3877
      5 C          15.0282   41.9464   -8.5332 C.3     1  UNL1        0.0517
      6 N          14.5079   41.2881   -9.7333 N.am    1  UNL1       -0.3059
      7 C          14.9913   41.2545  -10.9834 C.2     1  UNL1        0.2445
      8 O          14.4603   40.5503  -11.8419 O.2     1  UNL1       -0.2702
      9 C          16.2733   41.2243   -7.9448 C.3     1  UNL1       -0.0294
     10 C          16.1675   39.6713   -7.8421 C.3     1  UNL1       -0.0421
     11 C          14.8516   39.2254   -7.1731 C.3     1  UNL1       -0.0624
     12 C          17.3355   39.0192   -7.0627 C.3     1  UNL1       -0.0504
     13 C          18.7591   39.2189   -7.6014 C.3     1  UNL1       -0.0528
     14 C          19.1016   38.2548   -8.7486 C.3     1  UNL1       -0.0530
     15 C          20.5722   38.3486   -9.1995 C.3     1  UNL1       -0.0530
     16 C          20.7297   38.9575  -10.5924 C.3     1  UNL1       -0.0500
     17 C          20.3920   40.4477  -10.6308 C.3     1  UNL1       -0.0186
     18 C          20.1745   40.9385  -12.0618 C.3     1  UNL1        0.0896
     19 O          19.7944   42.3021  -12.0397 O.3     1  UNL1       -0.4919
     20 C          18.4676   42.6324  -11.8802 C.ar    1  UNL1        0.1219
     21 C          17.4402   41.7320  -11.4868 C.ar    1  UNL1       -0.0078
     22 C          16.1107   42.1865  -11.3637 C.ar    1  UNL1        0.0409
     23 C          18.1532   43.9829  -12.1262 C.ar    1  UNL1       -0.0078
     24 C          16.8316   44.4537  -11.9984 C.ar    1  UNL1        0.0410
     25 C          15.8193   43.5272  -11.6916 C.ar    1  UNL1       -0.0373
     26 C          16.4632   45.8985  -12.2166 C.2     1  UNL1        0.2463
     27 O          15.4295   46.1529  -12.8400 O.2     1  UNL1       -0.2700
     28 N          17.2366   46.8741  -11.6800 N.am    1  UNL1       -0.3036
     29 C          18.2644   46.6741  -10.6525 C.3     1  UNL1        0.0031
     30 C          16.9744   48.2814  -11.9876 C.3     1  UNL1        0.0031
     31 H          15.0195   43.9015   -7.6378 H       1  UNL1        0.0635
     32 H          14.2395   41.7745   -7.8047 H       1  UNL1        0.0525
     33 H          16.1771   39.2596   -8.8512 H       1  UNL1        0.0299
     34 H          12.4489   43.7355   -8.1674 H       1  UNL1        0.2095
     35 H          13.4748   43.6273  -10.1258 H       1  UNL1        0.0583
     36 H          14.2811   45.1456   -9.7780 H       1  UNL1        0.0583
     37 H          16.9805   43.6048   -8.3200 H       1  UNL1        0.2100
     38 H          13.7089   40.6903   -9.5642 H       1  UNL1        0.1494
     39 H          17.1459   41.4735   -8.5451 H       1  UNL1        0.0286
     40 H          16.4608   41.6328   -6.9502 H       1  UNL1        0.0286
     41 H          14.7226   39.6912   -6.1937 H       1  UNL1        0.0232
     42 H          14.8349   38.1497   -7.0147 H       1  UNL1        0.0232
     43 H          13.9774   39.4546   -7.7783 H       1  UNL1        0.0232
     44 H          17.2959   39.3503   -6.0331 H       1  UNL1        0.0268
     45 H          17.1702   37.9464   -7.0009 H       1  UNL1        0.0268
     46 H          18.9304   40.2569   -7.8808 H       1  UNL1        0.0265
     47 H          19.4492   39.0225   -6.7791 H       1  UNL1        0.0265
     48 H          18.9016   37.2350   -8.4209 H       1  UNL1        0.0265
     49 H          18.4247   38.4218   -9.5886 H       1  UNL1        0.0265
     50 H          21.1743   38.8950   -8.4727 H       1  UNL1        0.0265
     51 H          20.9956   37.3483   -9.2348 H       1  UNL1        0.0265
     52 H          21.7559   38.8242  -10.9340 H       1  UNL1        0.0266
     53 H          20.0926   38.4110  -11.2912 H       1  UNL1        0.0266
     54 H          19.4984   40.6408  -10.0433 H       1  UNL1        0.0298
     55 H          21.1868   41.0205  -10.1546 H       1  UNL1        0.0298
     56 H          21.1077   40.8543  -12.6201 H       1  UNL1        0.0696
     57 H          19.4481   40.3291  -12.6019 H       1  UNL1        0.0696
     58 H          17.6494   40.6931  -11.2822 H       1  UNL1        0.0662
     59 H          18.9472   44.6562  -12.4140 H       1  UNL1        0.0662
     60 H          14.7966   43.8618  -11.7091 H       1  UNL1        0.0633
     61 H          18.0581   45.8109  -10.0194 H       1  UNL1        0.0428
     62 H          18.3247   47.5358   -9.9866 H       1  UNL1        0.0428
     63 H          19.2452   46.5424  -11.1119 H       1  UNL1        0.0428
     64 H          16.6289   48.4197  -13.0140 H       1  UNL1        0.0428
     65 H          17.8741   48.8861  -11.8743 H       1  UNL1        0.0428
     66 H          16.2135   48.6761  -11.3141 H       1  UNL1        0.0428
@<TRIPOS>BOND
     1     1     2    1
     2     1    34    1
     3     2     3    1
     4     2    35    1
     5     2    36    1
     6     3    31    1
     7     3     4    1
     8     3     5    1
     9     4    37    1
    10     5    32    1
    11     5     6    1
    12     5     9    1
    13     6     7   am
    14     6    38    1
    15     7    22    1
    16     7     8    2
    17     9    10    1
    18     9    39    1
    19     9    40    1
    20    10    33    1
    21    10    11    1
    22    10    12    1
    23    11    41    1
    24    11    42    1
    25    11    43    1
    26    12    13    1
    27    12    44    1
    28    12    45    1
    29    13    14    1
    30    13    46    1
    31    13    47    1
    32    14    15    1
    33    14    48    1
    34    14    49    1
    35    15    16    1
    36    15    50    1
    37    15    51    1
    38    16    17    1
    39    16    52    1
    40    16    53    1
    41    17    18    1
    42    17    54    1
    43    17    55    1
    44    18    19    1
    45    18    56    1
    46    18    57    1
    47    19    20    1
    48    20    21   ar
    49    20    23   ar
    50    21    22   ar
    51    21    58    1
    52    22    25   ar
    53    23    24   ar
    54    23    59    1
    55    24    25   ar
    56    24    26    1
    57    25    60    1
    58    26    27    2
    59    26    28   am
    60    28    29    1
    61    28    30    1
    62    29    61    1
    63    29    62    1
    64    29    63    1
    65    30    64    1
    66    30    65    1
    67    30    66    1
