@<TRIPOS>MOLECULE
BACE_14.smi:1
 86 90 0 0 0
SMALL
GASTEIGER
****
Structure written by MMmdl.
@<TRIPOS>ATOM
      1 C          21.8562   38.9858   -7.7953 C.3     1  UNL1       -0.0586
      2 C          20.9263   40.1984   -7.9783 C.3     1  UNL1       -0.0215
      3 C          21.5923   41.3113   -8.8070 C.3     1  UNL1       -0.0586
      4 C          19.5654   39.7975   -8.5449 C.ar    1  UNL1       -0.0443
      5 C          19.4600   39.1644   -9.8038 C.ar    1  UNL1       -0.0583
      6 C          18.1987   38.8008  -10.3118 C.ar    1  UNL1       -0.0610
      7 C          17.0340   39.0668   -9.5674 C.ar    1  UNL1       -0.0529
      8 C          17.1172   39.6988   -8.3074 C.ar    1  UNL1        0.0034
      9 C          18.3885   40.0593   -7.8069 C.ar    1  UNL1       -0.0495
     10 C          15.8631   39.9935   -7.4970 C.3     1  UNL1        0.0145
     11 C          15.7592   39.3798   -6.1212 C.3     1  UNL1        0.0032
     12 C          14.9060   38.8519   -7.2497 C.3     1  UNL1        0.0032
     13 N          15.2891   41.3340   -7.6900 N.4     1  UNL1        0.2365
     14 C          16.2619   42.4451   -7.8017 C.3     1  UNL1       -0.0044
     15 C          17.1375   42.2978   -9.0678 C.3     1  UNL1        0.1133
     16 C          18.3023   43.3192   -9.2213 C.3     1  UNL1        0.0583
     17 C          19.1414   43.0418  -10.4994 C.3     1  UNL1       -0.0065
     18 C          20.2694   44.0384  -10.7333 C.ar    1  UNL1       -0.0421
     19 C          19.9871   45.3083  -11.2755 C.ar    1  UNL1       -0.0583
     20 C          21.0286   46.2310  -11.4843 C.ar    1  UNL1       -0.0580
     21 C          22.3547   45.8930  -11.1519 C.ar    1  UNL1       -0.0199
     22 C          22.6538   44.6217  -10.6033 C.ar    1  UNL1        0.1208
     23 C          21.6019   43.7021  -10.4088 C.ar    1  UNL1       -0.0167
     24 O          23.9182   44.2034  -10.2443 O.3     1  UNL1       -0.4920
     25 C          24.9823   45.1519  -10.1497 C.3     1  UNL1        0.0896
     26 C          24.8290   46.0713   -8.9224 C.3     1  UNL1       -0.0172
     27 C          24.7187   45.2929   -7.6027 C.3     1  UNL1       -0.0344
     28 C          24.3753   46.2032   -6.4080 C.3     1  UNL1        0.0092
     29 N          23.9268   45.4488   -5.2407 N.pl3   1  UNL1       -0.3438
     30 C          22.7187   44.7335   -5.2734 C.ar    1  UNL1        0.0285
     31 C          21.7232   44.9722   -6.2489 C.ar    1  UNL1       -0.0287
     32 C          20.5599   44.1781   -6.3060 C.ar    1  UNL1        0.0391
     33 C          20.3604   43.1654   -5.3420 C.ar    1  UNL1       -0.0390
     34 C          21.3293   42.9462   -4.3435 C.ar    1  UNL1        0.0196
     35 C          22.5042   43.7232   -4.3135 C.ar    1  UNL1       -0.0303
     36 C          21.1236   41.8993   -3.3425 C.2     1  UNL1        0.1602
     37 O          21.0143   40.7051   -3.6205 O.2     1  UNL1       -0.2924
     38 C          21.0348   42.3113   -1.8726 C.3     1  UNL1       -0.0014
     39 C          19.5579   44.4275   -7.3907 C.2     1  UNL1        0.2445
     40 O          19.2435   45.5645   -7.7019 O.2     1  UNL1       -0.2702
     41 N          19.1751   43.3223   -8.0398 N.am    1  UNL1       -0.3055
     42 O          16.3195   42.3695  -10.2206 O.3     1  UNL1       -0.3847
     43 H          17.5635   41.2936   -9.0776 H       1  UNL1        0.0666
     44 H          17.8555   44.3052   -9.3630 H       1  UNL1        0.0529
     45 H          22.7956   39.2802   -7.3263 H       1  UNL1        0.0235
     46 H          22.1009   38.5102   -8.7454 H       1  UNL1        0.0235
     47 H          21.3966   38.2323   -7.1547 H       1  UNL1        0.0235
     48 H          20.7584   40.6123   -6.9832 H       1  UNL1        0.0343
     49 H          22.5286   41.6328   -8.3498 H       1  UNL1        0.0235
     50 H          20.9476   42.1883   -8.8758 H       1  UNL1        0.0235
     51 H          21.8200   40.9854   -9.8223 H       1  UNL1        0.0235
     52 H          20.3427   38.9523  -10.3890 H       1  UNL1        0.0620
     53 H          18.1244   38.3166  -11.2744 H       1  UNL1        0.0618
     54 H          16.0732   38.7805   -9.9699 H       1  UNL1        0.0622
     55 H          18.4557   40.5424   -6.8426 H       1  UNL1        0.0625
     56 H          16.5880   38.7584   -5.7817 H       1  UNL1        0.0329
     57 H          15.2645   39.9628   -5.3444 H       1  UNL1        0.0329
     58 H          13.8408   39.0821   -7.2274 H       1  UNL1        0.0329
     59 H          15.1643   37.8777   -7.6648 H       1  UNL1        0.0329
     60 H          14.6894   41.5280   -6.9008 H       1  UNL1        0.2023
     61 H          16.8958   42.4346   -6.9152 H       1  UNL1        0.0840
     62 H          15.7291   43.3972   -7.8069 H       1  UNL1        0.0840
     63 H          19.5585   42.0359  -10.4526 H       1  UNL1        0.0332
     64 H          18.4857   43.0482  -11.3701 H       1  UNL1        0.0332
     65 H          18.9736   45.5806  -11.5303 H       1  UNL1        0.0620
     66 H          20.8101   47.2035  -11.9001 H       1  UNL1        0.0619
     67 H          23.1236   46.6304  -11.3295 H       1  UNL1        0.0654
     68 H          21.8237   42.7310   -9.9915 H       1  UNL1        0.0657
     69 H          25.9094   44.5870  -10.0525 H       1  UNL1        0.0696
     70 H          25.0906   45.7254  -11.0703 H       1  UNL1        0.0696
     71 H          25.6759   46.7553   -8.8677 H       1  UNL1        0.0298
     72 H          23.9469   46.6989   -9.0497 H       1  UNL1        0.0298
     73 H          23.9751   44.5014   -7.6966 H       1  UNL1        0.0281
     74 H          25.6689   44.7876   -7.4295 H       1  UNL1        0.0281
     75 H          25.2551   46.7849   -6.1327 H       1  UNL1        0.0461
     76 H          23.6159   46.9358   -6.6815 H       1  UNL1        0.0461
     77 H          24.6225   45.1886   -4.5564 H       1  UNL1        0.1461
     78 H          21.8480   45.7395   -6.9986 H       1  UNL1        0.0643
     79 H          19.4666   42.5595   -5.3589 H       1  UNL1        0.0632
     80 H          23.2432   43.5245   -3.5514 H       1  UNL1        0.0643
     81 H          20.2202   43.0193   -1.7183 H       1  UNL1        0.0309
     82 H          21.9684   42.7677   -1.5428 H       1  UNL1        0.0309
     83 H          20.8462   41.4399   -1.2448 H       1  UNL1        0.0309
     84 H          19.5532   42.4438   -7.7154 H       1  UNL1        0.1494
     85 H          15.4205   42.4639   -9.9449 H       1  UNL1        0.2101
     86 H          14.7211   41.3213   -8.5250 H       1  UNL1        0.2023
@<TRIPOS>BOND
     1     1     2    1
     2     1    45    1
     3     1    46    1
     4     1    47    1
     5     2     3    1
     6     2     4    1
     7     2    48    1
     8     3    49    1
     9     3    50    1
    10     3    51    1
    11     4     9   ar
    12     4     5   ar
    13     5     6   ar
    14     5    52    1
    15     6     7   ar
    16     6    53    1
    17     7     8   ar
    18     7    54    1
    19     8     9   ar
    20     8    10    1
    21     9    55    1
    22    10    12    1
    23    10    11    1
    24    10    13    1
    25    11    12    1
    26    11    56    1
    27    11    57    1
    28    12    58    1
    29    12    59    1
    30    13    14    1
    31    13    60    1
    32    13    86    1
    33    14    15    1
    34    14    61    1
    35    14    62    1
    36    15    43    1
    37    15    16    1
    38    15    42    1
    39    16    44    1
    40    16    41    1
    41    16    17    1
    42    17    18    1
    43    17    63    1
    44    17    64    1
    45    18    23   ar
    46    18    19   ar
    47    19    20   ar
    48    19    65    1
    49    20    21   ar
    50    20    66    1
    51    21    22   ar
    52    21    67    1
    53    22    23   ar
    54    22    24    1
    55    23    68    1
    56    24    25    1
    57    25    26    1
    58    25    69    1
    59    25    70    1
    60    26    27    1
    61    26    71    1
    62    26    72    1
    63    27    28    1
    64    27    73    1
    65    27    74    1
    66    28    29    1
    67    28    75    1
    68    28    76    1
    69    29    30    1
    70    29    77    1
    71    30    35   ar
    72    30    31   ar
    73    31    32   ar
    74    31    78    1
    75    32    33   ar
    76    32    39    1
    77    33    34   ar
    78    33    79    1
    79    34    35   ar
    80    34    36    1
    81    35    80    1
    82    36    37    2
    83    36    38    1
    84    38    81    1
    85    38    82    1
    86    38    83    1
    87    39    40    2
    88    39    41   am
    89    41    84    1
    90    42    85    1
