@<TRIPOS>MOLECULE
BACE_5.smi:1
 79 80 0 0 0
SMALL
GASTEIGER
****
Structure written by MMmdl.
@<TRIPOS>ATOM
      1 C          29.5369   42.0691  -13.3946 C.3     1  UNL1       -0.0649
      2 C          30.1648   42.5963  -12.0959 C.3     1  UNL1       -0.0504
      3 C          29.5404   41.9981  -10.8248 C.3     1  UNL1       -0.0089
      4 C          28.1061   42.4118  -10.6235 C.ar    1  UNL1        0.0631
      5 C          26.9280   41.7501  -11.0774 C.ar    1  UNL1       -0.0168
      6 C          25.9015   42.5448  -10.6563 C.ar    1  UNL1        0.0501
      7 N          26.4860   43.5882   -9.9790 N.ar    1  UNL1       -0.2801
      8 N          27.8301   43.5240   -9.9573 N.ar    1  UNL1       -0.1786
      9 C          24.4203   42.4333  -10.8410 C.3     1  UNL1        0.0380
     10 N          23.6616   42.7341   -9.6247 N.3     1  UNL1       -0.3081
     11 C          23.6885   41.6872   -8.6006 C.3     1  UNL1        0.0240
     12 C          22.8284   40.4450   -8.9399 C.3     1  UNL1        0.0859
     13 C          21.2936   40.6569   -8.7963 C.3     1  UNL1        0.0505
     14 C          20.4889   39.3273   -8.8493 C.3     1  UNL1       -0.0295
     15 C          18.9898   39.4422   -8.4771 C.3     1  UNL1       -0.0421
     16 C          18.0938   39.6222   -9.7206 C.3     1  UNL1       -0.0504
     17 C          16.6614   40.0825   -9.3956 C.3     1  UNL1       -0.0528
     18 C          15.8689   40.3942  -10.6756 C.3     1  UNL1       -0.0530
     19 C          14.4551   40.9618  -10.4537 C.3     1  UNL1       -0.0510
     20 C          14.3635   42.2588   -9.6269 C.3     1  UNL1       -0.0294
     21 C          15.3691   43.3564  -10.0074 C.3     1  UNL1        0.0483
     22 O          15.2482   43.7338  -11.3788 O.3     1  UNL1       -0.3706
     23 C          16.2122   44.6939  -11.8187 C.3     1  UNL1        0.1238
     24 C          17.6104   44.0578  -11.9429 C.2     1  UNL1        0.2417
     25 O          17.8074   43.3495  -12.9333 O.2     1  UNL1       -0.2731
     26 N          18.5373   44.2500  -10.9669 N.am    1  UNL1       -0.2914
     27 C          19.8249   43.5067  -10.9647 C.3     1  UNL1        0.0991
     28 C          20.0839   42.6692   -9.6904 C.2     1  UNL1        0.2336
     29 O          19.6575   43.0169   -8.5948 O.2     1  UNL1       -0.2738
     30 N          20.8338   41.5642   -9.8555 N.am    1  UNL1       -0.3084
     31 C          20.9857   44.4775  -11.2478 C.3     1  UNL1       -0.0379
     32 C          18.3409   45.2606   -9.9197 C.3     1  UNL1        0.0040
     33 C          18.5371   38.2219   -7.6548 C.3     1  UNL1       -0.0624
     34 O          23.2593   39.4435   -8.0400 O.3     1  UNL1       -0.3887
     35 H          25.9757   44.3336   -9.5270 H       1  UNL1        0.1886
     36 H          23.0519   40.0757   -9.9401 H       1  UNL1        0.0624
     37 H          21.1206   41.1072   -7.8153 H       1  UNL1        0.0524
     38 H          18.8739   40.3143   -7.8311 H       1  UNL1        0.0299
     39 H          19.8315   42.7863  -11.7822 H       1  UNL1        0.0594
     40 H          30.0609   42.4615  -14.2668 H       1  UNL1        0.0230
     41 H          28.4915   42.3634  -13.4793 H       1  UNL1        0.0230
     42 H          29.5835   40.9803  -13.4434 H       1  UNL1        0.0230
     43 H          30.0902   43.6839  -12.0654 H       1  UNL1        0.0266
     44 H          31.2303   42.3640  -12.1067 H       1  UNL1        0.0266
     45 H          30.1314   42.3080   -9.9625 H       1  UNL1        0.0329
     46 H          29.6193   40.9120  -10.8613 H       1  UNL1        0.0329
     47 H          26.8595   40.8313  -11.6398 H       1  UNL1        0.0654
     48 H          24.1628   41.4521  -11.2323 H       1  UNL1        0.0489
     49 H          24.1298   43.1369  -11.6206 H       1  UNL1        0.0489
     50 H          22.6946   42.9436   -9.8591 H       1  UNL1        0.1224
     51 H          23.3529   42.1003   -7.6476 H       1  UNL1        0.0450
     52 H          24.7225   41.3858   -8.4389 H       1  UNL1        0.0450
     53 H          20.6053   38.8491   -9.8238 H       1  UNL1        0.0286
     54 H          20.9453   38.6306   -8.1439 H       1  UNL1        0.0286
     55 H          18.5394   40.3560  -10.3892 H       1  UNL1        0.0268
     56 H          18.0651   38.6937  -10.2904 H       1  UNL1        0.0268
     57 H          16.7108   40.9632   -8.7563 H       1  UNL1        0.0265
     58 H          16.1356   39.3177   -8.8235 H       1  UNL1        0.0265
     59 H          16.4396   41.0763  -11.3072 H       1  UNL1        0.0265
     60 H          15.7764   39.4672  -11.2396 H       1  UNL1        0.0265
     61 H          13.8310   40.2033   -9.9776 H       1  UNL1        0.0266
     62 H          14.0017   41.1383  -11.4298 H       1  UNL1        0.0266
     63 H          13.3502   42.6551   -9.7013 H       1  UNL1        0.0287
     64 H          14.5036   42.0155   -8.5718 H       1  UNL1        0.0287
     65 H          16.3733   43.0019   -9.7817 H       1  UNL1        0.0560
     66 H          15.2025   44.2294   -9.3772 H       1  UNL1        0.0560
     67 H          16.1805   45.5819  -11.1919 H       1  UNL1        0.0657
     68 H          15.9156   45.0315  -12.8132 H       1  UNL1        0.0657
     69 H          21.1255   41.3338  -10.7935 H       1  UNL1        0.1491
     70 H          21.8807   43.9397  -11.5594 H       1  UNL1        0.0252
     71 H          21.2489   45.0648  -10.3682 H       1  UNL1        0.0252
     72 H          20.7350   45.1806  -12.0405 H       1  UNL1        0.0252
     73 H          19.2499   45.4462   -9.3440 H       1  UNL1        0.0429
     74 H          17.5780   44.9524   -9.2047 H       1  UNL1        0.0429
     75 H          18.0574   46.2248  -10.3413 H       1  UNL1        0.0429
     76 H          17.5121   38.3259   -7.3005 H       1  UNL1        0.0232
     77 H          19.1592   38.0911   -6.7693 H       1  UNL1        0.0232
     78 H          18.5930   37.3070   -8.2427 H       1  UNL1        0.0232
     79 H          23.9375   38.9505   -8.4899 H       1  UNL1        0.2099
@<TRIPOS>BOND
     1     1     2    1
     2     1    40    1
     3     1    41    1
     4     1    42    1
     5     2     3    1
     6     2    43    1
     7     2    44    1
     8     3    45    1
     9     3    46    1
    10     3     4    1
    11     4     8   ar
    12     4     5   ar
    13     5     6   ar
    14     5    47    1
    15     6     7   ar
    16     6     9    1
    17     7     8   ar
    18     7    35    1
    19     9    10    1
    20     9    48    1
    21     9    49    1
    22    10    11    1
    23    10    50    1
    24    11    12    1
    25    11    51    1
    26    11    52    1
    27    12    36    1
    28    12    13    1
    29    12    34    1
    30    13    37    1
    31    13    30    1
    32    13    14    1
    33    14    15    1
    34    14    53    1
    35    14    54    1
    36    15    38    1
    37    15    16    1
    38    15    33    1
    39    16    17    1
    40    16    55    1
    41    16    56    1
    42    17    18    1
    43    17    57    1
    44    17    58    1
    45    18    19    1
    46    18    59    1
    47    18    60    1
    48    19    20    1
    49    19    61    1
    50    19    62    1
    51    20    21    1
    52    20    63    1
    53    20    64    1
    54    21    22    1
    55    21    65    1
    56    21    66    1
    57    22    23    1
    58    23    24    1
    59    23    67    1
    60    23    68    1
    61    24    25    2
    62    24    26   am
    63    26    27    1
    64    26    32    1
    65    27    39    1
    66    27    28    1
    67    27    31    1
    68    28    29    2
    69    28    30   am
    70    30    69    1
    71    31    70    1
    72    31    71    1
    73    31    72    1
    74    32    73    1
    75    32    74    1
    76    32    75    1
    77    33    76    1
    78    33    77    1
    79    33    78    1
    80    34    79    1
