@<TRIPOS>MOLECULE
BACE_14.smi:1
 85 89 0 0 0
SMALL
GASTEIGER
****
Structure written by MMmdl.
@<TRIPOS>ATOM
      1 C          23.9104   46.7542  -15.4036 C.3     1  UNL1       -0.0586
      2 C          24.7680   46.7485  -14.1288 C.3     1  UNL1       -0.0215
      3 C          25.1619   48.1690  -13.6978 C.3     1  UNL1       -0.0586
      4 C          24.0828   45.9887  -13.0014 C.ar    1  UNL1       -0.0445
      5 C          22.8300   46.4056  -12.5088 C.ar    1  UNL1       -0.0583
      6 C          22.1964   45.6667  -11.4955 C.ar    1  UNL1       -0.0612
      7 C          22.8083   44.5161  -10.9696 C.ar    1  UNL1       -0.0568
      8 C          24.0811   44.0890  -11.4259 C.ar    1  UNL1       -0.0271
      9 C          24.7023   44.8486  -12.4450 C.ar    1  UNL1       -0.0534
     10 C          24.7815   42.8845  -10.8160 C.3     1  UNL1        0.0447
     11 C          26.0408   42.2856  -11.4210 C.3     1  UNL1       -0.0285
     12 C          26.1288   43.0923  -10.1502 C.3     1  UNL1       -0.0285
     13 N          23.8602   41.8817  -10.2732 N.3     1  UNL1       -0.3042
     14 C          23.5534   41.9603   -8.8428 C.3     1  UNL1        0.0245
     15 C          22.7199   40.7374   -8.4127 C.3     1  UNL1        0.0862
     16 C          21.7595   40.9812   -7.2185 C.3     1  UNL1        0.0545
     17 C          21.0017   39.6947   -6.7854 C.3     1  UNL1       -0.0066
     18 C          19.9304   39.2190   -7.7622 C.ar    1  UNL1       -0.0421
     19 C          20.2746   38.4554   -8.8956 C.ar    1  UNL1       -0.0583
     20 C          19.2743   38.0353   -9.7913 C.ar    1  UNL1       -0.0580
     21 C          17.9253   38.3543   -9.5535 C.ar    1  UNL1       -0.0199
     22 C          17.5636   39.1142   -8.4177 C.ar    1  UNL1        0.1208
     23 C          18.5757   39.5287   -7.5284 C.ar    1  UNL1       -0.0167
     24 O          16.2731   39.4898   -8.1152 O.3     1  UNL1       -0.4920
     25 C          15.3071   39.5698   -9.1616 C.3     1  UNL1        0.0896
     26 C          15.6612   40.6796  -10.1722 C.3     1  UNL1       -0.0172
     27 C          15.8022   42.0661   -9.5200 C.3     1  UNL1       -0.0344
     28 C          16.5537   43.0566  -10.4269 C.3     1  UNL1        0.0092
     29 N          16.7032   44.3771   -9.8251 N.pl3   1  UNL1       -0.3438
     30 C          17.5983   44.6341   -8.7754 C.ar    1  UNL1        0.0285
     31 C          18.5129   43.6722   -8.2807 C.ar    1  UNL1       -0.0287
     32 C          19.3738   43.9795   -7.2029 C.ar    1  UNL1        0.0391
     33 C          19.2965   45.2593   -6.6043 C.ar    1  UNL1       -0.0390
     34 C          18.4130   46.2416   -7.1084 C.ar    1  UNL1        0.0196
     35 C          17.5669   45.9152   -8.1909 C.ar    1  UNL1       -0.0303
     36 C          18.3009   47.5699   -6.4508 C.2     1  UNL1        0.1602
     37 O          18.4601   47.7497   -5.2434 O.2     1  UNL1       -0.2924
     38 C          17.9590   48.7658   -7.3380 C.3     1  UNL1       -0.0014
     39 C          20.3310   42.9535   -6.6479 C.2     1  UNL1        0.2445
     40 O          20.6876   43.0022   -5.4724 O.2     1  UNL1       -0.2702
     41 N          20.8075   42.0558   -7.5290 N.am    1  UNL1       -0.3057
     42 O          23.6589   39.7502   -8.0398 O.3     1  UNL1       -0.3887
     43 H          22.1418   40.3763   -9.2620 H       1  UNL1        0.0624
     44 H          22.3800   41.2949   -6.3777 H       1  UNL1        0.0527
     45 H          24.4316   47.2405  -16.2259 H       1  UNL1        0.0235
     46 H          22.9680   47.2813  -15.2525 H       1  UNL1        0.0235
     47 H          23.6721   45.7385  -15.7195 H       1  UNL1        0.0235
     48 H          25.6913   46.2199  -14.3726 H       1  UNL1        0.0343
     49 H          25.6915   48.6859  -14.4962 H       1  UNL1        0.0235
     50 H          25.8231   48.1447  -12.8313 H       1  UNL1        0.0235
     51 H          24.2890   48.7684  -13.4365 H       1  UNL1        0.0235
     52 H          22.3431   47.2767  -12.9219 H       1  UNL1        0.0620
     53 H          21.2320   45.9785  -11.1241 H       1  UNL1        0.0618
     54 H          22.2838   43.9712  -10.2026 H       1  UNL1        0.0621
     55 H          25.6775   44.5671  -12.8134 H       1  UNL1        0.0624
     56 H          26.2106   41.2156  -11.3063 H       1  UNL1        0.0287
     57 H          26.4636   42.7107  -12.3249 H       1  UNL1        0.0287
     58 H          26.5872   44.0793  -10.2246 H       1  UNL1        0.0287
     59 H          26.3666   42.5481   -9.2422 H       1  UNL1        0.0287
     60 H          24.1735   40.9502  -10.5338 H       1  UNL1        0.1229
     61 H          23.0155   42.8828   -8.6365 H       1  UNL1        0.0450
     62 H          24.4628   42.0198   -8.2441 H       1  UNL1        0.0450
     63 H          21.7018   38.8776   -6.6040 H       1  UNL1        0.0332
     64 H          20.5294   39.8769   -5.8202 H       1  UNL1        0.0332
     65 H          21.3059   38.1913   -9.0816 H       1  UNL1        0.0620
     66 H          19.5402   37.4604  -10.6646 H       1  UNL1        0.0619
     67 H          17.1862   38.0057  -10.2571 H       1  UNL1        0.0654
     68 H          18.3027   40.1109   -6.6655 H       1  UNL1        0.0657
     69 H          15.1778   38.6065   -9.6551 H       1  UNL1        0.0696
     70 H          14.3438   39.7924   -8.7026 H       1  UNL1        0.0696
     71 H          16.5875   40.4234  -10.6850 H       1  UNL1        0.0298
     72 H          14.8966   40.7194  -10.9473 H       1  UNL1        0.0298
     73 H          14.8156   42.4536   -9.2674 H       1  UNL1        0.0281
     74 H          16.3355   41.9710   -8.5741 H       1  UNL1        0.0281
     75 H          17.5355   42.6673  -10.7001 H       1  UNL1        0.0461
     76 H          16.0037   43.1770  -11.3598 H       1  UNL1        0.0461
     77 H          16.0529   45.0973  -10.0997 H       1  UNL1        0.1461
     78 H          18.5449   42.6833   -8.7123 H       1  UNL1        0.0643
     79 H          19.9327   45.4966   -5.7616 H       1  UNL1        0.0632
     80 H          16.8622   46.6408   -8.5662 H       1  UNL1        0.0643
     81 H          16.9203   48.7155   -7.6667 H       1  UNL1        0.0309
     82 H          18.6069   48.7847   -8.2161 H       1  UNL1        0.0309
     83 H          18.1014   49.6961   -6.7875 H       1  UNL1        0.0309
     84 H          20.4546   42.0913   -8.4734 H       1  UNL1        0.1494
     85 H          24.0622   39.3747   -8.8142 H       1  UNL1        0.2099
@<TRIPOS>BOND
     1     1     2    1
     2     1    45    1
     3     1    46    1
     4     1    47    1
     5     2     3    1
     6     2     4    1
     7     2    48    1
     8     3    49    1
     9     3    50    1
    10     3    51    1
    11     4     9   ar
    12     4     5   ar
    13     5     6   ar
    14     5    52    1
    15     6     7   ar
    16     6    53    1
    17     7     8   ar
    18     7    54    1
    19     8     9   ar
    20     8    10    1
    21     9    55    1
    22    10    12    1
    23    10    11    1
    24    10    13    1
    25    11    12    1
    26    11    56    1
    27    11    57    1
    28    12    58    1
    29    12    59    1
    30    13    14    1
    31    13    60    1
    32    14    15    1
    33    14    61    1
    34    14    62    1
    35    15    43    1
    36    15    16    1
    37    15    42    1
    38    16    44    1
    39    16    41    1
    40    16    17    1
    41    17    18    1
    42    17    63    1
    43    17    64    1
    44    18    23   ar
    45    18    19   ar
    46    19    20   ar
    47    19    65    1
    48    20    21   ar
    49    20    66    1
    50    21    22   ar
    51    21    67    1
    52    22    23   ar
    53    22    24    1
    54    23    68    1
    55    24    25    1
    56    25    26    1
    57    25    69    1
    58    25    70    1
    59    26    27    1
    60    26    71    1
    61    26    72    1
    62    27    28    1
    63    27    73    1
    64    27    74    1
    65    28    29    1
    66    28    75    1
    67    28    76    1
    68    29    30    1
    69    29    77    1
    70    30    35   ar
    71    30    31   ar
    72    31    32   ar
    73    31    78    1
    74    32    33   ar
    75    32    39    1
    76    33    34   ar
    77    33    79    1
    78    34    35   ar
    79    34    36    1
    80    35    80    1
    81    36    37    2
    82    36    38    1
    83    38    81    1
    84    38    82    1
    85    38    83    1
    86    39    40    2
    87    39    41   am
    88    41    84    1
    89    42    85    1
