@<TRIPOS>MOLECULE
BACE_11.smi:1
 80 82 0 0 0
SMALL
GASTEIGER
****
Structure written by MMmdl.
@<TRIPOS>ATOM
      1 C          21.7822   41.8958  -11.9381 C.3     1  UNL1       -0.0379
      2 C          22.0390   42.1098  -10.4297 C.3     1  UNL1        0.0991
      3 C          21.1988   41.1968   -9.5117 C.2     1  UNL1        0.2336
      4 O          19.9893   41.1004   -9.7243 O.2     1  UNL1       -0.2738
      5 N          21.7969   40.5763   -8.4807 N.am    1  UNL1       -0.3081
      6 C          21.1661   39.8155   -7.3884 C.3     1  UNL1        0.0542
      7 C          20.4591   40.7362   -6.3641 C.3     1  UNL1       -0.0066
      8 C          21.3519   41.8405   -5.8235 C.ar    1  UNL1       -0.0421
      9 C          22.0168   41.6714   -4.5916 C.ar    1  UNL1       -0.0583
     10 C          22.8555   42.6901   -4.1051 C.ar    1  UNL1       -0.0580
     11 C          23.0369   43.8680   -4.8515 C.ar    1  UNL1       -0.0199
     12 C          22.4091   44.0373   -6.1079 C.ar    1  UNL1        0.1208
     13 C          21.5368   43.0301   -6.5593 C.ar    1  UNL1       -0.0167
     14 O          22.6018   45.1208   -6.9402 O.3     1  UNL1       -0.4920
     15 C          23.5898   46.0764   -6.5828 C.3     1  UNL1        0.0896
     16 C          23.9133   46.9824   -7.7839 C.3     1  UNL1       -0.0186
     17 C          24.9210   46.3733   -8.7832 C.3     1  UNL1       -0.0495
     18 C          24.3309   45.9820  -10.1552 C.3     1  UNL1       -0.0447
     19 C          23.4402   44.7163  -10.1771 C.3     1  UNL1        0.0242
     20 C          24.1841   43.3740  -10.0223 C.2     1  UNL1        0.2159
     21 O          25.3975   43.3875   -9.8108 O.2     1  UNL1       -0.2756
     22 N          23.4941   42.2089  -10.1443 N.am    1  UNL1       -0.2932
     23 C          24.2589   40.9530  -10.1490 C.3     1  UNL1        0.0039
     24 C          20.3507   38.5520   -7.8156 C.3     1  UNL1        0.0862
     25 C          18.8122   38.6913   -7.6662 C.3     1  UNL1        0.0240
     26 N          18.0590   37.5396   -8.1844 N.3     1  UNL1       -0.3095
     27 C          17.5570   37.6825   -9.5580 C.3     1  UNL1        0.0213
     28 C          16.4609   38.7218   -9.6653 C.ar    1  UNL1       -0.0333
     29 C          15.1297   38.3726   -9.3791 C.ar    1  UNL1       -0.0573
     30 C          14.1281   39.3608   -9.3821 C.ar    1  UNL1       -0.0612
     31 C          14.4621   40.7059   -9.6429 C.ar    1  UNL1       -0.0583
     32 C          15.7888   41.0643   -9.9391 C.ar    1  UNL1       -0.0445
     33 C          16.7727   40.0561   -9.9968 C.ar    1  UNL1       -0.0539
     34 C          16.2051   42.5232  -10.0844 C.3     1  UNL1       -0.0215
     35 C          16.4256   43.1461   -8.7006 C.3     1  UNL1       -0.0586
     36 C          15.2217   43.3651  -10.9216 C.3     1  UNL1       -0.0586
     37 O          20.7025   38.1516   -9.1279 O.3     1  UNL1       -0.3887
     38 H          21.5738   43.0658  -10.2022 H       1  UNL1        0.0594
     39 H          22.0314   39.4140   -6.8582 H       1  UNL1        0.0527
     40 H          20.6509   37.7504   -7.1462 H       1  UNL1        0.0624
     41 H          20.7268   42.0328  -12.1762 H       1  UNL1        0.0252
     42 H          22.0594   40.8890  -12.2486 H       1  UNL1        0.0252
     43 H          22.3598   42.5996  -12.5422 H       1  UNL1        0.0252
     44 H          22.7980   40.6984   -8.4040 H       1  UNL1        0.1491
     45 H          19.5798   41.2008   -6.8136 H       1  UNL1        0.0332
     46 H          20.0924   40.1465   -5.5223 H       1  UNL1        0.0332
     47 H          21.8827   40.7673   -4.0139 H       1  UNL1        0.0620
     48 H          23.3581   42.5736   -3.1547 H       1  UNL1        0.0619
     49 H          23.6736   44.6320   -4.4396 H       1  UNL1        0.0654
     50 H          21.0288   43.1599   -7.5050 H       1  UNL1        0.0657
     51 H          23.2030   46.6771   -5.7579 H       1  UNL1        0.0696
     52 H          24.5086   45.6019   -6.2367 H       1  UNL1        0.0696
     53 H          22.9981   47.2994   -8.2823 H       1  UNL1        0.0298
     54 H          24.3666   47.8941   -7.3916 H       1  UNL1        0.0298
     55 H          25.6926   47.1203   -8.9721 H       1  UNL1        0.0266
     56 H          25.4587   45.5351   -8.3376 H       1  UNL1        0.0266
     57 H          23.7503   46.8210  -10.5412 H       1  UNL1        0.0270
     58 H          25.1547   45.8585  -10.8619 H       1  UNL1        0.0270
     59 H          22.6706   44.8040   -9.4134 H       1  UNL1        0.0358
     60 H          22.9241   44.6859  -11.1369 H       1  UNL1        0.0358
     61 H          24.6327   40.7097   -9.1530 H       1  UNL1        0.0429
     62 H          25.1079   41.0027  -10.8370 H       1  UNL1        0.0429
     63 H          23.6263   40.1483  -10.4946 H       1  UNL1        0.0429
     64 H          18.6006   38.7818   -6.6000 H       1  UNL1        0.0450
     65 H          18.4640   39.6215   -8.1054 H       1  UNL1        0.0450
     66 H          17.2699   37.3579   -7.5626 H       1  UNL1        0.1223
     67 H          18.3617   37.9212  -10.2524 H       1  UNL1        0.0473
     68 H          17.1496   36.7278   -9.8910 H       1  UNL1        0.0473
     69 H          14.8762   37.3502   -9.1599 H       1  UNL1        0.0621
     70 H          13.0998   39.0989   -9.1674 H       1  UNL1        0.0618
     71 H          13.6918   41.4581   -9.5819 H       1  UNL1        0.0620
     72 H          17.7879   40.3171  -10.2311 H       1  UNL1        0.0623
     73 H          17.1600   42.5384  -10.6134 H       1  UNL1        0.0343
     74 H          17.1686   42.5861   -8.1323 H       1  UNL1        0.0235
     75 H          15.5027   43.1470   -8.1217 H       1  UNL1        0.0235
     76 H          16.7794   44.1742   -8.7744 H       1  UNL1        0.0235
     77 H          15.0785   42.9349  -11.9124 H       1  UNL1        0.0235
     78 H          15.5979   44.3778  -11.0536 H       1  UNL1        0.0235
     79 H          14.2423   43.4441  -10.4423 H       1  UNL1        0.0235
     80 H          20.4315   38.8486   -9.7099 H       1  UNL1        0.2099
@<TRIPOS>BOND
     1     1     2    1
     2     1    41    1
     3     1    42    1
     4     1    43    1
     5     2    38    1
     6     2    22    1
     7     2     3    1
     8     3     4    2
     9     3     5   am
    10     5     6    1
    11     5    44    1
    12     6    39    1
    13     6     7    1
    14     6    24    1
    15     7     8    1
    16     7    45    1
    17     7    46    1
    18     8    13   ar
    19     8     9   ar
    20     9    10   ar
    21     9    47    1
    22    10    11   ar
    23    10    48    1
    24    11    12   ar
    25    11    49    1
    26    12    13   ar
    27    12    14    1
    28    13    50    1
    29    14    15    1
    30    15    16    1
    31    15    51    1
    32    15    52    1
    33    16    17    1
    34    16    53    1
    35    16    54    1
    36    17    18    1
    37    17    55    1
    38    17    56    1
    39    18    19    1
    40    18    57    1
    41    18    58    1
    42    19    20    1
    43    19    59    1
    44    19    60    1
    45    20    21    2
    46    20    22   am
    47    22    23    1
    48    23    61    1
    49    23    62    1
    50    23    63    1
    51    24    40    1
    52    24    25    1
    53    24    37    1
    54    25    26    1
    55    25    64    1
    56    25    65    1
    57    26    27    1
    58    26    66    1
    59    27    28    1
    60    27    67    1
    61    27    68    1
    62    28    33   ar
    63    28    29   ar
    64    29    30   ar
    65    29    69    1
    66    30    31   ar
    67    30    70    1
    68    31    32   ar
    69    31    71    1
    70    32    33   ar
    71    32    34    1
    72    33    72    1
    73    34    35    1
    74    34    36    1
    75    34    73    1
    76    35    74    1
    77    35    75    1
    78    35    76    1
    79    36    77    1
    80    36    78    1
    81    36    79    1
    82    37    80    1
