@<TRIPOS>MOLECULE
BACE_15.smi:1
 83 86 0 0 0
SMALL
GASTEIGER
****
Structure written by MMmdl.
@<TRIPOS>ATOM
      1 C          17.0185   36.1404   -9.2573 C.3     1  UNL1       -0.0586
      2 C          16.9276   37.6201   -8.8755 C.3     1  UNL1       -0.0215
      3 C          16.4426   38.5099  -10.0283 C.3     1  UNL1       -0.0586
      4 C          18.2475   38.1243   -8.3133 C.ar    1  UNL1       -0.0444
      5 C          18.2955   38.5527   -6.9757 C.ar    1  UNL1       -0.0583
      6 C          19.5030   39.0144   -6.4358 C.ar    1  UNL1       -0.0611
      7 C          20.6721   39.0552   -7.2123 C.ar    1  UNL1       -0.0535
      8 C          20.6348   38.6527   -8.5605 C.ar    1  UNL1       -0.0027
      9 C          19.4207   38.1698   -9.1038 C.ar    1  UNL1       -0.0501
     10 C          21.8951   38.7678   -9.4021 C.3     1  UNL1       -0.0076
     11 N          21.8904   40.0234  -10.1836 N.4     1  UNL1        0.2321
     12 C          21.2064   39.9239  -11.4891 C.3     1  UNL1       -0.0049
     13 C          20.4799   41.2140  -11.9183 C.3     1  UNL1        0.1133
     14 C          19.2239   41.6064  -11.0807 C.3     1  UNL1        0.0583
     15 C          18.3152   42.6411  -11.8178 C.3     1  UNL1       -0.0065
     16 C          17.2033   43.2408  -10.9712 C.ar    1  UNL1       -0.0421
     17 C          16.1309   42.4320  -10.5444 C.ar    1  UNL1       -0.0583
     18 C          15.1330   42.9685   -9.7124 C.ar    1  UNL1       -0.0580
     19 C          15.2015   44.3159   -9.3158 C.ar    1  UNL1       -0.0199
     20 C          16.2527   45.1515   -9.7503 C.ar    1  UNL1        0.1208
     21 C          17.2473   44.6025  -10.5972 C.ar    1  UNL1       -0.0167
     22 O          16.2286   46.4540   -9.2996 O.3     1  UNL1       -0.4920
     23 C          17.3398   47.3141   -9.5383 C.3     1  UNL1        0.0897
     24 C          17.4115   48.3082   -8.3683 C.3     1  UNL1       -0.0156
     25 C          17.7264   47.6210   -7.0266 C.3     1  UNL1       -0.0156
     26 C          19.2229   47.5700   -6.6917 C.3     1  UNL1        0.0897
     27 O          19.4728   46.5274   -5.7545 O.3     1  UNL1       -0.4919
     28 C          19.7869   45.2629   -6.2144 C.ar    1  UNL1        0.1215
     29 C          20.1080   44.2973   -5.2411 C.ar    1  UNL1       -0.0145
     30 C          20.5033   42.9989   -5.6045 C.ar    1  UNL1       -0.0178
     31 C          20.5310   42.6324   -6.9621 C.ar    1  UNL1       -0.0440
     32 C          20.1749   43.5665   -7.9544 C.ar    1  UNL1        0.0405
     33 C          19.8206   44.8798   -7.5781 C.ar    1  UNL1       -0.0078
     34 C          20.2046   43.1944   -9.4041 C.2     1  UNL1        0.2445
     35 O          20.7105   43.9489  -10.2349 O.2     1  UNL1       -0.2702
     36 N          19.5698   42.0525   -9.7223 N.am    1  UNL1       -0.3055
     37 C          20.8732   41.9935   -4.5336 C.3     1  UNL1        0.0725
     38 O          22.2281   41.5735   -4.6458 O.3     1  UNL1       -0.3784
     39 C          22.5067   40.4789   -3.7890 C.3     1  UNL1        0.0369
     40 O          20.0603   40.9514  -13.2398 O.3     1  UNL1       -0.3847
     41 H          21.1895   42.0407  -11.9679 H       1  UNL1        0.0666
     42 H          18.6206   40.7098  -10.9388 H       1  UNL1        0.0529
     43 H          17.2492   35.5283   -8.3863 H       1  UNL1        0.0235
     44 H          17.8027   35.9756   -9.9927 H       1  UNL1        0.0235
     45 H          16.0729   35.7927   -9.6735 H       1  UNL1        0.0235
     46 H          16.1757   37.6870   -8.0839 H       1  UNL1        0.0343
     47 H          16.2811   39.5240   -9.6669 H       1  UNL1        0.0235
     48 H          15.4972   38.1518  -10.4387 H       1  UNL1        0.0235
     49 H          17.1683   38.5553  -10.8390 H       1  UNL1        0.0235
     50 H          17.4066   38.5256   -6.3596 H       1  UNL1        0.0620
     51 H          19.5169   39.3375   -5.4069 H       1  UNL1        0.0618
     52 H          21.5908   39.4150   -6.7694 H       1  UNL1        0.0622
     53 H          19.3773   37.8286  -10.1259 H       1  UNL1        0.0625
     54 H          22.7585   38.7788   -8.7364 H       1  UNL1        0.0866
     55 H          22.0163   37.8958  -10.0395 H       1  UNL1        0.0866
     56 H          21.4364   40.7325   -9.6267 H       1  UNL1        0.2018
     57 H          21.9726   39.6982  -12.2314 H       1  UNL1        0.0840
     58 H          20.5072   39.0889  -11.5088 H       1  UNL1        0.0840
     59 H          18.9301   43.4495  -12.2136 H       1  UNL1        0.0332
     60 H          17.8472   42.1761  -12.6843 H       1  UNL1        0.0332
     61 H          16.0799   41.3970  -10.8445 H       1  UNL1        0.0620
     62 H          14.3204   42.3457   -9.3654 H       1  UNL1        0.0619
     63 H          14.4402   44.7088   -8.6599 H       1  UNL1        0.0654
     64 H          18.0692   45.2007  -10.9581 H       1  UNL1        0.0657
     65 H          18.2929   46.7958   -9.6062 H       1  UNL1        0.0696
     66 H          17.1842   47.8405  -10.4806 H       1  UNL1        0.0696
     67 H          18.1556   49.0767   -8.5782 H       1  UNL1        0.0299
     68 H          16.4596   48.8321   -8.2929 H       1  UNL1        0.0299
     69 H          17.2121   48.1378   -6.2166 H       1  UNL1        0.0299
     70 H          17.3177   46.6121   -7.0323 H       1  UNL1        0.0299
     71 H          19.8496   47.4993   -7.5794 H       1  UNL1        0.0696
     72 H          19.5099   48.5135   -6.2263 H       1  UNL1        0.0696
     73 H          20.0629   44.5484   -4.1949 H       1  UNL1        0.0657
     74 H          20.8348   41.6358   -7.2332 H       1  UNL1        0.0628
     75 H          19.5677   45.5716   -8.3620 H       1  UNL1        0.0662
     76 H          19.1357   41.5481   -8.9614 H       1  UNL1        0.1494
     77 H          20.6895   42.4202   -3.5411 H       1  UNL1        0.0610
     78 H          20.1995   41.1406   -4.6258 H       1  UNL1        0.0610
     79 H          23.5822   40.3632   -3.6458 H       1  UNL1        0.0524
     80 H          22.1065   39.5511   -4.1985 H       1  UNL1        0.0524
     81 H          22.0602   40.6320   -2.8131 H       1  UNL1        0.0524
     82 H          19.4684   40.2109  -13.2384 H       1  UNL1        0.2101
     83 H          22.8468   40.3067  -10.3517 H       1  UNL1        0.2018
@<TRIPOS>BOND
     1     1     2    1
     2     1    43    1
     3     1    44    1
     4     1    45    1
     5     2     3    1
     6     2     4    1
     7     2    46    1
     8     3    47    1
     9     3    48    1
    10     3    49    1
    11     4     9   ar
    12     4     5   ar
    13     5     6   ar
    14     5    50    1
    15     6     7   ar
    16     6    51    1
    17     7     8   ar
    18     7    52    1
    19     8     9   ar
    20     8    10    1
    21     9    53    1
    22    10    11    1
    23    10    54    1
    24    10    55    1
    25    11    12    1
    26    11    56    1
    27    11    83    1
    28    12    13    1
    29    12    57    1
    30    12    58    1
    31    13    41    1
    32    13    14    1
    33    13    40    1
    34    14    42    1
    35    14    36    1
    36    14    15    1
    37    15    16    1
    38    15    59    1
    39    15    60    1
    40    16    21   ar
    41    16    17   ar
    42    17    18   ar
    43    17    61    1
    44    18    19   ar
    45    18    62    1
    46    19    20   ar
    47    19    63    1
    48    20    21   ar
    49    20    22    1
    50    21    64    1
    51    22    23    1
    52    23    24    1
    53    23    65    1
    54    23    66    1
    55    24    25    1
    56    24    67    1
    57    24    68    1
    58    25    26    1
    59    25    69    1
    60    25    70    1
    61    26    27    1
    62    26    71    1
    63    26    72    1
    64    27    28    1
    65    28    33   ar
    66    28    29   ar
    67    29    30   ar
    68    29    73    1
    69    30    31   ar
    70    30    37    1
    71    31    32   ar
    72    31    74    1
    73    32    33   ar
    74    32    34    1
    75    33    75    1
    76    34    35    2
    77    34    36   am
    78    36    76    1
    79    37    38    1
    80    37    77    1
    81    37    78    1
    82    38    39    1
    83    39    79    1
    84    39    80    1
    85    39    81    1
    86    40    82    1
