@<TRIPOS>MOLECULE
BACE_13.smi:1
 76 79 0 0 0
SMALL
GASTEIGER
****
Structure written by MMmdl.
@<TRIPOS>ATOM
      1 C          18.1231   43.4112  -13.1084 C.3     1  UNL1        0.0369
      2 O          16.8306   43.7830  -12.6660 O.3     1  UNL1       -0.3784
      3 C          16.8537   44.5842  -11.4928 C.3     1  UNL1        0.0724
      4 C          17.3622   43.8218  -10.2832 C.ar    1  UNL1       -0.0195
      5 C          18.7374   43.8064   -9.9768 C.ar    1  UNL1       -0.0442
      6 C          19.2213   43.0270   -8.9030 C.ar    1  UNL1        0.0388
      7 C          18.3024   42.3261   -8.0895 C.ar    1  UNL1       -0.0287
      8 C          16.9276   42.3311   -8.4010 C.ar    1  UNL1        0.0282
      9 C          16.4627   43.0759   -9.5029 C.ar    1  UNL1       -0.0355
     10 N          16.0432   41.5696   -7.6379 N.pl3   1  UNL1       -0.3438
     11 C          15.1869   40.6060   -8.3176 C.3     1  UNL1        0.0092
     12 C          15.9891   39.4948   -9.0237 C.3     1  UNL1       -0.0344
     13 C          16.8046   38.6326   -8.0461 C.3     1  UNL1       -0.0172
     14 C          17.6561   37.5619   -8.7495 C.3     1  UNL1        0.0896
     15 O          18.6812   38.1403   -9.5544 O.3     1  UNL1       -0.4920
     16 C          19.8192   38.6495   -8.9548 C.ar    1  UNL1        0.1208
     17 C          20.1069   38.5497   -7.5725 C.ar    1  UNL1       -0.0199
     18 C          21.3081   39.0730   -7.0514 C.ar    1  UNL1       -0.0580
     19 C          22.2200   39.7259   -7.8971 C.ar    1  UNL1       -0.0583
     20 C          21.9282   39.8729   -9.2676 C.ar    1  UNL1       -0.0421
     21 C          20.7434   39.3143   -9.7919 C.ar    1  UNL1       -0.0167
     22 C          22.8585   40.6886  -10.1508 C.3     1  UNL1       -0.0066
     23 C          22.7978   42.2166   -9.8724 C.3     1  UNL1        0.0548
     24 N          21.4104   42.6771   -9.7816 N.am    1  UNL1       -0.3057
     25 C          20.6950   42.8918   -8.6659 C.2     1  UNL1        0.2444
     26 O          21.1626   42.8754   -7.5276 O.2     1  UNL1       -0.2702
     27 C          23.5451   43.0837  -10.9203 C.3     1  UNL1        0.0912
     28 C          25.0310   42.7165  -11.1561 C.3     1  UNL1        0.0591
     29 C          25.7510   43.6985  -12.1039 C.3     1  UNL1        0.0660
     30 O          27.0603   43.2100  -12.3817 O.3     1  UNL1       -0.3714
     31 C          27.8706   43.0460  -11.2176 C.3     1  UNL1        0.0944
     32 C          27.1581   42.1669  -10.1646 C.3     1  UNL1        0.0248
     33 N          25.7906   42.6305   -9.9117 N.3     1  UNL1       -0.3065
     34 C          28.3611   44.3949  -10.6553 C.3     1  UNL1        0.0747
     35 O          29.4147   44.2230   -9.7131 O.3     1  UNL1       -0.3804
     36 C          30.6859   43.9797  -10.2961 C.3     1  UNL1        0.0366
     37 O          22.8720   42.9503  -12.1594 O.3     1  UNL1       -0.3883
     38 H          23.2688   42.3916   -8.9039 H       1  UNL1        0.0527
     39 H          23.4834   44.1279  -10.6114 H       1  UNL1        0.0628
     40 H          25.0577   41.7425  -11.6311 H       1  UNL1        0.0509
     41 H          28.7398   42.4926  -11.5671 H       1  UNL1        0.0632
     42 H          18.0419   42.9451  -14.0813 H       1  UNL1        0.0524
     43 H          18.5948   42.6890  -12.4402 H       1  UNL1        0.0524
     44 H          18.7786   44.2778  -13.2088 H       1  UNL1        0.0524
     45 H          15.8385   44.9283  -11.2958 H       1  UNL1        0.0610
     46 H          17.4530   45.4821  -11.6492 H       1  UNL1        0.0610
     47 H          19.4266   44.3633  -10.5966 H       1  UNL1        0.0628
     48 H          18.6599   41.7323   -7.2586 H       1  UNL1        0.0643
     49 H          15.4107   43.0749   -9.7507 H       1  UNL1        0.0639
     50 H          16.3628   41.2786   -6.7202 H       1  UNL1        0.1461
     51 H          14.5397   41.1155   -9.0346 H       1  UNL1        0.0461
     52 H          14.5201   40.1586   -7.5774 H       1  UNL1        0.0461
     53 H          16.6439   39.9288   -9.7778 H       1  UNL1        0.0281
     54 H          15.2945   38.8521   -9.5670 H       1  UNL1        0.0281
     55 H          16.1193   38.1501   -7.3494 H       1  UNL1        0.0298
     56 H          17.4420   39.2684   -7.4328 H       1  UNL1        0.0298
     57 H          17.0129   36.9751   -9.4061 H       1  UNL1        0.0696
     58 H          18.0605   36.8442   -8.0370 H       1  UNL1        0.0696
     59 H          19.4325   38.0686   -6.8834 H       1  UNL1        0.0654
     60 H          21.5192   38.9790   -5.9958 H       1  UNL1        0.0619
     61 H          23.1252   40.1467   -7.4837 H       1  UNL1        0.0620
     62 H          20.5148   39.4176  -10.8433 H       1  UNL1        0.0657
     63 H          22.6112   40.4824  -11.1930 H       1  UNL1        0.0332
     64 H          23.8766   40.3278  -10.0094 H       1  UNL1        0.0332
     65 H          20.9152   42.7204  -10.6610 H       1  UNL1        0.1494
     66 H          25.7890   44.7037  -11.6846 H       1  UNL1        0.0576
     67 H          25.2171   43.7705  -13.0534 H       1  UNL1        0.0576
     68 H          27.7350   42.1529   -9.2402 H       1  UNL1        0.0450
     69 H          27.1316   41.1355  -10.5249 H       1  UNL1        0.0450
     70 H          25.3369   41.9840   -9.2741 H       1  UNL1        0.1224
     71 H          28.6774   45.0567  -11.4613 H       1  UNL1        0.0586
     72 H          27.5442   44.9042  -10.1446 H       1  UNL1        0.0586
     73 H          31.4395   43.9236   -9.5084 H       1  UNL1        0.0524
     74 H          30.9765   44.7856  -10.9718 H       1  UNL1        0.0524
     75 H          30.7169   43.0363  -10.8422 H       1  UNL1        0.0524
     76 H          23.1271   42.1186  -12.5419 H       1  UNL1        0.2099
@<TRIPOS>BOND
     1     1     2    1
     2     1    42    1
     3     1    43    1
     4     1    44    1
     5     2     3    1
     6     3     4    1
     7     3    45    1
     8     3    46    1
     9     4     9   ar
    10     4     5   ar
    11     5     6   ar
    12     5    47    1
    13     6    25    1
    14     6     7   ar
    15     7     8   ar
    16     7    48    1
    17     8     9   ar
    18     8    10    1
    19     9    49    1
    20    10    11    1
    21    10    50    1
    22    11    12    1
    23    11    51    1
    24    11    52    1
    25    12    13    1
    26    12    53    1
    27    12    54    1
    28    13    14    1
    29    13    55    1
    30    13    56    1
    31    14    15    1
    32    14    57    1
    33    14    58    1
    34    15    16    1
    35    16    21   ar
    36    16    17   ar
    37    17    18   ar
    38    17    59    1
    39    18    19   ar
    40    18    60    1
    41    19    20   ar
    42    19    61    1
    43    20    21   ar
    44    20    22    1
    45    21    62    1
    46    22    23    1
    47    22    63    1
    48    22    64    1
    49    23    38    1
    50    23    24    1
    51    23    27    1
    52    24    25   am
    53    24    65    1
    54    25    26    2
    55    27    39    1
    56    27    28    1
    57    27    37    1
    58    28    40    1
    59    28    33    1
    60    28    29    1
    61    29    30    1
    62    29    66    1
    63    29    67    1
    64    30    31    1
    65    31    41    1
    66    31    32    1
    67    31    34    1
    68    32    33    1
    69    32    68    1
    70    32    69    1
    71    33    70    1
    72    34    35    1
    73    34    71    1
    74    34    72    1
    75    35    36    1
    76    36    73    1
    77    36    74    1
    78    36    75    1
    79    37    76    1
