@<TRIPOS>MOLECULE
BACE_9.smi:1
 87 89 0 0 0
SMALL
GASTEIGER
****
Structure written by MMmdl.
@<TRIPOS>ATOM
      1 C          20.4739   46.3906   -6.9457 C.3     1  UNL1       -0.0624
      2 C          20.3413   44.9989   -7.5864 C.3     1  UNL1       -0.0421
      3 C          21.7376   44.3531   -7.7409 C.3     1  UNL1       -0.0504
      4 C          21.6966   42.8983   -8.2284 C.3     1  UNL1       -0.0528
      5 C          23.0669   42.2028   -8.2032 C.3     1  UNL1       -0.0530
      6 C          22.9828   40.7360   -8.6526 C.3     1  UNL1       -0.0530
      7 C          22.3608   39.8120   -7.5861 C.3     1  UNL1       -0.0516
      8 C          21.9285   38.4346   -8.1115 C.3     1  UNL1       -0.0375
      9 C          20.4855   38.3780   -8.6390 C.3     1  UNL1        0.0091
     10 N          20.3177   39.1157   -9.8789 N.pl3   1  UNL1       -0.3438
     11 C          19.0547   39.6738  -10.1016 C.ar    1  UNL1        0.0282
     12 C          17.8587   38.9825   -9.7994 C.ar    1  UNL1       -0.0355
     13 C          16.6065   39.5873  -10.0396 C.ar    1  UNL1       -0.0195
     14 C          16.5490   40.8824  -10.5950 C.ar    1  UNL1       -0.0442
     15 C          17.7403   41.5936  -10.8504 C.ar    1  UNL1        0.0388
     16 C          18.9875   40.9749  -10.6309 C.ar    1  UNL1       -0.0287
     17 C          17.6836   42.9961  -11.3664 C.2     1  UNL1        0.2444
     18 O          17.1462   43.2438  -12.4452 O.2     1  UNL1       -0.2702
     19 N          18.2452   43.9628  -10.6184 N.am    1  UNL1       -0.3060
     20 C          18.5639   43.9405   -9.1807 C.3     1  UNL1        0.0508
     21 C          19.5688   45.0867   -8.9261 C.3     1  UNL1       -0.0295
     22 C          17.2878   44.0777   -8.2793 C.3     1  UNL1        0.0859
     23 C          16.1462   44.9353   -8.8949 C.3     1  UNL1        0.0240
     24 N          14.7932   44.6035   -8.4326 N.3     1  UNL1       -0.3095
     25 C          14.1458   43.4801   -9.1272 C.3     1  UNL1        0.0213
     26 C          13.6652   43.7359  -10.5524 C.ar    1  UNL1       -0.0333
     27 C          12.9297   42.7300  -11.2029 C.ar    1  UNL1       -0.0573
     28 C          12.4548   42.9352  -12.5137 C.ar    1  UNL1       -0.0612
     29 C          12.7064   44.1487  -13.1803 C.ar    1  UNL1       -0.0583
     30 C          13.4120   45.1852  -12.5340 C.ar    1  UNL1       -0.0445
     31 C          13.9081   44.9437  -11.2384 C.ar    1  UNL1       -0.0539
     32 C          13.6340   46.5680  -13.1557 C.3     1  UNL1       -0.0215
     33 C          12.9422   46.7928  -14.5122 C.3     1  UNL1       -0.0586
     34 C          15.1271   46.9434  -13.1920 C.3     1  UNL1       -0.0586
     35 O          16.8794   42.7892   -7.8622 O.3     1  UNL1       -0.3887
     36 C          15.3243   38.8291   -9.7343 C.3     1  UNL1        0.0724
     37 O          15.3085   38.2566   -8.4398 O.3     1  UNL1       -0.3784
     38 C          15.0458   39.1888   -7.4026 C.3     1  UNL1        0.0369
     39 H          19.7743   44.3880   -6.8810 H       1  UNL1        0.0299
     40 H          19.0647   43.0063   -8.9313 H       1  UNL1        0.0524
     41 H          17.5679   44.5617   -7.3430 H       1  UNL1        0.0624
     42 H          21.0499   47.0648   -7.5832 H       1  UNL1        0.0232
     43 H          20.9764   46.3345   -5.9777 H       1  UNL1        0.0232
     44 H          19.4951   46.8423   -6.7769 H       1  UNL1        0.0232
     45 H          22.3523   44.9474   -8.4182 H       1  UNL1        0.0268
     46 H          22.2448   44.3779   -6.7741 H       1  UNL1        0.0268
     47 H          20.9861   42.3472   -7.6131 H       1  UNL1        0.0265
     48 H          21.3141   42.8648   -9.2484 H       1  UNL1        0.0265
     49 H          23.7465   42.7372   -8.8677 H       1  UNL1        0.0265
     50 H          23.5065   42.2592   -7.2073 H       1  UNL1        0.0265
     51 H          22.4288   40.6875   -9.5878 H       1  UNL1        0.0265
     52 H          23.9829   40.3694   -8.8855 H       1  UNL1        0.0265
     53 H          23.1023   39.6746   -6.7990 H       1  UNL1        0.0266
     54 H          21.5066   40.2811   -7.0968 H       1  UNL1        0.0266
     55 H          22.6322   38.0577   -8.8519 H       1  UNL1        0.0280
     56 H          21.9805   37.7501   -7.2669 H       1  UNL1        0.0280
     57 H          20.2057   37.3452   -8.8396 H       1  UNL1        0.0461
     58 H          19.8009   38.7472   -7.8725 H       1  UNL1        0.0461
     59 H          21.1077   39.6876  -10.1402 H       1  UNL1        0.1461
     60 H          17.8903   37.9860   -9.3861 H       1  UNL1        0.0639
     61 H          15.5936   41.3426  -10.7882 H       1  UNL1        0.0628
     62 H          19.8982   41.5122  -10.8470 H       1  UNL1        0.0643
     63 H          18.2647   44.8761  -11.0443 H       1  UNL1        0.1494
     64 H          19.0243   46.0278   -8.9832 H       1  UNL1        0.0286
     65 H          20.2955   45.1331   -9.7383 H       1  UNL1        0.0286
     66 H          16.3609   45.9755   -8.6573 H       1  UNL1        0.0450
     67 H          16.1653   44.8949   -9.9741 H       1  UNL1        0.0450
     68 H          14.8614   44.3583   -7.4500 H       1  UNL1        0.1223
     69 H          14.7839   42.5984   -9.1253 H       1  UNL1        0.0473
     70 H          13.2644   43.1897   -8.5563 H       1  UNL1        0.0473
     71 H          12.7301   41.7978  -10.6950 H       1  UNL1        0.0621
     72 H          11.8968   42.1546  -13.0114 H       1  UNL1        0.0618
     73 H          12.3272   44.2672  -14.1817 H       1  UNL1        0.0620
     74 H          14.4596   45.7363  -10.7601 H       1  UNL1        0.0623
     75 H          13.1528   47.2661  -12.4683 H       1  UNL1        0.0343
     76 H          11.8742   46.6150  -14.4434 H       1  UNL1        0.0235
     77 H          13.3224   46.1497  -15.3012 H       1  UNL1        0.0235
     78 H          13.0711   47.8210  -14.8497 H       1  UNL1        0.0235
     79 H          15.5258   47.1041  -12.1908 H       1  UNL1        0.0235
     80 H          15.2951   47.8635  -13.7489 H       1  UNL1        0.0235
     81 H          15.7295   46.1549  -13.6382 H       1  UNL1        0.0235
     82 H          16.3729   42.8593   -7.0597 H       1  UNL1        0.2099
     83 H          14.4422   39.4512   -9.8968 H       1  UNL1        0.0610
     84 H          15.2601   38.0036  -10.4391 H       1  UNL1        0.0610
     85 H          15.0573   38.6801   -6.4401 H       1  UNL1        0.0524
     86 H          14.0628   39.6451   -7.5210 H       1  UNL1        0.0524
     87 H          15.7983   39.9763   -7.3685 H       1  UNL1        0.0524
@<TRIPOS>BOND
     1     1     2    1
     2     1    42    1
     3     1    43    1
     4     1    44    1
     5     2    39    1
     6     2    21    1
     7     2     3    1
     8     3     4    1
     9     3    45    1
    10     3    46    1
    11     4     5    1
    12     4    47    1
    13     4    48    1
    14     5     6    1
    15     5    49    1
    16     5    50    1
    17     6     7    1
    18     6    51    1
    19     6    52    1
    20     7     8    1
    21     7    53    1
    22     7    54    1
    23     8     9    1
    24     8    55    1
    25     8    56    1
    26     9    10    1
    27     9    57    1
    28     9    58    1
    29    10    11    1
    30    10    59    1
    31    11    16   ar
    32    11    12   ar
    33    12    13   ar
    34    12    60    1
    35    13    14   ar
    36    13    36    1
    37    14    15   ar
    38    14    61    1
    39    15    16   ar
    40    15    17    1
    41    16    62    1
    42    17    18    2
    43    17    19   am
    44    19    20    1
    45    19    63    1
    46    20    40    1
    47    20    21    1
    48    20    22    1
    49    21    64    1
    50    21    65    1
    51    22    41    1
    52    22    23    1
    53    22    35    1
    54    23    24    1
    55    23    66    1
    56    23    67    1
    57    24    25    1
    58    24    68    1
    59    25    26    1
    60    25    69    1
    61    25    70    1
    62    26    31   ar
    63    26    27   ar
    64    27    28   ar
    65    27    71    1
    66    28    29   ar
    67    28    72    1
    68    29    30   ar
    69    29    73    1
    70    30    31   ar
    71    30    32    1
    72    31    74    1
    73    32    33    1
    74    32    34    1
    75    32    75    1
    76    33    76    1
    77    33    77    1
    78    33    78    1
    79    34    79    1
    80    34    80    1
    81    34    81    1
    82    35    82    1
    83    36    37    1
    84    36    83    1
    85    36    84    1
    86    37    38    1
    87    38    85    1
    88    38    86    1
    89    38    87    1
