@<TRIPOS>MOLECULE
BACE_17.smi:1
 62 64 0 0 0
SMALL
GASTEIGER
****
Structure written by MMmdl.
@<TRIPOS>ATOM
      1 C          17.6697   48.2394   -6.6092 C.3     1  UNL1        0.0031
      2 N          18.4609   47.0344   -6.8686 N.am    1  UNL1       -0.3036
      3 C          17.6922   45.9096   -7.4118 C.3     1  UNL1        0.0031
      4 C          19.7715   46.9717   -6.5260 C.2     1  UNL1        0.2463
      5 O          20.3448   47.8774   -5.9195 O.2     1  UNL1       -0.2700
      6 C          20.5469   45.7334   -6.8800 C.ar    1  UNL1        0.0410
      7 C          21.2282   45.0259   -5.8652 C.ar    1  UNL1       -0.0078
      8 C          20.6369   45.2872   -8.2191 C.ar    1  UNL1       -0.0373
      9 C          21.3619   44.1189   -8.5334 C.ar    1  UNL1        0.0409
     10 C          22.0576   43.4410   -7.5117 C.ar    1  UNL1       -0.0078
     11 C          21.9747   43.8665   -6.1761 C.ar    1  UNL1        0.1219
     12 C          21.3883   43.5891   -9.9334 C.2     1  UNL1        0.2445
     13 O          21.4579   44.3376  -10.9071 O.2     1  UNL1       -0.2702
     14 N          21.2578   42.2566  -10.0072 N.am    1  UNL1       -0.3056
     15 C          21.2459   41.4353  -11.2116 C.3     1  UNL1        0.0554
     16 C          19.9452   41.6668  -12.0319 C.3     1  UNL1        0.0968
     17 O          20.0601   40.9500  -13.2399 O.3     1  UNL1       -0.3877
     18 C          18.6111   41.3120  -11.3360 C.3     1  UNL1        0.0719
     19 O          17.5619   42.1489  -11.7852 O.3     1  UNL1       -0.3924
     20 C          21.5756   39.9553  -10.8602 C.3     1  UNL1       -0.0066
     21 C          20.7193   39.3321   -9.7627 C.ar    1  UNL1       -0.0421
     22 C          20.9779   39.6145   -8.4026 C.ar    1  UNL1       -0.0167
     23 C          20.1404   39.0960   -7.3837 C.ar    1  UNL1        0.1208
     24 C          19.0590   38.2680   -7.7472 C.ar    1  UNL1       -0.0199
     25 C          18.8259   37.9408   -9.0959 C.ar    1  UNL1       -0.0580
     26 C          19.6603   38.4637  -10.0999 C.ar    1  UNL1       -0.0583
     27 O          20.3091   39.3502   -6.0401 O.3     1  UNL1       -0.4920
     28 C          21.2611   40.3291   -5.6436 C.3     1  UNL1        0.0897
     29 C          21.1451   40.5483   -4.1270 C.3     1  UNL1       -0.0156
     30 C          22.1825   41.5110   -3.5135 C.3     1  UNL1       -0.0156
     31 C          22.0447   42.9755   -3.9578 C.3     1  UNL1        0.0897
     32 O          22.6349   43.1038   -5.2438 O.3     1  UNL1       -0.4919
     33 H          22.0700   41.7855  -11.8375 H       1  UNL1        0.0528
     34 H          19.9060   42.7223  -12.2945 H       1  UNL1        0.0635
     35 H          17.1636   48.1506   -5.6473 H       1  UNL1        0.0428
     36 H          16.9177   48.3853   -7.3855 H       1  UNL1        0.0428
     37 H          18.2769   49.1461   -6.5891 H       1  UNL1        0.0428
     38 H          17.8504   45.8173   -8.4862 H       1  UNL1        0.0428
     39 H          16.6220   46.0408   -7.2538 H       1  UNL1        0.0428
     40 H          17.9621   44.9641   -6.9384 H       1  UNL1        0.0428
     41 H          21.1731   45.3777   -4.8466 H       1  UNL1        0.0662
     42 H          20.1309   45.8272   -9.0069 H       1  UNL1        0.0633
     43 H          22.6397   42.5587   -7.7365 H       1  UNL1        0.0662
     44 H          21.1480   41.7608   -9.1349 H       1  UNL1        0.1494
     45 H          19.9481   40.0301  -13.0514 H       1  UNL1        0.2100
     46 H          18.3261   40.2749  -11.5071 H       1  UNL1        0.0583
     47 H          18.6906   41.4513  -10.2571 H       1  UNL1        0.0583
     48 H          16.8077   41.9753  -11.2420 H       1  UNL1        0.2095
     49 H          21.5336   39.3348  -11.7551 H       1  UNL1        0.0332
     50 H          22.6139   39.8980  -10.5294 H       1  UNL1        0.0332
     51 H          21.8206   40.2419   -8.1575 H       1  UNL1        0.0657
     52 H          18.4074   37.8689   -6.9818 H       1  UNL1        0.0654
     53 H          18.0019   37.2930   -9.3578 H       1  UNL1        0.0619
     54 H          19.4658   38.2117  -11.1323 H       1  UNL1        0.0620
     55 H          22.2708   40.0054   -5.9015 H       1  UNL1        0.0696
     56 H          21.0477   41.2592   -6.1658 H       1  UNL1        0.0696
     57 H          20.1371   40.8892   -3.8859 H       1  UNL1        0.0299
     58 H          21.2606   39.5826   -3.6398 H       1  UNL1        0.0299
     59 H          22.0585   41.4781   -2.4321 H       1  UNL1        0.0299
     60 H          23.1949   41.1536   -3.7067 H       1  UNL1        0.0299
     61 H          20.9922   43.2628   -3.9273 H       1  UNL1        0.0696
     62 H          22.5817   43.6300   -3.2703 H       1  UNL1        0.0696
@<TRIPOS>BOND
     1     1     2    1
     2     1    35    1
     3     1    36    1
     4     1    37    1
     5     2     3    1
     6     2     4   am
     7     3    38    1
     8     3    39    1
     9     3    40    1
    10     4     5    2
    11     4     6    1
    12     6     7   ar
    13     6     8   ar
    14     7    11   ar
    15     7    41    1
    16     8     9   ar
    17     8    42    1
    18     9    10   ar
    19     9    12    1
    20    10    11   ar
    21    10    43    1
    22    11    32    1
    23    12    13    2
    24    12    14   am
    25    14    15    1
    26    14    44    1
    27    15    33    1
    28    15    16    1
    29    15    20    1
    30    16    34    1
    31    16    17    1
    32    16    18    1
    33    17    45    1
    34    18    19    1
    35    18    46    1
    36    18    47    1
    37    19    48    1
    38    20    21    1
    39    20    49    1
    40    20    50    1
    41    21    26   ar
    42    21    22   ar
    43    22    23   ar
    44    22    51    1
    45    23    24   ar
    46    23    27    1
    47    24    25   ar
    48    24    52    1
    49    25    26   ar
    50    25    53    1
    51    26    54    1
    52    27    28    1
    53    28    29    1
    54    28    55    1
    55    28    56    1
    56    29    30    1
    57    29    57    1
    58    29    58    1
    59    30    31    1
    60    30    59    1
    61    30    60    1
    62    31    32    1
    63    31    61    1
    64    31    62    1
