@<TRIPOS>MOLECULE
BACE_5.smi:1
 79 80 0 0 0
SMALL
GASTEIGER
****
Structure written by MMmdl.
@<TRIPOS>ATOM
      1 C          30.8608   43.0655   -9.1147 C.3     1  UNL1       -0.0649
      2 C          29.9599   44.3041   -9.1863 C.3     1  UNL1       -0.0504
      3 C          29.1757   44.4214  -10.5059 C.3     1  UNL1       -0.0089
      4 C          28.0442   43.4327  -10.6332 C.ar    1  UNL1        0.0631
      5 C          26.6465   43.6935  -10.5232 C.ar    1  UNL1       -0.0168
      6 C          26.0534   42.4875  -10.7775 C.ar    1  UNL1        0.0501
      7 N          27.0781   41.5951  -10.9889 N.ar    1  UNL1       -0.2801
      8 N          28.2966   42.1614  -10.9139 N.ar    1  UNL1       -0.1786
      9 C          24.6129   42.1008  -10.8739 C.3     1  UNL1        0.0380
     10 N          23.8198   42.5298   -9.7237 N.3     1  UNL1       -0.3081
     11 C          23.7651   41.5599   -8.6344 C.3     1  UNL1        0.0240
     12 C          22.8441   40.3499   -8.9357 C.3     1  UNL1        0.0859
     13 C          21.3252   40.6209   -8.7575 C.3     1  UNL1        0.0505
     14 C          20.4753   39.3144   -8.7637 C.3     1  UNL1       -0.0295
     15 C          18.9764   39.4834   -8.4033 C.3     1  UNL1       -0.0421
     16 C          18.0971   39.6292   -9.6647 C.3     1  UNL1       -0.0504
     17 C          16.6622   40.0976   -9.3742 C.3     1  UNL1       -0.0528
     18 C          15.9013   40.4062  -10.6711 C.3     1  UNL1       -0.0530
     19 C          14.4785   40.9658  -10.4884 C.3     1  UNL1       -0.0510
     20 C          14.3690   42.2731   -9.6787 C.3     1  UNL1       -0.0294
     21 C          15.3945   43.3597  -10.0421 C.3     1  UNL1        0.0483
     22 O          15.3255   43.7094  -11.4219 O.3     1  UNL1       -0.3706
     23 C          16.3013   44.6653  -11.8438 C.3     1  UNL1        0.1238
     24 C          17.6945   44.0134  -11.9467 C.2     1  UNL1        0.2417
     25 O          17.9029   43.2978  -12.9287 O.2     1  UNL1       -0.2731
     26 N          18.6174   44.2156  -10.9692 N.am    1  UNL1       -0.2914
     27 C          19.9065   43.4778  -10.9507 C.3     1  UNL1        0.0991
     28 C          20.1617   42.6525   -9.6682 C.2     1  UNL1        0.2336
     29 O          19.7670   43.0340   -8.5700 O.2     1  UNL1       -0.2738
     30 N          20.8745   41.5214   -9.8271 N.am    1  UNL1       -0.3084
     31 C          21.0713   44.4459  -11.2364 C.3     1  UNL1       -0.0379
     32 C          18.4160   45.2447   -9.9412 C.3     1  UNL1        0.0040
     33 C          18.4868   38.3148   -7.5258 C.3     1  UNL1       -0.0624
     34 O          23.2586   39.3501   -8.0387 O.3     1  UNL1       -0.3887
     35 H          26.9750   40.6055  -11.1835 H       1  UNL1        0.1886
     36 H          23.0188   39.9513   -9.9358 H       1  UNL1        0.0624
     37 H          21.1912   41.0964   -7.7809 H       1  UNL1        0.0524
     38 H          18.8784   40.3890   -7.8027 H       1  UNL1        0.0299
     39 H          19.9205   42.7522  -11.7640 H       1  UNL1        0.0594
     40 H          31.4266   43.0508   -8.1835 H       1  UNL1        0.0230
     41 H          31.5699   43.0420   -9.9443 H       1  UNL1        0.0230
     42 H          30.2728   42.1506   -9.1542 H       1  UNL1        0.0230
     43 H          30.5920   45.1846   -9.0778 H       1  UNL1        0.0266
     44 H          29.2700   44.3155   -8.3432 H       1  UNL1        0.0266
     45 H          29.8517   44.3246  -11.3563 H       1  UNL1        0.0329
     46 H          28.7671   45.4311  -10.5736 H       1  UNL1        0.0329
     47 H          26.1481   44.6255  -10.3124 H       1  UNL1        0.0654
     48 H          24.5348   41.0244  -11.0144 H       1  UNL1        0.0489
     49 H          24.2028   42.5524  -11.7778 H       1  UNL1        0.0489
     50 H          22.8803   42.7680  -10.0197 H       1  UNL1        0.1224
     51 H          23.4264   42.0484   -7.7206 H       1  UNL1        0.0450
     52 H          24.7793   41.2160   -8.4314 H       1  UNL1        0.0450
     53 H          20.5835   38.8010   -9.7218 H       1  UNL1        0.0286
     54 H          20.9063   38.6321   -8.0326 H       1  UNL1        0.0286
     55 H          18.5557   40.3416  -10.3460 H       1  UNL1        0.0268
     56 H          18.0731   38.6831  -10.2062 H       1  UNL1        0.0268
     57 H          16.6975   40.9804   -8.7381 H       1  UNL1        0.0265
     58 H          16.1171   39.3383   -8.8114 H       1  UNL1        0.0265
     59 H          16.4845   41.0895  -11.2885 H       1  UNL1        0.0265
     60 H          15.8302   39.4779  -11.2398 H       1  UNL1        0.0265
     61 H          13.8491   40.2087  -10.0112 H       1  UNL1        0.0266
     62 H          14.0444   41.1288  -11.4757 H       1  UNL1        0.0266
     63 H          13.3609   42.6705   -9.7901 H       1  UNL1        0.0287
     64 H          14.4770   42.0402   -8.6166 H       1  UNL1        0.0287
     65 H          16.3889   43.0132   -9.7722 H       1  UNL1        0.0560
     66 H          15.2057   44.2457   -9.4365 H       1  UNL1        0.0560
     67 H          16.2688   45.5527  -11.2181 H       1  UNL1        0.0657
     68 H          16.0243   45.0031  -12.8422 H       1  UNL1        0.0657
     69 H          21.1382   41.2688  -10.7680 H       1  UNL1        0.1491
     70 H          21.9687   43.9027  -11.5324 H       1  UNL1        0.0252
     71 H          21.3284   45.0500  -10.3646 H       1  UNL1        0.0252
     72 H          20.8218   45.1372  -12.0406 H       1  UNL1        0.0252
     73 H          19.3095   45.4323   -9.3462 H       1  UNL1        0.0429
     74 H          17.6307   44.9577   -9.2432 H       1  UNL1        0.0429
     75 H          18.1475   46.1994  -10.3907 H       1  UNL1        0.0429
     76 H          17.4619   38.4658   -7.1903 H       1  UNL1        0.0232
     77 H          19.0935   38.2098   -6.6271 H       1  UNL1        0.0232
     78 H          18.5223   37.3690   -8.0653 H       1  UNL1        0.0232
     79 H          24.0128   38.9219   -8.4293 H       1  UNL1        0.2099
@<TRIPOS>BOND
     1     1     2    1
     2     1    40    1
     3     1    41    1
     4     1    42    1
     5     2     3    1
     6     2    43    1
     7     2    44    1
     8     3    45    1
     9     3    46    1
    10     3     4    1
    11     4     8   ar
    12     4     5   ar
    13     5     6   ar
    14     5    47    1
    15     6     7   ar
    16     6     9    1
    17     7     8   ar
    18     7    35    1
    19     9    10    1
    20     9    48    1
    21     9    49    1
    22    10    11    1
    23    10    50    1
    24    11    12    1
    25    11    51    1
    26    11    52    1
    27    12    36    1
    28    12    13    1
    29    12    34    1
    30    13    37    1
    31    13    30    1
    32    13    14    1
    33    14    15    1
    34    14    53    1
    35    14    54    1
    36    15    38    1
    37    15    16    1
    38    15    33    1
    39    16    17    1
    40    16    55    1
    41    16    56    1
    42    17    18    1
    43    17    57    1
    44    17    58    1
    45    18    19    1
    46    18    59    1
    47    18    60    1
    48    19    20    1
    49    19    61    1
    50    19    62    1
    51    20    21    1
    52    20    63    1
    53    20    64    1
    54    21    22    1
    55    21    65    1
    56    21    66    1
    57    22    23    1
    58    23    24    1
    59    23    67    1
    60    23    68    1
    61    24    25    2
    62    24    26   am
    63    26    27    1
    64    26    32    1
    65    27    39    1
    66    27    28    1
    67    27    31    1
    68    28    29    2
    69    28    30   am
    70    30    69    1
    71    31    70    1
    72    31    71    1
    73    31    72    1
    74    32    73    1
    75    32    74    1
    76    32    75    1
    77    33    76    1
    78    33    77    1
    79    33    78    1
    80    34    79    1
