@<TRIPOS>MOLECULE
BACE_1.smi:1
 87 88 0 0 0
SMALL
GASTEIGER
****
Structure written by MMmdl.
@<TRIPOS>ATOM
      1 C          31.7244   41.8987  -12.9755 C.3     1  UNL1       -0.0652
      2 C          30.7765   43.0920  -12.8115 C.3     1  UNL1       -0.0545
      3 C          29.3137   42.6929  -12.5820 C.3     1  UNL1       -0.0376
      4 C          29.0323   42.0044  -11.2316 C.3     1  UNL1        0.0116
      5 N          27.6034   41.7528  -11.1061 N.am    1  UNL1       -0.3151
      6 C          26.7189   42.5957  -10.5519 C.2     1  UNL1        0.2159
      7 O          27.0386   43.5278   -9.8132 O.2     1  UNL1       -0.2755
      8 C          25.2575   42.4113  -10.9781 C.3     1  UNL1        0.0351
      9 C          24.8151   43.6148  -11.8349 C.3     1  UNL1       -0.0540
     10 C          24.2944   42.1420   -9.7901 C.3     1  UNL1       -0.0143
     11 C          23.2069   41.0851  -10.1016 C.3     1  UNL1        0.0742
     12 C          22.2309   40.8083   -8.9356 C.3     1  UNL1        0.0496
     13 C          21.3567   39.5557   -9.2069 C.3     1  UNL1       -0.0295
     14 C          20.3189   39.2160   -8.1086 C.3     1  UNL1       -0.0421
     15 C          19.2434   38.2411   -8.6397 C.3     1  UNL1       -0.0504
     16 C          18.0604   37.9573   -7.6868 C.3     1  UNL1       -0.0528
     17 C          17.3450   39.1991   -7.1205 C.3     1  UNL1       -0.0516
     18 C          16.7633   40.1374   -8.1842 C.3     1  UNL1       -0.0371
     19 C          16.1341   41.4012   -7.5679 C.3     1  UNL1        0.0150
     20 N          15.7534   42.3780   -8.5983 N.am    1  UNL1       -0.2978
     21 C          16.3184   43.6068   -8.7598 C.2     1  UNL1        0.2467
     22 O          15.7995   44.4806   -9.4610 O.2     1  UNL1       -0.2700
     23 C          17.6047   43.9503   -8.0501 C.ar    1  UNL1        0.0411
     24 C          18.7585   43.1418   -8.1584 C.ar    1  UNL1       -0.0373
     25 C          19.9593   43.4974   -7.5018 C.ar    1  UNL1        0.0409
     26 C          20.0083   44.6899   -6.7494 C.ar    1  UNL1       -0.0078
     27 C          18.8776   45.5378   -6.6705 C.ar    1  UNL1        0.1219
     28 C          17.6865   45.1514   -7.3160 C.ar    1  UNL1       -0.0078
     29 O          18.8592   46.7294   -5.9773 O.3     1  UNL1       -0.4922
     30 C          20.0732   47.4794   -5.9036 C.3     1  UNL1        0.0868
     31 C          20.4876   48.0267   -7.2773 C.3     1  UNL1       -0.0307
     32 C          21.1478   42.5790   -7.5322 C.2     1  UNL1        0.2445
     33 O          21.8542   42.4179   -6.5383 O.2     1  UNL1       -0.2702
     34 N          21.3658   41.9675   -8.7064 N.am    1  UNL1       -0.3060
     35 C          14.5214   42.0215   -9.3205 C.3     1  UNL1        0.0121
     36 C          14.7816   41.7284  -10.8067 C.3     1  UNL1       -0.0493
     37 C          20.9976   38.6964   -6.8314 C.3     1  UNL1       -0.0624
     38 O          22.4602   41.4742  -11.2398 O.3     1  UNL1       -0.3899
     39 H          25.2602   41.5320  -11.6165 H       1  UNL1        0.0392
     40 H          23.7040   40.1501  -10.3550 H       1  UNL1        0.0612
     41 H          22.8347   40.6063   -8.0507 H       1  UNL1        0.0524
     42 H          19.7967   40.1324   -7.8498 H       1  UNL1        0.0299
     43 H          32.7218   42.2341  -13.2639 H       1  UNL1        0.0230
     44 H          31.3727   41.2018  -13.7438 H       1  UNL1        0.0230
     45 H          31.8214   41.3502  -12.0389 H       1  UNL1        0.0230
     46 H          31.1243   43.7307  -11.9957 H       1  UNL1        0.0263
     47 H          30.8365   43.6954  -13.7176 H       1  UNL1        0.0263
     48 H          28.7058   43.5997  -12.6559 H       1  UNL1        0.0280
     49 H          28.9828   42.0446  -13.3951 H       1  UNL1        0.0280
     50 H          29.5532   41.0482  -11.1757 H       1  UNL1        0.0462
     51 H          29.3943   42.6163  -10.4051 H       1  UNL1        0.0462
     52 H          27.2459   40.9729  -11.6382 H       1  UNL1        0.1487
     53 H          25.5130   43.7964  -12.6515 H       1  UNL1        0.0237
     54 H          24.7624   44.5253  -11.2379 H       1  UNL1        0.0237
     55 H          23.8352   43.4547  -12.2837 H       1  UNL1        0.0237
     56 H          24.8605   41.7883   -8.9253 H       1  UNL1        0.0298
     57 H          23.8294   43.0740   -9.4682 H       1  UNL1        0.0298
     58 H          20.8198   39.7103  -10.1429 H       1  UNL1        0.0286
     59 H          21.9974   38.6887   -9.3754 H       1  UNL1        0.0286
     60 H          18.8441   38.6319   -9.5757 H       1  UNL1        0.0268
     61 H          19.7157   37.2976   -8.9044 H       1  UNL1        0.0268
     62 H          17.3274   37.3401   -8.2063 H       1  UNL1        0.0265
     63 H          18.4035   37.3517   -6.8490 H       1  UNL1        0.0265
     64 H          16.5369   38.8665   -6.4640 H       1  UNL1        0.0266
     65 H          18.0391   39.7499   -6.4859 H       1  UNL1        0.0266
     66 H          17.5367   40.4206   -8.8932 H       1  UNL1        0.0280
     67 H          16.0144   39.5958   -8.7607 H       1  UNL1        0.0280
     68 H          15.2579   41.1298   -6.9772 H       1  UNL1        0.0464
     69 H          16.8149   41.8383   -6.8405 H       1  UNL1        0.0464
     70 H          18.7142   42.2332   -8.7381 H       1  UNL1        0.0633
     71 H          20.9228   44.9326   -6.2296 H       1  UNL1        0.0662
     72 H          16.8184   45.7882   -7.2401 H       1  UNL1        0.0662
     73 H          19.8838   48.3245   -5.2408 H       1  UNL1        0.0694
     74 H          20.8824   46.9130   -5.4330 H       1  UNL1        0.0694
     75 H          21.4023   48.6101   -7.1881 H       1  UNL1        0.0262
     76 H          19.7163   48.6772   -7.6983 H       1  UNL1        0.0262
     77 H          20.6794   47.2210   -7.9907 H       1  UNL1        0.0262
     78 H          20.7879   42.2364   -9.4881 H       1  UNL1        0.1494
     79 H          14.0603   41.1382   -8.8789 H       1  UNL1        0.0462
     80 H          13.7802   42.8145   -9.2183 H       1  UNL1        0.0462
     81 H          13.8552   41.4286  -11.2971 H       1  UNL1        0.0245
     82 H          15.4992   40.9190  -10.9291 H       1  UNL1        0.0245
     83 H          15.1665   42.6037  -11.3299 H       1  UNL1        0.0245
     84 H          21.5091   37.7501   -7.0049 H       1  UNL1        0.0232
     85 H          20.2657   38.5450   -6.0399 H       1  UNL1        0.0232
     86 H          21.7264   39.4116   -6.4465 H       1  UNL1        0.0232
     87 H          23.0059   41.3176  -12.0044 H       1  UNL1        0.2099
@<TRIPOS>BOND
     1     1     2    1
     2     1    43    1
     3     1    44    1
     4     1    45    1
     5     2     3    1
     6     2    46    1
     7     2    47    1
     8     3     4    1
     9     3    48    1
    10     3    49    1
    11     4     5    1
    12     4    50    1
    13     4    51    1
    14     5     6   am
    15     5    52    1
    16     6     7    2
    17     6     8    1
    18     8    39    1
    19     8     9    1
    20     8    10    1
    21     9    53    1
    22     9    54    1
    23     9    55    1
    24    10    11    1
    25    10    56    1
    26    10    57    1
    27    11    40    1
    28    11    12    1
    29    11    38    1
    30    12    41    1
    31    12    34    1
    32    12    13    1
    33    13    14    1
    34    13    58    1
    35    13    59    1
    36    14    42    1
    37    14    15    1
    38    14    37    1
    39    15    16    1
    40    15    60    1
    41    15    61    1
    42    16    17    1
    43    16    62    1
    44    16    63    1
    45    17    18    1
    46    17    64    1
    47    17    65    1
    48    18    19    1
    49    18    66    1
    50    18    67    1
    51    19    20    1
    52    19    68    1
    53    19    69    1
    54    20    21   am
    55    20    35    1
    56    21    22    2
    57    21    23    1
    58    23    28   ar
    59    23    24   ar
    60    24    25   ar
    61    24    70    1
    62    25    26   ar
    63    25    32    1
    64    26    27   ar
    65    26    71    1
    66    27    28   ar
    67    27    29    1
    68    28    72    1
    69    29    30    1
    70    30    31    1
    71    30    73    1
    72    30    74    1
    73    31    75    1
    74    31    76    1
    75    31    77    1
    76    32    33    2
    77    32    34   am
    78    34    78    1
    79    35    36    1
    80    35    79    1
    81    35    80    1
    82    36    81    1
    83    36    82    1
    84    36    83    1
    85    37    84    1
    86    37    85    1
    87    37    86    1
    88    38    87    1
