@<TRIPOS>MOLECULE
BACE_17.smi:1
 62 64 0 0 0
SMALL
GASTEIGER
****
Structure written by MMmdl.
@<TRIPOS>ATOM
      1 C          17.8943   45.9115   -7.3715 C.3     1  UNL1        0.0031
      2 N          18.6794   47.0076   -6.7950 N.am    1  UNL1       -0.3036
      3 C          17.9090   48.2285   -6.5464 C.3     1  UNL1        0.0031
      4 C          19.9913   46.9200   -6.4545 C.2     1  UNL1        0.2463
      5 O          20.5783   47.7994   -5.8230 O.2     1  UNL1       -0.2700
      6 C          20.7556   45.6869   -6.8492 C.ar    1  UNL1        0.0410
      7 C          21.4613   44.9613   -5.8645 C.ar    1  UNL1       -0.0078
      8 C          20.8168   45.2621   -8.1972 C.ar    1  UNL1       -0.0373
      9 C          21.5291   44.0980   -8.5482 C.ar    1  UNL1        0.0409
     10 C          22.2486   43.4014   -7.5561 C.ar    1  UNL1       -0.0078
     11 C          22.1999   43.8066   -6.2119 C.ar    1  UNL1        0.1219
     12 C          21.5145   43.5899   -9.9563 C.2     1  UNL1        0.2445
     13 O          21.5637   44.3497  -10.9224 O.2     1  UNL1       -0.2702
     14 N          21.3696   42.2611  -10.0428 N.am    1  UNL1       -0.3056
     15 C          21.3224   41.4480  -11.2497 C.3     1  UNL1        0.0554
     16 C          20.0005   41.6895  -12.0381 C.3     1  UNL1        0.0968
     17 O          20.0598   40.9505  -13.2393 O.3     1  UNL1       -0.3877
     18 C          18.6714   41.3909  -11.3077 C.3     1  UNL1        0.0719
     19 O          17.6341   42.2381  -11.7675 O.3     1  UNL1       -0.3924
     20 C          21.6566   39.9694  -10.9005 C.3     1  UNL1       -0.0066
     21 C          20.8098   39.3587   -9.7885 C.ar    1  UNL1       -0.0421
     22 C          21.1057   39.6224   -8.4308 C.ar    1  UNL1       -0.0167
     23 C          20.2778   39.1167   -7.3961 C.ar    1  UNL1        0.1208
     24 C          19.1663   38.3217   -7.7422 C.ar    1  UNL1       -0.0199
     25 C          18.8929   38.0170   -9.0887 C.ar    1  UNL1       -0.0580
     26 C          19.7201   38.5237  -10.1089 C.ar    1  UNL1       -0.0583
     27 O          20.4853   39.3501   -6.0534 O.3     1  UNL1       -0.4920
     28 C          21.4863   40.2825   -5.6746 C.3     1  UNL1        0.0897
     29 C          21.4690   40.4344   -4.1468 C.3     1  UNL1       -0.0156
     30 C          22.5129   41.4141   -3.5761 C.3     1  UNL1       -0.0156
     31 C          22.3261   42.8789   -4.0082 C.3     1  UNL1        0.0897
     32 O          22.8848   43.0331   -5.3070 O.3     1  UNL1       -0.4919
     33 H          22.1348   41.7941  -11.8945 H       1  UNL1        0.0528
     34 H          19.9858   42.7405  -12.3151 H       1  UNL1        0.0635
     35 H          18.0729   45.8312   -8.4437 H       1  UNL1        0.0428
     36 H          16.8237   46.0666   -7.2417 H       1  UNL1        0.0428
     37 H          18.1353   44.9530   -6.9086 H       1  UNL1        0.0428
     38 H          17.3105   48.1256   -5.6417 H       1  UNL1        0.0428
     39 H          17.2346   48.4273   -7.3786 H       1  UNL1        0.0428
     40 H          18.5350   49.1153   -6.4367 H       1  UNL1        0.0428
     41 H          21.4336   45.2983   -4.8400 H       1  UNL1        0.0662
     42 H          20.2950   45.8153   -8.9643 H       1  UNL1        0.0633
     43 H          22.8223   42.5208   -7.8074 H       1  UNL1        0.0662
     44 H          21.2824   41.7588   -9.1730 H       1  UNL1        0.1494
     45 H          19.9341   40.0357  -13.0316 H       1  UNL1        0.2100
     46 H          18.3526   40.3623  -11.4496 H       1  UNL1        0.0583
     47 H          18.7719   41.5531  -10.2341 H       1  UNL1        0.0583
     48 H          16.8828   42.0937  -11.2135 H       1  UNL1        0.2095
     49 H          21.6175   39.3424  -11.7916 H       1  UNL1        0.0332
     50 H          22.6969   39.9204  -10.5770 H       1  UNL1        0.0332
     51 H          21.9699   40.2263   -8.2026 H       1  UNL1        0.0657
     52 H          18.5235   37.9309   -6.9639 H       1  UNL1        0.0654
     53 H          18.0456   37.3941   -9.3353 H       1  UNL1        0.0619
     54 H          19.4932   38.2835  -11.1394 H       1  UNL1        0.0620
     55 H          22.4696   39.9455   -6.0048 H       1  UNL1        0.0696
     56 H          21.2638   41.2361   -6.1473 H       1  UNL1        0.0696
     57 H          20.4701   40.7367   -3.8255 H       1  UNL1        0.0299
     58 H          21.6512   39.4524   -3.7066 H       1  UNL1        0.0299
     59 H          22.4464   41.3750   -2.4889 H       1  UNL1        0.0299
     60 H          23.5197   41.0787   -3.8248 H       1  UNL1        0.0299
     61 H          21.2684   43.1384   -3.9527 H       1  UNL1        0.0696
     62 H          22.8601   43.5418   -3.3292 H       1  UNL1        0.0696
@<TRIPOS>BOND
     1     1     2    1
     2     1    35    1
     3     1    36    1
     4     1    37    1
     5     2     3    1
     6     2     4   am
     7     3    38    1
     8     3    39    1
     9     3    40    1
    10     4     5    2
    11     4     6    1
    12     6     7   ar
    13     6     8   ar
    14     7    11   ar
    15     7    41    1
    16     8     9   ar
    17     8    42    1
    18     9    10   ar
    19     9    12    1
    20    10    11   ar
    21    10    43    1
    22    11    32    1
    23    12    13    2
    24    12    14   am
    25    14    15    1
    26    14    44    1
    27    15    33    1
    28    15    16    1
    29    15    20    1
    30    16    34    1
    31    16    17    1
    32    16    18    1
    33    17    45    1
    34    18    19    1
    35    18    46    1
    36    18    47    1
    37    19    48    1
    38    20    21    1
    39    20    49    1
    40    20    50    1
    41    21    26   ar
    42    21    22   ar
    43    22    23   ar
    44    22    51    1
    45    23    24   ar
    46    23    27    1
    47    24    25   ar
    48    24    52    1
    49    25    26   ar
    50    25    53    1
    51    26    54    1
    52    27    28    1
    53    28    29    1
    54    28    55    1
    55    28    56    1
    56    29    30    1
    57    29    57    1
    58    29    58    1
    59    30    31    1
    60    30    59    1
    61    30    60    1
    62    31    32    1
    63    31    61    1
    64    31    62    1
