@<TRIPOS>MOLECULE
BACE_13.smi:1
 76 79 0 0 0
SMALL
GASTEIGER
****
Structure written by MMmdl.
@<TRIPOS>ATOM
      1 C          20.0731   49.6243   -6.9811 C.3     1  UNL1        0.0369
      2 O          20.9062   49.4382   -8.1147 O.3     1  UNL1       -0.3784
      3 C          21.8780   48.4128   -7.9655 C.3     1  UNL1        0.0724
      4 C          21.2824   47.0168   -7.8827 C.ar    1  UNL1       -0.0195
      5 C          20.9675   46.3035   -9.0576 C.ar    1  UNL1       -0.0442
      6 C          20.4277   45.0000   -8.9849 C.ar    1  UNL1        0.0388
      7 C          20.1827   44.4266   -7.7146 C.ar    1  UNL1       -0.0287
      8 C          20.4993   45.1340   -6.5280 C.ar    1  UNL1        0.0282
      9 C          21.0526   46.4246   -6.6250 C.ar    1  UNL1       -0.0355
     10 N          20.2877   44.6219   -5.2405 N.pl3   1  UNL1       -0.3438
     11 C          20.0601   43.2031   -5.0261 C.3     1  UNL1        0.0092
     12 C          21.3223   42.3622   -5.2515 C.3     1  UNL1       -0.0344
     13 C          21.0618   40.8662   -5.0247 C.3     1  UNL1       -0.0172
     14 C          22.2469   39.9933   -5.4667 C.3     1  UNL1        0.0896
     15 O          22.5226   40.1538   -6.8569 O.3     1  UNL1       -0.4920
     16 C          21.5949   39.7220   -7.7787 C.ar    1  UNL1        0.1208
     17 C          20.6498   38.6940   -7.5309 C.ar    1  UNL1       -0.0199
     18 C          19.7425   38.3079   -8.5343 C.ar    1  UNL1       -0.0580
     19 C          19.7554   38.9444   -9.7873 C.ar    1  UNL1       -0.0583
     20 C          20.6575   39.9997  -10.0308 C.ar    1  UNL1       -0.0421
     21 C          21.5951   40.3542   -9.0385 C.ar    1  UNL1       -0.0167
     22 C          20.6337   40.7261  -11.3665 C.3     1  UNL1       -0.0066
     23 C          19.8744   42.0821  -11.4099 C.3     1  UNL1        0.0548
     24 N          20.1883   42.9392  -10.2556 N.am    1  UNL1       -0.3057
     25 C          20.0564   44.2789  -10.2531 C.2     1  UNL1        0.2444
     26 O          19.6820   44.9066  -11.2439 O.2     1  UNL1       -0.2702
     27 C          18.3351   41.9610  -11.6873 C.3     1  UNL1        0.0912
     28 C          17.3800   42.1062  -10.4651 C.3     1  UNL1        0.0591
     29 C          15.8855   42.1341  -10.8607 C.3     1  UNL1        0.0660
     30 O          15.0501   42.2196   -9.7052 O.3     1  UNL1       -0.3714
     31 C          15.2312   41.1508   -8.7676 C.3     1  UNL1        0.0944
     32 C          16.7161   41.0875   -8.3554 C.3     1  UNL1        0.0248
     33 N          17.5818   41.0046   -9.5300 N.3     1  UNL1       -0.3065
     34 C          14.6451   39.8166   -9.3023 C.3     1  UNL1        0.0747
     35 O          14.9113   38.6760   -8.4964 O.3     1  UNL1       -0.3804
     36 C          14.4636   38.7627   -7.1485 C.3     1  UNL1        0.0366
     37 O          18.0112   42.9501  -12.6568 O.3     1  UNL1       -0.3883
     38 H          20.3130   42.5507  -12.2865 H       1  UNL1        0.0527
     39 H          18.1345   41.0050  -12.1716 H       1  UNL1        0.0628
     40 H          17.5858   43.0476   -9.9591 H       1  UNL1        0.0509
     41 H          14.6638   41.4317   -7.8802 H       1  UNL1        0.0632
     42 H          19.4244   50.4838   -7.1469 H       1  UNL1        0.0524
     43 H          20.6628   49.8203   -6.0840 H       1  UNL1        0.0524
     44 H          19.4368   48.7591   -6.8004 H       1  UNL1        0.0524
     45 H          22.5043   48.6085   -7.0952 H       1  UNL1        0.0610
     46 H          22.5467   48.4539   -8.8279 H       1  UNL1        0.0610
     47 H          21.1385   46.7654  -10.0199 H       1  UNL1        0.0628
     48 H          19.7446   43.4411   -7.6603 H       1  UNL1        0.0643
     49 H          21.2973   46.9755   -5.7295 H       1  UNL1        0.0639
     50 H          20.6861   45.1200   -4.4556 H       1  UNL1        0.1461
     51 H          19.2614   42.8683   -5.6793 H       1  UNL1        0.0461
     52 H          19.6996   43.0638   -4.0045 H       1  UNL1        0.0461
     53 H          22.1200   42.7000   -4.5905 H       1  UNL1        0.0281
     54 H          21.6803   42.5131   -6.2691 H       1  UNL1        0.0281
     55 H          20.1587   40.5635   -5.5545 H       1  UNL1        0.0298
     56 H          20.8516   40.6913   -3.9677 H       1  UNL1        0.0298
     57 H          22.0881   38.9507   -5.2068 H       1  UNL1        0.0696
     58 H          23.1366   40.2918   -4.9143 H       1  UNL1        0.0696
     59 H          20.6108   38.1792   -6.5842 H       1  UNL1        0.0654
     60 H          19.0240   37.5264   -8.3388 H       1  UNL1        0.0619
     61 H          19.0440   38.6484  -10.5447 H       1  UNL1        0.0620
     62 H          22.3121   41.1399   -9.2317 H       1  UNL1        0.0657
     63 H          20.2552   40.0554  -12.1391 H       1  UNL1        0.0332
     64 H          21.6757   40.9013  -11.6410 H       1  UNL1        0.0332
     65 H          20.5362   42.4869   -9.4226 H       1  UNL1        0.1494
     66 H          15.6318   41.2703  -11.4741 H       1  UNL1        0.0576
     67 H          15.6749   43.0096  -11.4747 H       1  UNL1        0.0576
     68 H          16.8933   40.2401   -7.6933 H       1  UNL1        0.0450
     69 H          16.9682   41.9773   -7.7751 H       1  UNL1        0.0450
     70 H          18.5517   40.9482   -9.2400 H       1  UNL1        0.1224
     71 H          13.5705   39.9042   -9.4497 H       1  UNL1        0.0586
     72 H          15.0662   39.5712  -10.2714 H       1  UNL1        0.0586
     73 H          14.0949   37.7894   -6.8303 H       1  UNL1        0.0524
     74 H          13.6479   39.4691   -7.0059 H       1  UNL1        0.0524
     75 H          15.2886   39.0557   -6.4895 H       1  UNL1        0.0524
     76 H          18.2874   43.7906  -12.3047 H       1  UNL1        0.2099
@<TRIPOS>BOND
     1     1     2    1
     2     1    42    1
     3     1    43    1
     4     1    44    1
     5     2     3    1
     6     3     4    1
     7     3    45    1
     8     3    46    1
     9     4     9   ar
    10     4     5   ar
    11     5     6   ar
    12     5    47    1
    13     6    25    1
    14     6     7   ar
    15     7     8   ar
    16     7    48    1
    17     8     9   ar
    18     8    10    1
    19     9    49    1
    20    10    11    1
    21    10    50    1
    22    11    12    1
    23    11    51    1
    24    11    52    1
    25    12    13    1
    26    12    53    1
    27    12    54    1
    28    13    14    1
    29    13    55    1
    30    13    56    1
    31    14    15    1
    32    14    57    1
    33    14    58    1
    34    15    16    1
    35    16    21   ar
    36    16    17   ar
    37    17    18   ar
    38    17    59    1
    39    18    19   ar
    40    18    60    1
    41    19    20   ar
    42    19    61    1
    43    20    21   ar
    44    20    22    1
    45    21    62    1
    46    22    23    1
    47    22    63    1
    48    22    64    1
    49    23    38    1
    50    23    24    1
    51    23    27    1
    52    24    25   am
    53    24    65    1
    54    25    26    2
    55    27    39    1
    56    27    28    1
    57    27    37    1
    58    28    40    1
    59    28    33    1
    60    28    29    1
    61    29    30    1
    62    29    66    1
    63    29    67    1
    64    30    31    1
    65    31    41    1
    66    31    32    1
    67    31    34    1
    68    32    33    1
    69    32    68    1
    70    32    69    1
    71    33    70    1
    72    34    35    1
    73    34    71    1
    74    34    72    1
    75    35    36    1
    76    36    73    1
    77    36    74    1
    78    36    75    1
    79    37    76    1
