@<TRIPOS>MOLECULE
BACE_14.smi:1
 85 89 0 0 0
SMALL
GASTEIGER
****
Structure written by MMmdl.
@<TRIPOS>ATOM
      1 C          17.5872   43.9456  -12.7107 C.3     1  UNL1       -0.0586
      2 C          16.9373   44.3244  -11.3680 C.3     1  UNL1       -0.0215
      3 C          16.3352   45.7403  -11.4020 C.3     1  UNL1       -0.0586
      4 C          15.9218   43.2801  -10.9073 C.ar    1  UNL1       -0.0445
      5 C          14.5549   43.3967  -11.2454 C.ar    1  UNL1       -0.0583
      6 C          13.6323   42.4249  -10.8150 C.ar    1  UNL1       -0.0612
      7 C          14.0669   41.3311  -10.0430 C.ar    1  UNL1       -0.0568
      8 C          15.4279   41.1970   -9.6901 C.ar    1  UNL1       -0.0271
      9 C          16.3460   42.1770  -10.1317 C.ar    1  UNL1       -0.0534
     10 C          15.9079   40.0152   -8.8597 C.3     1  UNL1        0.0447
     11 C          16.5158   40.3104   -7.5093 C.3     1  UNL1       -0.0285
     12 C          15.1425   39.6891   -7.5996 C.3     1  UNL1       -0.0285
     13 N          16.4667   38.8917   -9.6274 N.3     1  UNL1       -0.3042
     14 C          17.8373   39.0756  -10.1107 C.3     1  UNL1        0.0245
     15 C          18.7887   39.4818   -8.9615 C.3     1  UNL1        0.0862
     16 C          19.8247   40.5908   -9.3045 C.3     1  UNL1        0.0545
     17 C          20.9841   40.0376  -10.1785 C.3     1  UNL1       -0.0066
     18 C          22.0121   41.0851  -10.5864 C.ar    1  UNL1       -0.0421
     19 C          21.7307   41.9753  -11.6421 C.ar    1  UNL1       -0.0583
     20 C          22.6776   42.9475  -12.0135 C.ar    1  UNL1       -0.0580
     21 C          23.9076   43.0378  -11.3334 C.ar    1  UNL1       -0.0199
     22 C          24.2036   42.1520  -10.2683 C.ar    1  UNL1        0.1208
     23 C          23.2499   41.1753   -9.9129 C.ar    1  UNL1       -0.0167
     24 O          25.3768   42.1668   -9.5430 O.3     1  UNL1       -0.4920
     25 C          26.2663   43.2796   -9.6495 C.3     1  UNL1        0.0896
     26 C          25.7045   44.5363   -8.9565 C.3     1  UNL1       -0.0172
     27 C          25.3567   44.2990   -7.4791 C.3     1  UNL1       -0.0344
     28 C          24.6215   45.4963   -6.8468 C.3     1  UNL1        0.0092
     29 N          23.9841   45.1546   -5.5780 N.pl3   1  UNL1       -0.3438
     30 C          22.9138   44.2462   -5.5380 C.ar    1  UNL1        0.0285
     31 C          22.1747   43.8952   -6.6913 C.ar    1  UNL1       -0.0287
     32 C          21.1626   42.9158   -6.6327 C.ar    1  UNL1        0.0391
     33 C          20.8455   42.3159   -5.3941 C.ar    1  UNL1       -0.0390
     34 C          21.5509   42.6876   -4.2332 C.ar    1  UNL1        0.0196
     35 C          22.5830   43.6439   -4.3068 C.ar    1  UNL1       -0.0303
     36 C          21.2224   42.0692   -2.9486 C.2     1  UNL1        0.1602
     37 O          21.0800   42.7055   -1.9045 O.2     1  UNL1       -0.2924
     38 C          21.0519   40.5503   -2.8995 C.3     1  UNL1       -0.0014
     39 C          20.4435   42.5325   -7.8892 C.2     1  UNL1        0.2445
     40 O          20.0885   43.3817   -8.6901 O.2     1  UNL1       -0.2702
     41 N          20.3649   41.2125   -8.0879 N.am    1  UNL1       -0.3057
     42 O          19.4951   38.3396   -8.5157 O.3     1  UNL1       -0.3887
     43 H          18.1983   39.8201   -8.1084 H       1  UNL1        0.0624
     44 H          19.3149   41.3376   -9.9162 H       1  UNL1        0.0527
     45 H          18.3577   44.6653  -12.9894 H       1  UNL1        0.0235
     46 H          16.8607   43.9145  -13.5231 H       1  UNL1        0.0235
     47 H          18.0642   42.9666  -12.6532 H       1  UNL1        0.0235
     48 H          17.7412   44.3479  -10.6311 H       1  UNL1        0.0343
     49 H          17.0910   46.4809  -11.6655 H       1  UNL1        0.0235
     50 H          15.9343   46.0196  -10.4270 H       1  UNL1        0.0235
     51 H          15.5280   45.8248  -12.1302 H       1  UNL1        0.0235
     52 H          14.2032   44.2290  -11.8372 H       1  UNL1        0.0620
     53 H          12.5890   42.5181  -11.0786 H       1  UNL1        0.0618
     54 H          13.3463   40.5919   -9.7246 H       1  UNL1        0.0621
     55 H          17.3891   42.0763   -9.8681 H       1  UNL1        0.0624
     56 H          17.3362   39.6752   -7.1753 H       1  UNL1        0.0287
     57 H          16.5784   41.3540   -7.2012 H       1  UNL1        0.0287
     58 H          14.2869   40.3174   -7.3518 H       1  UNL1        0.0287
     59 H          15.0447   38.6386   -7.3260 H       1  UNL1        0.0287
     60 H          16.3834   38.0289   -9.0993 H       1  UNL1        0.1229
     61 H          17.8362   39.8557  -10.8719 H       1  UNL1        0.0450
     62 H          18.2011   38.1700  -10.5979 H       1  UNL1        0.0450
     63 H          21.4893   39.2301   -9.6486 H       1  UNL1        0.0332
     64 H          20.5721   39.5851  -11.0804 H       1  UNL1        0.0332
     65 H          20.7893   41.9188  -12.1684 H       1  UNL1        0.0620
     66 H          22.4600   43.6286  -12.8229 H       1  UNL1        0.0619
     67 H          24.6060   43.7976  -11.6514 H       1  UNL1        0.0654
     68 H          23.4701   40.4967   -9.1022 H       1  UNL1        0.0657
     69 H          27.1980   42.9950   -9.1605 H       1  UNL1        0.0696
     70 H          26.5356   43.4792  -10.6866 H       1  UNL1        0.0696
     71 H          26.4258   45.3502   -9.0307 H       1  UNL1        0.0298
     72 H          24.8164   44.8758   -9.4896 H       1  UNL1        0.0298
     73 H          24.7569   43.3946   -7.3770 H       1  UNL1        0.0281
     74 H          26.2846   44.1013   -6.9423 H       1  UNL1        0.0281
     75 H          25.3307   46.3062   -6.6760 H       1  UNL1        0.0461
     76 H          23.8760   45.9018   -7.5308 H       1  UNL1        0.0461
     77 H          24.5108   45.3163   -4.7315 H       1  UNL1        0.1461
     78 H          22.3946   44.3372   -7.6519 H       1  UNL1        0.0643
     79 H          20.0605   41.5771   -5.3267 H       1  UNL1        0.0632
     80 H          23.1246   43.8991   -3.4080 H       1  UNL1        0.0643
     81 H          21.9595   40.0486   -3.2360 H       1  UNL1        0.0309
     82 H          20.2187   40.2352   -3.5281 H       1  UNL1        0.0309
     83 H          20.8460   40.2242   -1.8796 H       1  UNL1        0.0309
     84 H          20.7472   40.6152   -7.3687 H       1  UNL1        0.1494
     85 H          19.8908   38.5386   -7.6810 H       1  UNL1        0.2099
@<TRIPOS>BOND
     1     1     2    1
     2     1    45    1
     3     1    46    1
     4     1    47    1
     5     2     3    1
     6     2     4    1
     7     2    48    1
     8     3    49    1
     9     3    50    1
    10     3    51    1
    11     4     9   ar
    12     4     5   ar
    13     5     6   ar
    14     5    52    1
    15     6     7   ar
    16     6    53    1
    17     7     8   ar
    18     7    54    1
    19     8     9   ar
    20     8    10    1
    21     9    55    1
    22    10    12    1
    23    10    11    1
    24    10    13    1
    25    11    12    1
    26    11    56    1
    27    11    57    1
    28    12    58    1
    29    12    59    1
    30    13    14    1
    31    13    60    1
    32    14    15    1
    33    14    61    1
    34    14    62    1
    35    15    43    1
    36    15    16    1
    37    15    42    1
    38    16    44    1
    39    16    41    1
    40    16    17    1
    41    17    18    1
    42    17    63    1
    43    17    64    1
    44    18    23   ar
    45    18    19   ar
    46    19    20   ar
    47    19    65    1
    48    20    21   ar
    49    20    66    1
    50    21    22   ar
    51    21    67    1
    52    22    23   ar
    53    22    24    1
    54    23    68    1
    55    24    25    1
    56    25    26    1
    57    25    69    1
    58    25    70    1
    59    26    27    1
    60    26    71    1
    61    26    72    1
    62    27    28    1
    63    27    73    1
    64    27    74    1
    65    28    29    1
    66    28    75    1
    67    28    76    1
    68    29    30    1
    69    29    77    1
    70    30    35   ar
    71    30    31   ar
    72    31    32   ar
    73    31    78    1
    74    32    33   ar
    75    32    39    1
    76    33    34   ar
    77    33    79    1
    78    34    35   ar
    79    34    36    1
    80    35    80    1
    81    36    37    2
    82    36    38    1
    83    38    81    1
    84    38    82    1
    85    38    83    1
    86    39    40    2
    87    39    41   am
    88    41    84    1
    89    42    85    1
