@<TRIPOS>MOLECULE
BACE_7.smi:1
 99 103 0 0 0
SMALL
GASTEIGER
****
Structure written by MMmdl.
@<TRIPOS>ATOM
      1 C          18.0651   38.3780   -6.7424 C.3     1  UNL1       -0.0624
      2 C          18.1927   38.7301   -8.2340 C.3     1  UNL1       -0.0421
      3 C          17.2842   37.8468   -9.1252 C.3     1  UNL1       -0.0504
      4 C          15.8094   38.3008   -9.1273 C.3     1  UNL1       -0.0528
      5 C          15.5623   39.5944   -9.9336 C.3     1  UNL1       -0.0516
      6 C          14.3432   40.3839   -9.4277 C.3     1  UNL1       -0.0371
      7 C          14.0783   41.7023  -10.1841 C.3     1  UNL1        0.0156
      8 N          15.1783   42.6805  -10.0238 N.am    1  UNL1       -0.2907
      9 C          15.1926   43.4912   -8.9400 C.2     1  UNL1        0.2471
     10 O          14.1650   43.9303   -8.4197 O.2     1  UNL1       -0.2700
     11 C          16.5353   43.8591   -8.3774 C.ar    1  UNL1        0.0384
     12 C          16.8159   45.1971   -8.0404 C.ar    1  UNL1       -0.0373
     13 C          18.0640   45.5450   -7.4807 C.ar    1  UNL1        0.0383
     14 C          19.0442   44.5492   -7.2767 C.ar    1  UNL1       -0.0373
     15 C          18.7843   43.2049   -7.6180 C.ar    1  UNL1        0.0381
     16 C          17.5075   42.8657   -8.1253 C.ar    1  UNL1       -0.0375
     17 C          19.8361   42.1531   -7.3886 C.2     1  UNL1        0.2444
     18 O          20.6519   42.2584   -6.4782 O.2     1  UNL1       -0.2702
     19 N          19.8359   41.1413   -8.2732 N.am    1  UNL1       -0.3058
     20 C          20.5505   39.8696   -8.1303 C.3     1  UNL1        0.0545
     21 C          19.6680   38.7391   -8.7202 C.3     1  UNL1       -0.0293
     22 C          21.9719   39.8965   -8.7766 C.3     1  UNL1        0.1130
     23 C          22.1664   40.8932   -9.9507 C.3     1  UNL1       -0.0050
     24 N          23.5658   40.9487  -10.4391 N.4     1  UNL1        0.2321
     25 C          24.3883   42.0101   -9.8148 C.3     1  UNL1       -0.0076
     26 C          25.6247   42.2869  -10.6394 C.ar    1  UNL1       -0.0027
     27 C          26.7682   41.4835  -10.4871 C.ar    1  UNL1       -0.0535
     28 C          27.9227   41.7574  -11.2457 C.ar    1  UNL1       -0.0611
     29 C          27.9433   42.8475  -12.1390 C.ar    1  UNL1       -0.0583
     30 C          26.7999   43.6674  -12.3013 C.ar    1  UNL1       -0.0444
     31 C          25.6393   43.3615  -11.5555 C.ar    1  UNL1       -0.0501
     32 C          26.7824   44.8597  -13.2643 C.3     1  UNL1       -0.0215
     33 C          28.1260   45.1266  -13.9683 C.3     1  UNL1       -0.0586
     34 C          26.3023   46.1523  -12.5755 C.3     1  UNL1       -0.0586
     35 O          22.9249   40.1335   -7.7601 O.3     1  UNL1       -0.3847
     36 C          18.3217   46.9239   -7.0977 C.ar    1  UNL1        0.2271
     37 N          17.6640   48.0199   -7.4735 N.ar    1  UNL1       -0.2175
     38 C          18.3216   49.0630   -6.8403 C.ar    1  UNL1        0.0663
     39 C          19.3265   48.5359   -6.0740 C.ar    1  UNL1        0.1125
     40 O          19.3376   47.1778   -6.2278 O.2     1  UNL1       -0.4436
     41 C          15.8695   43.0900  -11.2708 C.3     1  UNL1        0.0487
     42 C          17.4023   42.8902  -11.2700 C.3     1  UNL1       -0.0422
     43 C          15.3967   44.4562  -11.7929 C.ar    1  UNL1       -0.0273
     44 C          16.2946   45.5212  -12.0373 C.ar    1  UNL1       -0.0568
     45 C          15.8328   46.7473  -12.5558 C.ar    1  UNL1       -0.0614
     46 C          14.4664   46.9270  -12.8404 C.ar    1  UNL1       -0.0617
     47 C          13.5586   45.8814  -12.5817 C.ar    1  UNL1       -0.0614
     48 C          14.0205   44.6609  -12.0541 C.ar    1  UNL1       -0.0568
     49 H          17.8082   39.7368   -8.3265 H       1  UNL1        0.0299
     50 H          20.6584   39.6512   -7.0661 H       1  UNL1        0.0526
     51 H          22.2035   38.8953   -9.1443 H       1  UNL1        0.0666
     52 H          15.5592   42.3917  -12.0393 H       1  UNL1        0.0548
     53 H          18.3673   37.3505   -6.5430 H       1  UNL1        0.0232
     54 H          17.0354   38.4956   -6.4022 H       1  UNL1        0.0232
     55 H          18.6708   39.0323   -6.1182 H       1  UNL1        0.0232
     56 H          17.6396   37.8417  -10.1565 H       1  UNL1        0.0268
     57 H          17.3472   36.8103   -8.7870 H       1  UNL1        0.0268
     58 H          15.1838   37.5109   -9.5405 H       1  UNL1        0.0265
     59 H          15.4733   38.4262   -8.0965 H       1  UNL1        0.0265
     60 H          16.4357   40.2405   -9.8924 H       1  UNL1        0.0266
     61 H          15.4385   39.3490  -10.9881 H       1  UNL1        0.0266
     62 H          13.4592   39.7485   -9.5000 H       1  UNL1        0.0280
     63 H          14.4631   40.6014   -8.3652 H       1  UNL1        0.0280
     64 H          13.8750   41.4687  -11.2277 H       1  UNL1        0.0465
     65 H          13.1413   42.1262   -9.8195 H       1  UNL1        0.0465
     66 H          16.0629   45.9557   -8.1951 H       1  UNL1        0.0633
     67 H          20.0041   44.8148   -6.8527 H       1  UNL1        0.0633
     68 H          17.2645   41.8380   -8.3406 H       1  UNL1        0.0633
     69 H          19.1397   41.1812   -9.0011 H       1  UNL1        0.1494
     70 H          20.1197   37.7683   -8.5067 H       1  UNL1        0.0286
     71 H          19.6782   38.8373   -9.8081 H       1  UNL1        0.0286
     72 H          21.5383   40.5686  -10.7806 H       1  UNL1        0.0840
     73 H          21.8346   41.8993   -9.6938 H       1  UNL1        0.0840
     74 H          24.0137   40.0580  -10.2783 H       1  UNL1        0.2018
     75 H          23.8165   42.9358   -9.7237 H       1  UNL1        0.0866
     76 H          24.6808   41.7182   -8.8046 H       1  UNL1        0.0866
     77 H          26.7668   40.6484   -9.8033 H       1  UNL1        0.0622
     78 H          28.7971   41.1323  -11.1403 H       1  UNL1        0.0618
     79 H          28.8527   43.0279  -12.6905 H       1  UNL1        0.0620
     80 H          24.7509   43.9637  -11.6746 H       1  UNL1        0.0625
     81 H          26.0549   44.6073  -14.0381 H       1  UNL1        0.0343
     82 H          28.4612   44.2645  -14.5399 H       1  UNL1        0.0235
     83 H          28.9057   45.3791  -13.2496 H       1  UNL1        0.0235
     84 H          28.0436   45.9599  -14.6667 H       1  UNL1        0.0235
     85 H          25.2873   46.0650  -12.1923 H       1  UNL1        0.0235
     86 H          26.3041   46.9896  -13.2724 H       1  UNL1        0.0235
     87 H          26.9531   46.4145  -11.7417 H       1  UNL1        0.0235
     88 H          23.4905   39.3743   -7.6950 H       1  UNL1        0.2101
     89 H          18.0178   50.0897   -6.9763 H       1  UNL1        0.0862
     90 H          20.0679   48.9622   -5.4138 H       1  UNL1        0.1046
     91 H          17.8004   42.9836  -12.2812 H       1  UNL1        0.0251
     92 H          17.6741   41.8965  -10.9137 H       1  UNL1        0.0251
     93 H          17.9288   43.6202  -10.6581 H       1  UNL1        0.0251
     94 H          17.3526   45.4198  -11.8420 H       1  UNL1        0.0621
     95 H          16.5333   47.5497  -12.7421 H       1  UNL1        0.0618
     96 H          14.1206   47.8608  -13.2552 H       1  UNL1        0.0618
     97 H          12.5093   46.0126  -12.8074 H       1  UNL1        0.0618
     98 H          13.3113   43.8652  -11.8765 H       1  UNL1        0.0621
     99 H          23.5642   41.1124  -11.4407 H       1  UNL1        0.2018
@<TRIPOS>BOND
     1     1     2    1
     2     1    53    1
     3     1    54    1
     4     1    55    1
     5     2    49    1
     6     2    21    1
     7     2     3    1
     8     3     4    1
     9     3    56    1
    10     3    57    1
    11     4     5    1
    12     4    58    1
    13     4    59    1
    14     5     6    1
    15     5    60    1
    16     5    61    1
    17     6     7    1
    18     6    62    1
    19     6    63    1
    20     7     8    1
    21     7    64    1
    22     7    65    1
    23     8     9   am
    24     8    41    1
    25     9    10    2
    26     9    11    1
    27    11    16   ar
    28    11    12   ar
    29    12    13   ar
    30    12    66    1
    31    13    14   ar
    32    13    36    1
    33    14    15   ar
    34    14    67    1
    35    15    16   ar
    36    15    17    1
    37    16    68    1
    38    17    18    2
    39    17    19   am
    40    19    20    1
    41    19    69    1
    42    20    50    1
    43    20    21    1
    44    20    22    1
    45    21    70    1
    46    21    71    1
    47    22    51    1
    48    22    23    1
    49    22    35    1
    50    23    24    1
    51    23    72    1
    52    23    73    1
    53    24    25    1
    54    24    74    1
    55    24    99    1
    56    25    26    1
    57    25    75    1
    58    25    76    1
    59    26    31   ar
    60    26    27   ar
    61    27    28   ar
    62    27    77    1
    63    28    29   ar
    64    28    78    1
    65    29    30   ar
    66    29    79    1
    67    30    31   ar
    68    30    32    1
    69    31    80    1
    70    32    33    1
    71    32    34    1
    72    32    81    1
    73    33    82    1
    74    33    83    1
    75    33    84    1
    76    34    85    1
    77    34    86    1
    78    34    87    1
    79    35    88    1
    80    36    40   ar
    81    36    37   ar
    82    37    38   ar
    83    38    39   ar
    84    38    89    1
    85    39    40   ar
    86    39    90    1
    87    41    52    1
    88    41    42    1
    89    41    43    1
    90    42    91    1
    91    42    92    1
    92    42    93    1
    93    43    48   ar
    94    43    44   ar
    95    44    45   ar
    96    44    94    1
    97    45    46   ar
    98    45    95    1
    99    46    47   ar
   100    46    96    1
   101    47    48   ar
   102    47    97    1
   103    48    98    1
