@<TRIPOS>MOLECULE
BACE_5.smi:1
 80 81 0 0 0
SMALL
GASTEIGER
****
Structure written by MMmdl.
@<TRIPOS>ATOM
      1 C          21.1265   39.0044   -9.4377 C.3     1  UNL1       -0.0649
      2 C          20.1606   39.5432  -10.5036 C.3     1  UNL1       -0.0504
      3 C          19.0353   38.5682  -10.8858 C.3     1  UNL1       -0.0089
      4 C          18.0564   38.3259   -9.7765 C.ar    1  UNL1        0.0632
      5 C          16.8629   39.0540   -9.4962 C.ar    1  UNL1       -0.0129
      6 C          16.4112   38.5165   -8.3224 C.ar    1  UNL1        0.0806
      7 N          17.2596   37.4761   -8.0403 N.ar    1  UNL1       -0.2762
      8 N          18.2719   37.3487   -8.9128 N.ar    1  UNL1       -0.1785
      9 C          15.3029   38.8651   -7.3713 C.3     1  UNL1        0.0092
     10 N          14.8980   40.2883   -7.3756 N.4     1  UNL1        0.2332
     11 C          15.9971   41.2843   -7.3303 C.3     1  UNL1       -0.0049
     12 C          15.8195   42.3604   -8.4212 C.3     1  UNL1        0.1129
     13 C          17.0515   43.2776   -8.6455 C.3     1  UNL1        0.0543
     14 C          17.6871   43.8006   -7.3369 C.3     1  UNL1       -0.0293
     15 C          18.8724   44.7818   -7.4912 C.3     1  UNL1       -0.0421
     16 C          19.2582   45.3770   -6.1171 C.3     1  UNL1       -0.0504
     17 C          20.0175   46.7127   -6.1887 C.3     1  UNL1       -0.0528
     18 C          19.0926   47.9100   -6.4731 C.3     1  UNL1       -0.0530
     19 C          19.8301   49.2473   -6.6607 C.3     1  UNL1       -0.0510
     20 C          20.8497   49.2847   -7.8181 C.3     1  UNL1       -0.0294
     21 C          20.2893   48.8523   -9.1828 C.3     1  UNL1        0.0483
     22 O          19.2357   49.7285   -9.5575 O.3     1  UNL1       -0.3706
     23 C          18.5818   49.3680  -10.7710 C.3     1  UNL1        0.1238
     24 C          17.6038   48.1951  -10.5390 C.2     1  UNL1        0.2417
     25 O          16.8589   48.2716   -9.5590 O.2     1  UNL1       -0.2731
     26 N          17.5564   47.1486  -11.4061 N.am    1  UNL1       -0.2914
     27 C          16.5383   46.0828  -11.2283 C.3     1  UNL1        0.0991
     28 C          17.1551   44.8050  -10.6354 C.2     1  UNL1        0.2336
     29 O          18.0518   44.1962  -11.2187 O.2     1  UNL1       -0.2738
     30 N          16.6347   44.4093   -9.4683 N.am    1  UNL1       -0.3083
     31 C          15.8304   45.7585  -12.5569 C.3     1  UNL1       -0.0379
     32 C          18.5556   46.9920  -12.4721 C.3     1  UNL1        0.0040
     33 C          20.0824   44.1094   -8.1708 C.3     1  UNL1       -0.0624
     34 O          14.7111   43.1425   -8.0401 O.3     1  UNL1       -0.3847
     35 H          17.1120   36.8441   -7.2495 H       1  UNL1        0.1887
     36 H          15.5715   41.8898   -9.3733 H       1  UNL1        0.0666
     37 H          17.8007   42.6828   -9.1718 H       1  UNL1        0.0526
     38 H          18.5451   45.6069   -8.1203 H       1  UNL1        0.0299
     39 H          15.7372   46.4154  -10.5645 H       1  UNL1        0.0594
     40 H          21.9311   39.7154   -9.2555 H       1  UNL1        0.0230
     41 H          21.5816   38.0662   -9.7609 H       1  UNL1        0.0230
     42 H          20.6288   38.8320   -8.4817 H       1  UNL1        0.0230
     43 H          20.7397   39.7723  -11.3970 H       1  UNL1        0.0266
     44 H          19.7354   40.4890  -10.1752 H       1  UNL1        0.0266
     45 H          19.4711   37.6281  -11.2271 H       1  UNL1        0.0329
     46 H          18.4876   38.9640  -11.7372 H       1  UNL1        0.0329
     47 H          16.4522   39.8854  -10.0462 H       1  UNL1        0.0656
     48 H          15.6455   38.6490   -6.3636 H       1  UNL1        0.0881
     49 H          14.4323   38.2317   -7.5410 H       1  UNL1        0.0881
     50 H          14.3126   40.4500   -6.5597 H       1  UNL1        0.2018
     51 H          16.9804   40.8213   -7.4146 H       1  UNL1        0.0840
     52 H          15.9908   41.7471   -6.3465 H       1  UNL1        0.0840
     53 H          16.9049   44.2943   -6.7640 H       1  UNL1        0.0286
     54 H          18.0260   42.9573   -6.7384 H       1  UNL1        0.0286
     55 H          18.3641   45.5429   -5.5238 H       1  UNL1        0.0268
     56 H          19.8476   44.6418   -5.5694 H       1  UNL1        0.0268
     57 H          20.8022   46.6447   -6.9389 H       1  UNL1        0.0265
     58 H          20.5274   46.8870   -5.2408 H       1  UNL1        0.0265
     59 H          18.4865   47.7112   -7.3552 H       1  UNL1        0.0265
     60 H          18.3793   48.0207   -5.6557 H       1  UNL1        0.0265
     61 H          20.3298   49.5239   -5.7302 H       1  UNL1        0.0266
     62 H          19.0848   50.0228   -6.8320 H       1  UNL1        0.0266
     63 H          21.2443   50.2972   -7.9075 H       1  UNL1        0.0287
     64 H          21.7046   48.6558   -7.5689 H       1  UNL1        0.0287
     65 H          19.9592   47.8116   -9.1527 H       1  UNL1        0.0560
     66 H          21.0814   48.9076   -9.9311 H       1  UNL1        0.0560
     67 H          19.3227   49.2108  -11.5535 H       1  UNL1        0.0657
     68 H          17.9859   50.2223  -11.0865 H       1  UNL1        0.0657
     69 H          15.8649   44.9447   -9.0957 H       1  UNL1        0.1491
     70 H          14.9457   45.1464  -12.3810 H       1  UNL1        0.0252
     71 H          16.4652   45.1976  -13.2386 H       1  UNL1        0.0252
     72 H          15.5099   46.6695  -13.0649 H       1  UNL1        0.0252
     73 H          18.4690   46.0485  -13.0086 H       1  UNL1        0.0429
     74 H          19.5683   47.0152  -12.0639 H       1  UNL1        0.0429
     75 H          18.4579   47.7894  -13.2104 H       1  UNL1        0.0429
     76 H          20.9180   44.8004   -8.2745 H       1  UNL1        0.0232
     77 H          19.8416   43.7676   -9.1763 H       1  UNL1        0.0232
     78 H          20.4345   43.2470   -7.6020 H       1  UNL1        0.0232
     79 H          14.8587   43.3504   -7.1141 H       1  UNL1        0.2101
     80 H          14.3284   40.4620   -8.1923 H       1  UNL1        0.2018
@<TRIPOS>BOND
     1     1     2    1
     2     1    40    1
     3     1    41    1
     4     1    42    1
     5     2     3    1
     6     2    43    1
     7     2    44    1
     8     3    45    1
     9     3    46    1
    10     3     4    1
    11     4     8   ar
    12     4     5   ar
    13     5     6   ar
    14     5    47    1
    15     6     7   ar
    16     6     9    1
    17     7     8   ar
    18     7    35    1
    19     9    10    1
    20     9    48    1
    21     9    49    1
    22    10    11    1
    23    10    50    1
    24    10    80    1
    25    11    12    1
    26    11    51    1
    27    11    52    1
    28    12    36    1
    29    12    13    1
    30    12    34    1
    31    13    37    1
    32    13    30    1
    33    13    14    1
    34    14    15    1
    35    14    53    1
    36    14    54    1
    37    15    38    1
    38    15    16    1
    39    15    33    1
    40    16    17    1
    41    16    55    1
    42    16    56    1
    43    17    18    1
    44    17    57    1
    45    17    58    1
    46    18    19    1
    47    18    59    1
    48    18    60    1
    49    19    20    1
    50    19    61    1
    51    19    62    1
    52    20    21    1
    53    20    63    1
    54    20    64    1
    55    21    22    1
    56    21    65    1
    57    21    66    1
    58    22    23    1
    59    23    24    1
    60    23    67    1
    61    23    68    1
    62    24    25    2
    63    24    26   am
    64    26    27    1
    65    26    32    1
    66    27    39    1
    67    27    28    1
    68    27    31    1
    69    28    29    2
    70    28    30   am
    71    30    69    1
    72    31    70    1
    73    31    71    1
    74    31    72    1
    75    32    73    1
    76    32    74    1
    77    32    75    1
    78    33    76    1
    79    33    77    1
    80    33    78    1
    81    34    79    1
