@<TRIPOS>MOLECULE
BACE_16.smi:1
 85 88 0 0 0
SMALL
GASTEIGER
****
Structure written by MMmdl.
@<TRIPOS>ATOM
      1 C          21.5614   38.6204   -9.4848 C.3     1  UNL1       -0.0586
      2 C          20.6414   39.1184   -8.3533 C.3     1  UNL1       -0.0215
      3 C          21.2792   38.8186   -6.9875 C.3     1  UNL1       -0.0586
      4 C          19.1884   38.6323   -8.4480 C.ar    1  UNL1       -0.0444
      5 C          18.7243   37.8412   -9.5233 C.ar    1  UNL1       -0.0583
      6 C          17.3594   37.5086   -9.6260 C.ar    1  UNL1       -0.0611
      7 C          16.4304   37.9805   -8.6873 C.ar    1  UNL1       -0.0535
      8 C          16.8764   38.7600   -7.6067 C.ar    1  UNL1       -0.0027
      9 C          18.2523   39.0466   -7.4715 C.ar    1  UNL1       -0.0501
     10 C          15.8666   39.2837   -6.5936 C.3     1  UNL1       -0.0076
     11 N          15.2606   40.5840   -6.9680 N.4     1  UNL1        0.2321
     12 C          16.1985   41.6180   -7.4750 C.3     1  UNL1       -0.0049
     13 C          16.1030   41.7260   -9.0137 C.3     1  UNL1        0.1133
     14 C          17.0943   42.6810   -9.7285 C.3     1  UNL1        0.0583
     15 C          18.5914   42.3040   -9.5393 C.3     1  UNL1       -0.0065
     16 C          19.3963   43.1764   -8.5772 C.ar    1  UNL1       -0.0421
     17 C          19.6220   42.7703   -7.2458 C.ar    1  UNL1       -0.0583
     18 C          20.3385   43.5965   -6.3634 C.ar    1  UNL1       -0.0580
     19 C          20.8588   44.8249   -6.8084 C.ar    1  UNL1       -0.0199
     20 C          20.6816   45.2314   -8.1541 C.ar    1  UNL1        0.1208
     21 C          19.9493   44.3979   -9.0236 C.ar    1  UNL1       -0.0167
     22 O          21.1846   46.3988   -8.6927 O.3     1  UNL1       -0.4920
     23 C          21.8132   47.3476   -7.8372 C.3     1  UNL1        0.0897
     24 C          20.7556   48.1840   -7.1025 C.3     1  UNL1       -0.0156
     25 C          20.0865   49.2119   -8.0285 C.3     1  UNL1       -0.0156
     26 C          18.7487   49.7307   -7.4736 C.3     1  UNL1        0.0897
     27 O          17.7429   48.7201   -7.4963 O.3     1  UNL1       -0.4918
     28 C          17.3123   48.2751   -8.7289 C.ar    1  UNL1        0.1247
     29 C          16.9193   46.9281   -8.8288 C.ar    1  UNL1       -0.0076
     30 C          16.5283   46.3816  -10.0713 C.ar    1  UNL1        0.0436
     31 C          16.4918   47.2103  -11.2138 C.ar    1  UNL1       -0.0076
     32 C          16.8598   48.5737  -11.1283 C.ar    1  UNL1        0.1253
     33 C          17.2643   49.0931   -9.8828 C.ar    1  UNL1        0.0218
     34 O          16.8246   49.4623  -12.1832 O.3     1  UNL1       -0.4844
     35 C          16.6956   48.9711  -13.5121 C.3     1  UNL1        0.1470
     36 C          15.2311   48.9572  -13.9607 C.2     1  UNL1        0.1673
     37 O          14.3237   48.5433  -13.2405 O.2     1  UNL1       -0.2941
     38 C          14.9361   49.4310  -15.3764 C.3     1  UNL1       -0.0026
     39 C          16.1593   44.9349  -10.2005 C.2     1  UNL1        0.2446
     40 O          15.3562   44.5659  -11.0563 O.2     1  UNL1       -0.2702
     41 N          16.8614   44.0920   -9.4266 N.am    1  UNL1       -0.3055
     42 O          14.7792   42.0544   -9.3765 O.3     1  UNL1       -0.3847
     43 H          16.2773   40.7361   -9.4318 H       1  UNL1        0.0666
     44 H          16.9075   42.5308  -10.7924 H       1  UNL1        0.0529
     45 H          21.1891   38.9145  -10.4662 H       1  UNL1        0.0235
     46 H          21.6686   37.5358   -9.4697 H       1  UNL1        0.0235
     47 H          22.5598   39.0433   -9.3868 H       1  UNL1        0.0235
     48 H          20.6015   40.2029   -8.4474 H       1  UNL1        0.0343
     49 H          20.7295   39.2568   -6.1546 H       1  UNL1        0.0235
     50 H          22.2967   39.2060   -6.9424 H       1  UNL1        0.0235
     51 H          21.3345   37.7483   -6.8247 H       1  UNL1        0.0235
     52 H          19.3877   37.4897  -10.2980 H       1  UNL1        0.0620
     53 H          17.0050   36.9025  -10.4393 H       1  UNL1        0.0618
     54 H          15.3819   37.7382   -8.7878 H       1  UNL1        0.0622
     55 H          18.5763   39.6445   -6.6346 H       1  UNL1        0.0625
     56 H          15.0719   38.5531   -6.4483 H       1  UNL1        0.0866
     57 H          16.3650   39.3876   -5.6401 H       1  UNL1        0.0866
     58 H          14.5784   40.4256   -7.6964 H       1  UNL1        0.2018
     59 H          16.0601   42.5484   -6.9356 H       1  UNL1        0.0840
     60 H          17.2154   41.3565   -7.2279 H       1  UNL1        0.0840
     61 H          18.6936   41.2570   -9.2708 H       1  UNL1        0.0332
     62 H          19.0846   42.3785  -10.5097 H       1  UNL1        0.0332
     63 H          19.2611   41.8179   -6.8875 H       1  UNL1        0.0620
     64 H          20.5021   43.2818   -5.3414 H       1  UNL1        0.0619
     65 H          21.4029   45.4237   -6.0944 H       1  UNL1        0.0654
     66 H          19.8012   44.7163  -10.0455 H       1  UNL1        0.0657
     67 H          22.5140   46.8767   -7.1499 H       1  UNL1        0.0696
     68 H          22.4255   48.0057   -8.4540 H       1  UNL1        0.0696
     69 H          20.0073   47.5243   -6.6622 H       1  UNL1        0.0299
     70 H          21.2232   48.7127   -6.2709 H       1  UNL1        0.0299
     71 H          20.7669   50.0513   -8.1730 H       1  UNL1        0.0299
     72 H          19.9344   48.7810   -9.0178 H       1  UNL1        0.0299
     73 H          18.8950   50.0247   -6.4398 H       1  UNL1        0.0696
     74 H          18.4226   50.6368   -7.9830 H       1  UNL1        0.0696
     75 H          16.9535   46.3126   -7.9409 H       1  UNL1        0.0662
     76 H          16.1707   46.7829  -12.1511 H       1  UNL1        0.0662
     77 H          17.5352   50.1353   -9.8383 H       1  UNL1        0.0691
     78 H          17.2494   49.6421  -14.1664 H       1  UNL1        0.0777
     79 H          17.1440   47.9857  -13.6352 H       1  UNL1        0.0777
     80 H          15.8080   49.3005  -16.0221 H       1  UNL1        0.0307
     81 H          14.6629   50.4891  -15.3655 H       1  UNL1        0.0307
     82 H          14.0996   48.8697  -15.7987 H       1  UNL1        0.0307
     83 H          17.5068   44.5079   -8.7699 H       1  UNL1        0.1494
     84 H          14.5987   42.9381   -9.0771 H       1  UNL1        0.2101
     85 H          14.7564   40.9493   -6.1593 H       1  UNL1        0.2018
@<TRIPOS>BOND
     1     1     2    1
     2     1    45    1
     3     1    46    1
     4     1    47    1
     5     2     3    1
     6     2     4    1
     7     2    48    1
     8     3    49    1
     9     3    50    1
    10     3    51    1
    11     4     9   ar
    12     4     5   ar
    13     5     6   ar
    14     5    52    1
    15     6     7   ar
    16     6    53    1
    17     7     8   ar
    18     7    54    1
    19     8     9   ar
    20     8    10    1
    21     9    55    1
    22    10    11    1
    23    10    56    1
    24    10    57    1
    25    11    12    1
    26    11    58    1
    27    11    85    1
    28    12    13    1
    29    12    59    1
    30    12    60    1
    31    13    43    1
    32    13    14    1
    33    13    42    1
    34    14    44    1
    35    14    41    1
    36    14    15    1
    37    15    16    1
    38    15    61    1
    39    15    62    1
    40    16    21   ar
    41    16    17   ar
    42    17    18   ar
    43    17    63    1
    44    18    19   ar
    45    18    64    1
    46    19    20   ar
    47    19    65    1
    48    20    21   ar
    49    20    22    1
    50    21    66    1
    51    22    23    1
    52    23    24    1
    53    23    67    1
    54    23    68    1
    55    24    25    1
    56    24    69    1
    57    24    70    1
    58    25    26    1
    59    25    71    1
    60    25    72    1
    61    26    27    1
    62    26    73    1
    63    26    74    1
    64    27    28    1
    65    28    33   ar
    66    28    29   ar
    67    29    30   ar
    68    29    75    1
    69    30    31   ar
    70    30    39    1
    71    31    32   ar
    72    31    76    1
    73    32    33   ar
    74    32    34    1
    75    33    77    1
    76    34    35    1
    77    35    36    1
    78    35    78    1
    79    35    79    1
    80    36    37    2
    81    36    38    1
    82    38    80    1
    83    38    81    1
    84    38    82    1
    85    39    40    2
    86    39    41   am
    87    41    83    1
    88    42    84    1
