@<TRIPOS>MOLECULE
BACE_19.smi:1
 76 77 0 0 0
SMALL
GASTEIGER
****
Structure written by MMmdl.
@<TRIPOS>ATOM
      1 C          20.9537   40.8680   -3.4291 C.3     1  UNL1       -0.0652
      2 C          20.9253   41.6064   -4.7748 C.3     1  UNL1       -0.0545
      3 C          20.8458   40.6658   -5.9909 C.3     1  UNL1       -0.0376
      4 C          22.1715   39.9219   -6.2770 C.3     1  UNL1        0.0116
      5 N          22.8669   40.2979   -7.5148 N.am    1  UNL1       -0.3151
      6 C          23.1767   41.5401   -7.9281 C.2     1  UNL1        0.2159
      7 O          22.7515   42.5602   -7.3879 O.2     1  UNL1       -0.2755
      8 C          24.1360   41.6576   -9.1236 C.3     1  UNL1        0.0351
      9 C          24.9948   42.9358   -9.0175 C.3     1  UNL1       -0.0540
     10 C          23.4812   41.5257  -10.5284 C.3     1  UNL1       -0.0143
     11 C          22.0484   42.0706  -10.7967 C.3     1  UNL1        0.0742
     12 C          20.8649   41.1966  -10.2871 C.3     1  UNL1        0.0493
     13 C          20.8554   39.7412  -10.8498 C.3     1  UNL1       -0.0295
     14 C          19.7787   38.7562  -10.3241 C.3     1  UNL1       -0.0418
     15 C          19.7538   38.6530   -8.7746 C.3     1  UNL1       -0.0464
     16 C          18.6068   37.8499   -8.1165 C.3     1  UNL1       -0.0274
     17 C          17.2590   38.5391   -8.2144 C.ar    1  UNL1       -0.0470
     18 C          16.1671   37.8920   -8.8326 C.ar    1  UNL1       -0.0586
     19 C          14.9669   38.5917   -9.0469 C.ar    1  UNL1       -0.0612
     20 C          14.8597   39.9369   -8.6516 C.ar    1  UNL1       -0.0570
     21 C          15.9323   40.5770   -8.0002 C.ar    1  UNL1       -0.0263
     22 C          17.1182   39.8637   -7.7548 C.ar    1  UNL1       -0.0538
     23 C          15.8117   42.0222   -7.5618 C.3     1  UNL1        0.0907
     24 S          16.9554   43.1461   -8.4853 S.O2    1  UNL1       -0.0263
     25 O          16.4878   44.5304   -8.3054 O.2     1  UNL1       -0.1740
     26 O          18.3427   42.8071   -8.1313 O.2     1  UNL1       -0.1740
     27 C          16.6772   42.6794  -10.2609 C.3     1  UNL1        0.0769
     28 C          17.7188   43.2409  -11.2678 C.3     1  UNL1        0.0520
     29 C          18.9315   42.3221  -11.4945 C.2     1  UNL1        0.2177
     30 O          19.2598   42.0206  -12.6412 O.2     1  UNL1       -0.2755
     31 N          19.5878   41.9067  -10.4009 N.am    1  UNL1       -0.3097
     32 C          18.1702   44.6903  -11.0125 C.3     1  UNL1       -0.0526
     33 C          18.4222   39.0227  -10.9760 C.3     1  UNL1       -0.0623
     34 O          21.9560   43.3911  -10.2898 O.3     1  UNL1       -0.3899
     35 H          24.8421   40.8306   -9.0296 H       1  UNL1        0.0392
     36 H          21.9417   42.1514  -11.8793 H       1  UNL1        0.0612
     37 H          20.9749   41.1189   -9.2158 H       1  UNL1        0.0524
     38 H          20.0643   37.7698  -10.6882 H       1  UNL1        0.0299
     39 H          17.2077   43.2517  -12.2309 H       1  UNL1        0.0407
     40 H          20.9922   41.5764   -2.5999 H       1  UNL1        0.0230
     41 H          21.8229   40.2162   -3.3438 H       1  UNL1        0.0230
     42 H          20.0608   40.2551   -3.2974 H       1  UNL1        0.0230
     43 H          20.0590   42.2659   -4.7908 H       1  UNL1        0.0263
     44 H          21.7970   42.2573   -4.8594 H       1  UNL1        0.0263
     45 H          20.0505   39.9391   -5.8165 H       1  UNL1        0.0280
     46 H          20.5226   41.2388   -6.8591 H       1  UNL1        0.0280
     47 H          22.8577   40.0421   -5.4414 H       1  UNL1        0.0462
     48 H          21.9718   38.8518   -6.3360 H       1  UNL1        0.0462
     49 H          23.2462   39.5355   -8.0593 H       1  UNL1        0.1487
     50 H          25.3933   43.0688   -8.0118 H       1  UNL1        0.0237
     51 H          24.4194   43.8300   -9.2609 H       1  UNL1        0.0237
     52 H          25.8460   42.8940   -9.6990 H       1  UNL1        0.0237
     53 H          24.1436   42.0333  -11.2296 H       1  UNL1        0.0298
     54 H          23.5481   40.4856  -10.8401 H       1  UNL1        0.0298
     55 H          20.8200   39.7769  -11.9394 H       1  UNL1        0.0286
     56 H          21.8100   39.2750  -10.6141 H       1  UNL1        0.0286
     57 H          20.6995   38.2117   -8.4603 H       1  UNL1        0.0271
     58 H          19.7406   39.6462   -8.3389 H       1  UNL1        0.0271
     59 H          18.5466   36.8484   -8.5404 H       1  UNL1        0.0313
     60 H          18.8228   37.7384   -7.0538 H       1  UNL1        0.0313
     61 H          16.2585   36.8698   -9.1668 H       1  UNL1        0.0620
     62 H          14.1285   38.1072   -9.5239 H       1  UNL1        0.0618
     63 H          13.9407   40.4667   -8.8414 H       1  UNL1        0.0621
     64 H          17.9364   40.3549   -7.2483 H       1  UNL1        0.0623
     65 H          14.7920   42.3827   -7.6764 H       1  UNL1        0.0549
     66 H          16.0592   42.0914   -6.5017 H       1  UNL1        0.0549
     67 H          16.6318   41.5954  -10.3263 H       1  UNL1        0.0507
     68 H          15.6813   43.0354  -10.5169 H       1  UNL1        0.0507
     69 H          19.1982   42.2183   -9.5135 H       1  UNL1        0.1491
     70 H          18.8072   45.0506  -11.8221 H       1  UNL1        0.0237
     71 H          18.7427   44.7824  -10.0896 H       1  UNL1        0.0237
     72 H          17.3159   45.3635  -10.9442 H       1  UNL1        0.0237
     73 H          17.9102   39.8563  -10.5104 H       1  UNL1        0.0232
     74 H          17.7827   38.1509  -10.8647 H       1  UNL1        0.0232
     75 H          18.5175   39.2410  -12.0397 H       1  UNL1        0.0232
     76 H          22.0589   43.3560   -9.3479 H       1  UNL1        0.2099
@<TRIPOS>BOND
     1     1     2    1
     2     1    40    1
     3     1    41    1
     4     1    42    1
     5     2     3    1
     6     2    43    1
     7     2    44    1
     8     3     4    1
     9     3    45    1
    10     3    46    1
    11     4     5    1
    12     4    47    1
    13     4    48    1
    14     5     6   am
    15     5    49    1
    16     6     7    2
    17     6     8    1
    18     8    35    1
    19     8     9    1
    20     8    10    1
    21     9    50    1
    22     9    51    1
    23     9    52    1
    24    10    11    1
    25    10    53    1
    26    10    54    1
    27    11    36    1
    28    11    12    1
    29    11    34    1
    30    12    37    1
    31    12    31    1
    32    12    13    1
    33    13    14    1
    34    13    55    1
    35    13    56    1
    36    14    38    1
    37    14    15    1
    38    14    33    1
    39    15    16    1
    40    15    57    1
    41    15    58    1
    42    16    17    1
    43    16    59    1
    44    16    60    1
    45    17    22   ar
    46    17    18   ar
    47    18    19   ar
    48    18    61    1
    49    19    20   ar
    50    19    62    1
    51    20    21   ar
    52    20    63    1
    53    21    22   ar
    54    21    23    1
    55    22    64    1
    56    23    24    1
    57    23    65    1
    58    23    66    1
    59    24    25    2
    60    24    26    2
    61    24    27    1
    62    27    28    1
    63    27    67    1
    64    27    68    1
    65    28    39    1
    66    28    29    1
    67    28    32    1
    68    29    30    2
    69    29    31   am
    70    31    69    1
    71    32    70    1
    72    32    71    1
    73    32    72    1
    74    33    73    1
    75    33    74    1
    76    33    75    1
    77    34    76    1
