@<TRIPOS>MOLECULE
BACE_9.smi:1
 88 90 0 0 0
SMALL
GASTEIGER
****
Structure written by MMmdl.
@<TRIPOS>ATOM
      1 C          20.5552   42.8028   -5.7661 C.3     1  UNL1       -0.0624
      2 C          21.9051   43.2868   -6.3268 C.3     1  UNL1       -0.0421
      3 C          22.3195   44.6011   -5.6255 C.3     1  UNL1       -0.0504
      4 C          23.7533   45.0557   -5.9366 C.3     1  UNL1       -0.0528
      5 C          24.1802   46.3135   -5.1531 C.3     1  UNL1       -0.0530
      6 C          25.5950   46.7954   -5.5178 C.3     1  UNL1       -0.0530
      7 C          26.7308   45.8782   -5.0125 C.3     1  UNL1       -0.0516
      8 C          28.0807   46.0785   -5.7293 C.3     1  UNL1       -0.0375
      9 C          28.2555   45.2141   -6.9926 C.3     1  UNL1        0.0091
     10 N          27.3403   45.6135   -8.0487 N.pl3   1  UNL1       -0.3438
     11 C          27.0284   44.6760   -9.0380 C.ar    1  UNL1        0.0282
     12 C          27.9993   43.8055   -9.5762 C.ar    1  UNL1       -0.0355
     13 C          27.6522   42.8952  -10.5964 C.ar    1  UNL1       -0.0195
     14 C          26.3167   42.8324  -11.0473 C.ar    1  UNL1       -0.0442
     15 C          25.3288   43.6641  -10.4798 C.ar    1  UNL1        0.0388
     16 C          25.7012   44.6112   -9.5037 C.ar    1  UNL1       -0.0287
     17 C          23.9049   43.5722  -10.9514 C.2     1  UNL1        0.2444
     18 O          23.6404   43.7502  -12.1367 O.2     1  UNL1       -0.2702
     19 N          22.9327   43.2971  -10.0577 N.am    1  UNL1       -0.3058
     20 C          23.0482   42.8490   -8.6623 C.3     1  UNL1        0.0545
     21 C          21.8357   43.4133   -7.8738 C.3     1  UNL1       -0.0293
     22 C          23.1626   41.2972   -8.5923 C.3     1  UNL1        0.1130
     23 C          22.1089   40.5106   -9.4077 C.3     1  UNL1       -0.0050
     24 N          22.0213   39.0969   -8.9771 N.4     1  UNL1        0.2321
     25 C          21.1355   38.8336   -7.8147 C.3     1  UNL1       -0.0076
     26 C          19.6741   38.6814   -8.2203 C.ar    1  UNL1       -0.0027
     27 C          19.3387   37.8433   -9.3015 C.ar    1  UNL1       -0.0535
     28 C          17.9943   37.6223   -9.6395 C.ar    1  UNL1       -0.0611
     29 C          16.9681   38.2590   -8.9245 C.ar    1  UNL1       -0.0583
     30 C          17.2780   39.1137   -7.8470 C.ar    1  UNL1       -0.0444
     31 C          18.6372   39.3172   -7.4980 C.ar    1  UNL1       -0.0501
     32 C          16.1765   39.8139   -7.0527 C.3     1  UNL1       -0.0215
     33 C          14.7841   39.1641   -7.1439 C.3     1  UNL1       -0.0586
     34 C          16.0798   41.2926   -7.4326 C.3     1  UNL1       -0.0586
     35 O          24.4587   40.9500   -9.0384 O.3     1  UNL1       -0.3847
     36 C          28.6794   41.9518  -11.1972 C.3     1  UNL1        0.0724
     37 O          29.9916   42.0799  -10.6579 O.3     1  UNL1       -0.3784
     38 C          30.7855   43.0261  -11.3510 C.3     1  UNL1        0.0369
     39 H          22.6396   42.5293   -6.0524 H       1  UNL1        0.0299
     40 H          23.9378   43.2704   -8.2004 H       1  UNL1        0.0526
     41 H          23.1151   40.9897   -7.5478 H       1  UNL1        0.0666
     42 H          19.7552   43.5129   -5.9832 H       1  UNL1        0.0232
     43 H          20.5925   42.6716   -4.6834 H       1  UNL1        0.0232
     44 H          20.2729   41.8412   -6.1901 H       1  UNL1        0.0232
     45 H          21.6180   45.3951   -5.8838 H       1  UNL1        0.0268
     46 H          22.2346   44.4649   -4.5456 H       1  UNL1        0.0268
     47 H          24.4321   44.2303   -5.7222 H       1  UNL1        0.0265
     48 H          23.8442   45.2641   -7.0014 H       1  UNL1        0.0265
     49 H          23.4747   47.1142   -5.3753 H       1  UNL1        0.0265
     50 H          24.1103   46.1501   -4.0762 H       1  UNL1        0.0265
     51 H          25.6402   46.9203   -6.5967 H       1  UNL1        0.0265
     52 H          25.7506   47.7953   -5.1094 H       1  UNL1        0.0265
     53 H          26.8638   46.0722   -3.9480 H       1  UNL1        0.0266
     54 H          26.4574   44.8270   -5.0798 H       1  UNL1        0.0266
     55 H          28.2427   47.1329   -5.9542 H       1  UNL1        0.0280
     56 H          28.8751   45.8031   -5.0365 H       1  UNL1        0.0280
     57 H          29.2775   45.3130   -7.3615 H       1  UNL1        0.0461
     58 H          28.1036   44.1594   -6.7477 H       1  UNL1        0.0461
     59 H          26.5825   46.2089   -7.7504 H       1  UNL1        0.1461
     60 H          29.0150   43.8497   -9.2159 H       1  UNL1        0.0639
     61 H          26.0438   42.1204  -11.8140 H       1  UNL1        0.0628
     62 H          24.9547   45.2795   -9.1001 H       1  UNL1        0.0643
     63 H          21.9992   43.3112  -10.4382 H       1  UNL1        0.1494
     64 H          20.9267   42.9375   -8.2406 H       1  UNL1        0.0286
     65 H          21.7029   44.4652   -8.1264 H       1  UNL1        0.0286
     66 H          21.1198   40.9621   -9.3263 H       1  UNL1        0.0840
     67 H          22.3668   40.5399  -10.4660 H       1  UNL1        0.0840
     68 H          21.6617   38.5564   -9.7486 H       1  UNL1        0.2018
     69 H          21.4447   37.8922   -7.3552 H       1  UNL1        0.0866
     70 H          21.2496   39.6045   -7.0519 H       1  UNL1        0.0866
     71 H          20.1121   37.3506   -9.8657 H       1  UNL1        0.0622
     72 H          17.7408   36.9507  -10.4399 H       1  UNL1        0.0618
     73 H          15.9446   38.0690   -9.2110 H       1  UNL1        0.0620
     74 H          18.8741   39.9520   -6.6570 H       1  UNL1        0.0625
     75 H          16.4610   39.7491   -6.0044 H       1  UNL1        0.0343
     76 H          14.8203   38.1202   -6.8480 H       1  UNL1        0.0235
     77 H          14.3524   39.2287   -8.1423 H       1  UNL1        0.0235
     78 H          14.0880   39.6566   -6.4626 H       1  UNL1        0.0235
     79 H          17.0119   41.8225   -7.2378 H       1  UNL1        0.0235
     80 H          15.2984   41.7633   -6.8414 H       1  UNL1        0.0235
     81 H          15.8261   41.4202   -8.4859 H       1  UNL1        0.0235
     82 H          24.5449   40.0143   -9.1691 H       1  UNL1        0.2101
     83 H          28.3277   40.9509  -10.9750 H       1  UNL1        0.0610
     84 H          28.6815   42.0384  -12.2846 H       1  UNL1        0.0610
     85 H          31.7538   43.1215  -10.8635 H       1  UNL1        0.0524
     86 H          30.3189   44.0124  -11.3684 H       1  UNL1        0.0524
     87 H          30.9601   42.7060  -12.3784 H       1  UNL1        0.0524
     88 H          22.9534   38.7612   -8.7798 H       1  UNL1        0.2018
@<TRIPOS>BOND
     1     1     2    1
     2     1    42    1
     3     1    43    1
     4     1    44    1
     5     2    39    1
     6     2    21    1
     7     2     3    1
     8     3     4    1
     9     3    45    1
    10     3    46    1
    11     4     5    1
    12     4    47    1
    13     4    48    1
    14     5     6    1
    15     5    49    1
    16     5    50    1
    17     6     7    1
    18     6    51    1
    19     6    52    1
    20     7     8    1
    21     7    53    1
    22     7    54    1
    23     8     9    1
    24     8    55    1
    25     8    56    1
    26     9    10    1
    27     9    57    1
    28     9    58    1
    29    10    11    1
    30    10    59    1
    31    11    16   ar
    32    11    12   ar
    33    12    13   ar
    34    12    60    1
    35    13    14   ar
    36    13    36    1
    37    14    15   ar
    38    14    61    1
    39    15    16   ar
    40    15    17    1
    41    16    62    1
    42    17    18    2
    43    17    19   am
    44    19    20    1
    45    19    63    1
    46    20    40    1
    47    20    21    1
    48    20    22    1
    49    21    64    1
    50    21    65    1
    51    22    41    1
    52    22    23    1
    53    22    35    1
    54    23    24    1
    55    23    66    1
    56    23    67    1
    57    24    25    1
    58    24    68    1
    59    24    88    1
    60    25    26    1
    61    25    69    1
    62    25    70    1
    63    26    31   ar
    64    26    27   ar
    65    27    28   ar
    66    27    71    1
    67    28    29   ar
    68    28    72    1
    69    29    30   ar
    70    29    73    1
    71    30    31   ar
    72    30    32    1
    73    31    74    1
    74    32    33    1
    75    32    34    1
    76    32    75    1
    77    33    76    1
    78    33    77    1
    79    33    78    1
    80    34    79    1
    81    34    80    1
    82    34    81    1
    83    35    82    1
    84    36    37    1
    85    36    83    1
    86    36    84    1
    87    37    38    1
    88    38    85    1
    89    38    86    1
    90    38    87    1
