@<TRIPOS>MOLECULE
BACE_14.smi:1
 86 90 0 0 0
SMALL
GASTEIGER
****
Structure written by MMmdl.
@<TRIPOS>ATOM
      1 C          21.6479   39.2445   -6.4468 C.3     1  UNL1       -0.0586
      2 C          20.9120   40.1145   -7.4702 C.3     1  UNL1       -0.0215
      3 C          21.8735   40.6539   -8.5432 C.3     1  UNL1       -0.0586
      4 C          19.7224   39.3742   -8.0722 C.ar    1  UNL1       -0.0443
      5 C          19.9135   38.4005   -9.0734 C.ar    1  UNL1       -0.0583
      6 C          18.8047   37.7495   -9.6394 C.ar    1  UNL1       -0.0610
      7 C          17.5032   38.0814   -9.2252 C.ar    1  UNL1       -0.0529
      8 C          17.2758   39.0616   -8.2345 C.ar    1  UNL1        0.0034
      9 C          18.4113   39.6770   -7.6427 C.ar    1  UNL1       -0.0495
     10 C          15.8470   39.4459   -7.8680 C.3     1  UNL1        0.0145
     11 C          14.8636   38.3632   -7.5270 C.3     1  UNL1        0.0032
     12 C          14.6505   39.1856   -8.7718 C.3     1  UNL1        0.0032
     13 N          15.6769   40.6424   -7.0020 N.4     1  UNL1        0.2365
     14 C          15.8210   41.9987   -7.6079 C.3     1  UNL1       -0.0044
     15 C          16.4699   42.1166   -9.0216 C.3     1  UNL1        0.1133
     16 C          17.2594   43.4283   -9.2556 C.3     1  UNL1        0.0583
     17 C          17.9221   43.4402  -10.6616 C.3     1  UNL1       -0.0065
     18 C          19.0570   44.4369  -10.8428 C.ar    1  UNL1       -0.0421
     19 C          18.7814   45.7516  -11.2655 C.ar    1  UNL1       -0.0583
     20 C          19.8329   46.6728  -11.4186 C.ar    1  UNL1       -0.0580
     21 C          21.1603   46.2889  -11.1442 C.ar    1  UNL1       -0.0199
     22 C          21.4518   44.9671  -10.7183 C.ar    1  UNL1        0.1208
     23 C          20.3903   44.0520  -10.5832 C.ar    1  UNL1       -0.0167
     24 O          22.7160   44.4996  -10.4180 O.3     1  UNL1       -0.4920
     25 C          23.8312   45.3820  -10.4867 C.3     1  UNL1        0.0896
     26 C          23.9103   46.2872   -9.2417 C.3     1  UNL1       -0.0172
     27 C          24.2996   45.5142   -7.9675 C.3     1  UNL1       -0.0344
     28 C          24.2058   46.3630   -6.6836 C.3     1  UNL1        0.0092
     29 N          22.8376   46.7685   -6.3680 N.pl3   1  UNL1       -0.3438
     30 C          21.9097   45.7411   -6.1435 C.ar    1  UNL1        0.0285
     31 C          20.6807   45.7762   -6.8293 C.ar    1  UNL1       -0.0287
     32 C          19.7669   44.7089   -6.7092 C.ar    1  UNL1        0.0391
     33 C          20.0622   43.6351   -5.8453 C.ar    1  UNL1       -0.0390
     34 C          21.2772   43.6025   -5.1213 C.ar    1  UNL1        0.0196
     35 C          22.2025   44.6577   -5.2878 C.ar    1  UNL1       -0.0303
     36 C          21.5740   42.4551   -4.2170 C.2     1  UNL1        0.1602
     37 O          20.8599   41.4577   -4.1240 O.2     1  UNL1       -0.2924
     38 C          22.8308   42.5301   -3.3558 C.3     1  UNL1       -0.0014
     39 C          18.5073   44.7253   -7.5180 C.2     1  UNL1        0.2445
     40 O          17.8135   45.7399   -7.5881 O.2     1  UNL1       -0.2702
     41 N          18.2765   43.5996   -8.2116 N.am    1  UNL1       -0.3055
     42 O          15.4347   42.0378   -9.9880 O.3     1  UNL1       -0.3847
     43 H          17.1689   41.3158   -9.2283 H       1  UNL1        0.0666
     44 H          16.5628   44.2673   -9.2035 H       1  UNL1        0.0529
     45 H          22.4788   39.7904   -5.9987 H       1  UNL1        0.0235
     46 H          22.0438   38.3379   -6.9067 H       1  UNL1        0.0235
     47 H          20.9744   38.9521   -5.6430 H       1  UNL1        0.0235
     48 H          20.5220   40.9830   -6.9404 H       1  UNL1        0.0343
     49 H          22.6332   41.2933   -8.0915 H       1  UNL1        0.0235
     50 H          21.3425   41.2469   -9.2869 H       1  UNL1        0.0235
     51 H          22.3924   39.8480   -9.0648 H       1  UNL1        0.0235
     52 H          20.9066   38.1382   -9.4099 H       1  UNL1        0.0620
     53 H          18.9408   37.0010  -10.4075 H       1  UNL1        0.0618
     54 H          16.6813   37.5631   -9.6909 H       1  UNL1        0.0622
     55 H          18.2922   40.4210   -6.8704 H       1  UNL1        0.0625
     56 H          15.2550   37.3552   -7.6401 H       1  UNL1        0.0329
     57 H          14.1740   38.5212   -6.6979 H       1  UNL1        0.0329
     58 H          13.8015   39.8610   -8.7442 H       1  UNL1        0.0329
     59 H          14.8013   38.6882   -9.7251 H       1  UNL1        0.0329
     60 H          16.3669   40.5712   -6.2647 H       1  UNL1        0.2023
     61 H          16.4156   42.5461   -6.8751 H       1  UNL1        0.0840
     62 H          14.8424   42.4791   -7.6324 H       1  UNL1        0.0840
     63 H          18.3244   42.4541  -10.8874 H       1  UNL1        0.0332
     64 H          17.1659   43.6259  -11.4234 H       1  UNL1        0.0332
     65 H          17.7643   46.0591  -11.4641 H       1  UNL1        0.0620
     66 H          19.6218   47.6801  -11.7416 H       1  UNL1        0.0619
     67 H          21.9339   47.0306  -11.2677 H       1  UNL1        0.0654
     68 H          20.6041   43.0457  -10.2545 H       1  UNL1        0.0657
     69 H          24.7339   44.7734  -10.5447 H       1  UNL1        0.0696
     70 H          23.8195   45.9641  -11.4075 H       1  UNL1        0.0696
     71 H          24.6477   47.0730   -9.4151 H       1  UNL1        0.0298
     72 H          22.9582   46.7940   -9.0959 H       1  UNL1        0.0298
     73 H          23.6839   44.6198   -7.8750 H       1  UNL1        0.0281
     74 H          25.3234   45.1530   -8.0774 H       1  UNL1        0.0281
     75 H          24.6379   45.8195   -5.8447 H       1  UNL1        0.0461
     76 H          24.8111   47.2627   -6.7956 H       1  UNL1        0.0461
     77 H          22.5024   47.5210   -6.9516 H       1  UNL1        0.1461
     78 H          20.4580   46.5943   -7.4989 H       1  UNL1        0.0643
     79 H          19.3519   42.8261   -5.7392 H       1  UNL1        0.0632
     80 H          23.1449   44.6488   -4.7608 H       1  UNL1        0.0643
     81 H          22.8351   43.4432   -2.7592 H       1  UNL1        0.0309
     82 H          23.7240   42.5073   -3.9796 H       1  UNL1        0.0309
     83 H          22.8589   41.6788   -2.6775 H       1  UNL1        0.0309
     84 H          18.9425   42.8483   -8.1019 H       1  UNL1        0.1494
     85 H          15.0048   41.1975   -9.9109 H       1  UNL1        0.2101
     86 H          14.7744   40.6023   -6.5407 H       1  UNL1        0.2023
@<TRIPOS>BOND
     1     1     2    1
     2     1    45    1
     3     1    46    1
     4     1    47    1
     5     2     3    1
     6     2     4    1
     7     2    48    1
     8     3    49    1
     9     3    50    1
    10     3    51    1
    11     4     9   ar
    12     4     5   ar
    13     5     6   ar
    14     5    52    1
    15     6     7   ar
    16     6    53    1
    17     7     8   ar
    18     7    54    1
    19     8     9   ar
    20     8    10    1
    21     9    55    1
    22    10    12    1
    23    10    11    1
    24    10    13    1
    25    11    12    1
    26    11    56    1
    27    11    57    1
    28    12    58    1
    29    12    59    1
    30    13    14    1
    31    13    60    1
    32    13    86    1
    33    14    15    1
    34    14    61    1
    35    14    62    1
    36    15    43    1
    37    15    16    1
    38    15    42    1
    39    16    44    1
    40    16    41    1
    41    16    17    1
    42    17    18    1
    43    17    63    1
    44    17    64    1
    45    18    23   ar
    46    18    19   ar
    47    19    20   ar
    48    19    65    1
    49    20    21   ar
    50    20    66    1
    51    21    22   ar
    52    21    67    1
    53    22    23   ar
    54    22    24    1
    55    23    68    1
    56    24    25    1
    57    25    26    1
    58    25    69    1
    59    25    70    1
    60    26    27    1
    61    26    71    1
    62    26    72    1
    63    27    28    1
    64    27    73    1
    65    27    74    1
    66    28    29    1
    67    28    75    1
    68    28    76    1
    69    29    30    1
    70    29    77    1
    71    30    35   ar
    72    30    31   ar
    73    31    32   ar
    74    31    78    1
    75    32    33   ar
    76    32    39    1
    77    33    34   ar
    78    33    79    1
    79    34    35   ar
    80    34    36    1
    81    35    80    1
    82    36    37    2
    83    36    38    1
    84    38    81    1
    85    38    82    1
    86    38    83    1
    87    39    40    2
    88    39    41   am
    89    41    84    1
    90    42    85    1
