@<TRIPOS>MOLECULE
BACE_14.smi:1
 85 89 0 0 0
SMALL
GASTEIGER
****
Structure written by MMmdl.
@<TRIPOS>ATOM
      1 C          21.8927   41.7624  -10.6877 C.3     1  UNL1       -0.0586
      2 C          20.6669   40.9114  -11.0674 C.3     1  UNL1       -0.0215
      3 C          20.9669   39.9799  -12.2495 C.3     1  UNL1       -0.0586
      4 C          20.0826   40.1261   -9.8981 C.ar    1  UNL1       -0.0445
      5 C          20.9116   39.5205   -8.9271 C.ar    1  UNL1       -0.0583
      6 C          20.3418   38.7953   -7.8635 C.ar    1  UNL1       -0.0612
      7 C          18.9449   38.6535   -7.7748 C.ar    1  UNL1       -0.0568
      8 C          18.1029   39.2369   -8.7457 C.ar    1  UNL1       -0.0271
      9 C          18.6834   39.9741   -9.8007 C.ar    1  UNL1       -0.0534
     10 C          16.6096   39.0776   -8.6392 C.3     1  UNL1        0.0447
     11 C          15.7324   38.8921   -9.8580 C.3     1  UNL1       -0.0285
     12 C          16.0405   37.7193   -8.9555 C.3     1  UNL1       -0.0285
     13 N          16.0226   39.7939   -7.5015 N.3     1  UNL1       -0.3042
     14 C          16.4242   41.1914   -7.2948 C.3     1  UNL1        0.0245
     15 C          15.9285   42.1479   -8.4052 C.3     1  UNL1        0.0862
     16 C          16.7429   43.4618   -8.6450 C.3     1  UNL1        0.0545
     17 C          17.0281   43.6391  -10.1578 C.3     1  UNL1       -0.0066
     18 C          17.8674   44.8514  -10.5287 C.ar    1  UNL1       -0.0421
     19 C          17.2678   46.1213  -10.6484 C.ar    1  UNL1       -0.0583
     20 C          18.0528   47.2362  -11.0000 C.ar    1  UNL1       -0.0580
     21 C          19.4362   47.0898  -11.2259 C.ar    1  UNL1       -0.0199
     22 C          20.0519   45.8209  -11.0961 C.ar    1  UNL1        0.1208
     23 C          19.2523   44.7107  -10.7572 C.ar    1  UNL1       -0.0167
     24 O          21.3975   45.5760  -11.2809 O.3     1  UNL1       -0.4920
     25 C          22.3112   46.6649  -11.3982 C.3     1  UNL1        0.0896
     26 C          22.5395   47.3904  -10.0566 C.3     1  UNL1       -0.0172
     27 C          23.0145   46.4523   -8.9370 C.3     1  UNL1       -0.0344
     28 C          23.0256   47.1452   -7.5577 C.3     1  UNL1        0.0092
     29 N          23.1197   46.2022   -6.4477 N.pl3   1  UNL1       -0.3438
     30 C          22.0868   45.2771   -6.2213 C.ar    1  UNL1        0.0285
     31 C          20.7867   45.4492   -6.7509 C.ar    1  UNL1       -0.0287
     32 C          19.8113   44.4459   -6.6031 C.ar    1  UNL1        0.0391
     33 C          20.1164   43.2918   -5.8538 C.ar    1  UNL1       -0.0390
     34 C          21.3958   43.1165   -5.2767 C.ar    1  UNL1        0.0196
     35 C          22.3770   44.1160   -5.4747 C.ar    1  UNL1       -0.0303
     36 C          21.7453   41.8967   -4.4948 C.2     1  UNL1        0.1602
     37 O          22.8679   41.6862   -4.0389 O.2     1  UNL1       -0.2924
     38 C          20.6531   40.8601   -4.2462 C.3     1  UNL1       -0.0014
     39 C          18.4656   44.6205   -7.2394 C.2     1  UNL1        0.2445
     40 O          17.9103   45.7192   -7.2402 O.2     1  UNL1       -0.2702
     41 N          17.9820   43.5328   -7.8628 N.am    1  UNL1       -0.3057
     42 O          14.6195   42.5262   -8.0400 O.3     1  UNL1       -0.3887
     43 H          15.8533   41.6053   -9.3478 H       1  UNL1        0.0624
     44 H          16.1240   44.3088   -8.3393 H       1  UNL1        0.0527
     45 H          22.2004   42.3928  -11.5235 H       1  UNL1        0.0235
     46 H          22.7519   41.1461  -10.4222 H       1  UNL1        0.0235
     47 H          21.6729   42.4201   -9.8446 H       1  UNL1        0.0235
     48 H          19.8983   41.6101  -11.3972 H       1  UNL1        0.0343
     49 H          21.4031   40.5252  -13.0888 H       1  UNL1        0.0235
     50 H          20.0570   39.4934  -12.6006 H       1  UNL1        0.0235
     51 H          21.6601   39.1931  -11.9593 H       1  UNL1        0.0235
     52 H          21.9863   39.6016   -8.9852 H       1  UNL1        0.0620
     53 H          20.9782   38.3367   -7.1198 H       1  UNL1        0.0618
     54 H          18.5142   38.0926   -6.9560 H       1  UNL1        0.0621
     55 H          18.0463   40.4162  -10.5520 H       1  UNL1        0.0624
     56 H          14.7139   39.2743   -9.8198 H       1  UNL1        0.0287
     57 H          16.2065   38.9269  -10.8357 H       1  UNL1        0.0287
     58 H          16.7157   36.9582   -9.3428 H       1  UNL1        0.0287
     59 H          15.2606   37.3562   -8.2942 H       1  UNL1        0.0287
     60 H          16.0611   39.2362   -6.6494 H       1  UNL1        0.1229
     61 H          17.5092   41.2194   -7.2397 H       1  UNL1        0.0450
     62 H          16.0517   41.5418   -6.3327 H       1  UNL1        0.0450
     63 H          17.5331   42.7506  -10.5408 H       1  UNL1        0.0332
     64 H          16.0835   43.6971  -10.6990 H       1  UNL1        0.0332
     65 H          16.2100   46.2444  -10.4697 H       1  UNL1        0.0620
     66 H          17.5950   48.2095  -11.0925 H       1  UNL1        0.0619
     67 H          20.0021   47.9670  -11.4950 H       1  UNL1        0.0654
     68 H          19.7158   43.7424  -10.6550 H       1  UNL1        0.0657
     69 H          23.2594   46.2479  -11.7392 H       1  UNL1        0.0696
     70 H          21.9994   47.3583  -12.1800 H       1  UNL1        0.0696
     71 H          23.2715   48.1863  -10.1977 H       1  UNL1        0.0298
     72 H          21.6173   47.8811   -9.7453 H       1  UNL1        0.0298
     73 H          22.3566   45.5835   -8.9173 H       1  UNL1        0.0281
     74 H          24.0080   46.0651   -9.1658 H       1  UNL1        0.0281
     75 H          23.8719   47.8315   -7.5003 H       1  UNL1        0.0461
     76 H          22.1384   47.7649   -7.4238 H       1  UNL1        0.0461
     77 H          24.0477   45.9517   -6.1336 H       1  UNL1        0.1461
     78 H          20.5346   46.3282   -7.3257 H       1  UNL1        0.0643
     79 H          19.3465   42.5503   -5.7338 H       1  UNL1        0.0632
     80 H          23.3688   43.9850   -5.0643 H       1  UNL1        0.0643
     81 H          20.2290   40.5085   -5.1869 H       1  UNL1        0.0309
     82 H          19.8596   41.2907   -3.6362 H       1  UNL1        0.0309
     83 H          21.0625   40.0012   -3.7164 H       1  UNL1        0.0309
     84 H          18.5338   42.6887   -7.8082 H       1  UNL1        0.1494
     85 H          14.5927   42.5502   -7.0868 H       1  UNL1        0.2099
@<TRIPOS>BOND
     1     1     2    1
     2     1    45    1
     3     1    46    1
     4     1    47    1
     5     2     3    1
     6     2     4    1
     7     2    48    1
     8     3    49    1
     9     3    50    1
    10     3    51    1
    11     4     9   ar
    12     4     5   ar
    13     5     6   ar
    14     5    52    1
    15     6     7   ar
    16     6    53    1
    17     7     8   ar
    18     7    54    1
    19     8     9   ar
    20     8    10    1
    21     9    55    1
    22    10    12    1
    23    10    11    1
    24    10    13    1
    25    11    12    1
    26    11    56    1
    27    11    57    1
    28    12    58    1
    29    12    59    1
    30    13    14    1
    31    13    60    1
    32    14    15    1
    33    14    61    1
    34    14    62    1
    35    15    43    1
    36    15    16    1
    37    15    42    1
    38    16    44    1
    39    16    41    1
    40    16    17    1
    41    17    18    1
    42    17    63    1
    43    17    64    1
    44    18    23   ar
    45    18    19   ar
    46    19    20   ar
    47    19    65    1
    48    20    21   ar
    49    20    66    1
    50    21    22   ar
    51    21    67    1
    52    22    23   ar
    53    22    24    1
    54    23    68    1
    55    24    25    1
    56    25    26    1
    57    25    69    1
    58    25    70    1
    59    26    27    1
    60    26    71    1
    61    26    72    1
    62    27    28    1
    63    27    73    1
    64    27    74    1
    65    28    29    1
    66    28    75    1
    67    28    76    1
    68    29    30    1
    69    29    77    1
    70    30    35   ar
    71    30    31   ar
    72    31    32   ar
    73    31    78    1
    74    32    33   ar
    75    32    39    1
    76    33    34   ar
    77    33    79    1
    78    34    35   ar
    79    34    36    1
    80    35    80    1
    81    36    37    2
    82    36    38    1
    83    38    81    1
    84    38    82    1
    85    38    83    1
    86    39    40    2
    87    39    41   am
    88    41    84    1
    89    42    85    1
