@<TRIPOS>MOLECULE
BACE_11.smi:1
 81 83 0 0 0
SMALL
GASTEIGER
****
Structure written by MMmdl.
@<TRIPOS>ATOM
      1 C          21.9784   41.3689   -4.8139 C.3     1  UNL1       -0.0379
      2 C          21.7852   41.2946   -6.3416 C.3     1  UNL1        0.0991
      3 C          20.9988   40.0555   -6.8202 C.2     1  UNL1        0.2336
      4 O          21.3676   38.9501   -6.4396 O.2     1  UNL1       -0.2738
      5 N          19.9840   40.1999   -7.6928 N.am    1  UNL1       -0.3080
      6 C          19.2567   39.1189   -8.3845 C.3     1  UNL1        0.0580
      7 C          20.1524   38.4358   -9.4484 C.3     1  UNL1       -0.0065
      8 C          20.7333   39.4660  -10.4021 C.ar    1  UNL1       -0.0421
      9 C          20.0154   39.8436  -11.5539 C.ar    1  UNL1       -0.0583
     10 C          20.4868   40.8939  -12.3603 C.ar    1  UNL1       -0.0580
     11 C          21.6562   41.5905  -11.9981 C.ar    1  UNL1       -0.0199
     12 C          22.3843   41.2219  -10.8397 C.ar    1  UNL1        0.1208
     13 C          21.9351   40.1284  -10.0807 C.ar    1  UNL1       -0.0167
     14 O          23.5081   41.8737  -10.3788 O.3     1  UNL1       -0.4920
     15 C          24.0349   42.9500  -11.1421 C.3     1  UNL1        0.0896
     16 C          25.1628   43.6509  -10.3673 C.3     1  UNL1       -0.0186
     17 C          24.6765   44.7157   -9.3608 C.3     1  UNL1       -0.0495
     18 C          24.7541   44.3187   -7.8721 C.3     1  UNL1       -0.0447
     19 C          23.8098   43.1905   -7.4017 C.3     1  UNL1        0.0242
     20 C          22.3043   43.5248   -7.3890 C.2     1  UNL1        0.2159
     21 O          21.9394   44.6253   -7.8079 O.2     1  UNL1       -0.2756
     22 N          21.4143   42.6220   -6.8935 N.am    1  UNL1       -0.2932
     23 C          20.0154   43.0465   -6.7385 C.3     1  UNL1        0.0039
     24 C          18.5519   38.1369   -7.4052 C.3     1  UNL1        0.1132
     25 C          17.7623   38.8322   -6.2956 C.3     1  UNL1       -0.0049
     26 N          16.8124   39.8052   -6.8400 N.4     1  UNL1        0.2321
     27 C          15.4535   39.3615   -7.1607 C.3     1  UNL1       -0.0076
     28 C          15.0852   40.1435   -8.3976 C.ar    1  UNL1       -0.0027
     29 C          15.0249   39.5052   -9.6503 C.ar    1  UNL1       -0.0535
     30 C          14.7059   40.2507  -10.7985 C.ar    1  UNL1       -0.0611
     31 C          14.4374   41.6312  -10.6974 C.ar    1  UNL1       -0.0583
     32 C          14.4997   42.2790   -9.4458 C.ar    1  UNL1       -0.0444
     33 C          14.8600   41.5327   -8.3033 C.ar    1  UNL1       -0.0501
     34 C          14.1024   43.7467   -9.3208 C.3     1  UNL1       -0.0215
     35 C          15.2170   44.6164   -8.7231 C.3     1  UNL1       -0.0586
     36 C          12.7942   43.9044   -8.5288 C.3     1  UNL1       -0.0586
     37 O          17.6603   37.2554   -8.0624 O.3     1  UNL1       -0.3847
     38 H          22.7684   41.0269   -6.7226 H       1  UNL1        0.0594
     39 H          18.4713   39.6269   -8.9462 H       1  UNL1        0.0529
     40 H          19.3157   37.5471   -6.9194 H       1  UNL1        0.0666
     41 H          22.3361   40.4221   -4.4080 H       1  UNL1        0.0252
     42 H          21.0433   41.6098   -4.3076 H       1  UNL1        0.0252
     43 H          22.7071   42.1312   -4.5407 H       1  UNL1        0.0252
     44 H          19.7814   41.1411   -7.9921 H       1  UNL1        0.1491
     45 H          20.9618   37.8782   -8.9764 H       1  UNL1        0.0332
     46 H          19.5718   37.7103  -10.0188 H       1  UNL1        0.0332
     47 H          19.0887   39.3473  -11.8035 H       1  UNL1        0.0620
     48 H          19.9355   41.1817  -13.2409 H       1  UNL1        0.0619
     49 H          22.0001   42.3901  -12.6325 H       1  UNL1        0.0654
     50 H          22.4938   39.8353   -9.2043 H       1  UNL1        0.0657
     51 H          24.4365   42.5502  -12.0730 H       1  UNL1        0.0696
     52 H          23.2651   43.6776  -11.4014 H       1  UNL1        0.0696
     53 H          25.8188   42.9198   -9.8913 H       1  UNL1        0.0298
     54 H          25.7838   44.1603  -11.1055 H       1  UNL1        0.0298
     55 H          25.3151   45.5914   -9.4829 H       1  UNL1        0.0266
     56 H          23.6795   45.0665   -9.6226 H       1  UNL1        0.0266
     57 H          25.7802   44.0276   -7.6443 H       1  UNL1        0.0270
     58 H          24.5661   45.2058   -7.2658 H       1  UNL1        0.0270
     59 H          23.9934   42.2969   -7.9960 H       1  UNL1        0.0358
     60 H          24.0935   42.9501   -6.3768 H       1  UNL1        0.0358
     61 H          19.5044   43.0508   -7.7012 H       1  UNL1        0.0429
     62 H          19.9447   44.0491   -6.3138 H       1  UNL1        0.0429
     63 H          19.4719   42.3956   -6.0575 H       1  UNL1        0.0429
     64 H          17.2599   38.1497   -5.6373 H       1  UNL1        0.0840
     65 H          18.4653   39.3499   -5.6456 H       1  UNL1        0.0840
     66 H          16.7426   40.5532   -6.1559 H       1  UNL1        0.2018
     67 H          15.3927   38.2883   -7.3516 H       1  UNL1        0.0866
     68 H          14.7786   39.5863   -6.3326 H       1  UNL1        0.0866
     69 H          15.2109   38.4437   -9.7357 H       1  UNL1        0.0622
     70 H          14.6282   39.7516  -11.7500 H       1  UNL1        0.0618
     71 H          14.1491   42.1850  -11.5781 H       1  UNL1        0.0620
     72 H          14.8947   42.0115   -7.3339 H       1  UNL1        0.0625
     73 H          13.9138   44.1233  -10.3273 H       1  UNL1        0.0343
     74 H          16.1112   44.5991   -9.3477 H       1  UNL1        0.0235
     75 H          15.5043   44.2877   -7.7247 H       1  UNL1        0.0235
     76 H          14.8804   45.6504   -8.6407 H       1  UNL1        0.0235
     77 H          11.9838   43.3394   -8.9879 H       1  UNL1        0.0235
     78 H          12.4751   44.9439   -8.4916 H       1  UNL1        0.0235
     79 H          12.9003   43.5577   -7.5010 H       1  UNL1        0.0235
     80 H          17.1344   36.8041   -7.4002 H       1  UNL1        0.2101
     81 H          17.2122   40.1907   -7.6800 H       1  UNL1        0.2018
@<TRIPOS>BOND
     1     1     2    1
     2     1    41    1
     3     1    42    1
     4     1    43    1
     5     2    38    1
     6     2    22    1
     7     2     3    1
     8     3     4    2
     9     3     5   am
    10     5     6    1
    11     5    44    1
    12     6    39    1
    13     6     7    1
    14     6    24    1
    15     7     8    1
    16     7    45    1
    17     7    46    1
    18     8    13   ar
    19     8     9   ar
    20     9    10   ar
    21     9    47    1
    22    10    11   ar
    23    10    48    1
    24    11    12   ar
    25    11    49    1
    26    12    13   ar
    27    12    14    1
    28    13    50    1
    29    14    15    1
    30    15    16    1
    31    15    51    1
    32    15    52    1
    33    16    17    1
    34    16    53    1
    35    16    54    1
    36    17    18    1
    37    17    55    1
    38    17    56    1
    39    18    19    1
    40    18    57    1
    41    18    58    1
    42    19    20    1
    43    19    59    1
    44    19    60    1
    45    20    21    2
    46    20    22   am
    47    22    23    1
    48    23    61    1
    49    23    62    1
    50    23    63    1
    51    24    40    1
    52    24    25    1
    53    24    37    1
    54    25    26    1
    55    25    64    1
    56    25    65    1
    57    26    27    1
    58    26    66    1
    59    26    81    1
    60    27    28    1
    61    27    67    1
    62    27    68    1
    63    28    33   ar
    64    28    29   ar
    65    29    30   ar
    66    29    69    1
    67    30    31   ar
    68    30    70    1
    69    31    32   ar
    70    31    71    1
    71    32    33   ar
    72    32    34    1
    73    33    72    1
    74    34    35    1
    75    34    36    1
    76    34    73    1
    77    35    74    1
    78    35    75    1
    79    35    76    1
    80    36    77    1
    81    36    78    1
    82    36    79    1
    83    37    80    1
