@<TRIPOS>MOLECULE
BACE_7.smi:1
 99 103 0 0 0
SMALL
GASTEIGER
****
Structure written by MMmdl.
@<TRIPOS>ATOM
      1 C          17.8666   38.1612   -7.0167 C.3     1  UNL1       -0.0624
      2 C          17.9953   38.6696   -8.4614 C.3     1  UNL1       -0.0421
      3 C          16.9902   37.9811   -9.4117 C.3     1  UNL1       -0.0504
      4 C          15.5849   38.6125   -9.3541 C.3     1  UNL1       -0.0528
      5 C          15.4838   39.9759  -10.0746 C.3     1  UNL1       -0.0516
      6 C          14.3345   40.8375   -9.5232 C.3     1  UNL1       -0.0371
      7 C          14.1687   42.2199  -10.1847 C.3     1  UNL1        0.0156
      8 N          15.3649   43.0777  -10.0372 N.am    1  UNL1       -0.2907
      9 C          15.4911   43.8661   -8.9394 C.2     1  UNL1        0.2471
     10 O          14.5327   44.4353   -8.4132 O.2     1  UNL1       -0.2700
     11 C          16.8669   44.0281   -8.3495 C.ar    1  UNL1        0.0384
     12 C          17.3196   45.3009   -7.9438 C.ar    1  UNL1       -0.0373
     13 C          18.6144   45.4495   -7.4035 C.ar    1  UNL1        0.0383
     14 C          19.4558   44.3320   -7.2556 C.ar    1  UNL1       -0.0373
     15 C          19.0171   43.0493   -7.6346 C.ar    1  UNL1        0.0381
     16 C          17.7050   42.9022   -8.1524 C.ar    1  UNL1       -0.0375
     17 C          19.9288   41.8730   -7.4326 C.2     1  UNL1        0.2444
     18 O          20.7300   41.8387   -6.4983 O.2     1  UNL1       -0.2702
     19 N          19.8387   40.9166   -8.3665 N.am    1  UNL1       -0.3058
     20 C          20.4296   39.5793   -8.2930 C.3     1  UNL1        0.0545
     21 C          19.4555   38.5948   -8.9845 C.3     1  UNL1       -0.0293
     22 C          21.8685   39.5156   -8.8856 C.3     1  UNL1        0.1130
     23 C          22.1464   40.4713  -10.0744 C.3     1  UNL1       -0.0050
     24 N          23.5782   40.5547  -10.4400 N.4     1  UNL1        0.2321
     25 C          24.3367   41.6120   -9.7326 C.3     1  UNL1       -0.0076
     26 C          25.5019   42.0960  -10.5670 C.ar    1  UNL1       -0.0027
     27 C          26.7347   41.4232  -10.5134 C.ar    1  UNL1       -0.0535
     28 C          27.8196   41.8805  -11.2804 C.ar    1  UNL1       -0.0611
     29 C          27.6781   43.0195  -12.0974 C.ar    1  UNL1       -0.0583
     30 C          26.4439   43.7064  -12.1677 C.ar    1  UNL1       -0.0444
     31 C          25.3567   43.2211  -11.4046 C.ar    1  UNL1       -0.0501
     32 C          26.2478   44.9424  -13.0495 C.3     1  UNL1       -0.0215
     33 C          27.4988   45.3594  -13.8466 C.3     1  UNL1       -0.0586
     34 C          25.7321   46.1441  -12.2371 C.3     1  UNL1       -0.0586
     35 O          22.7982   39.7220   -7.8386 O.3     1  UNL1       -0.3847
     36 C          19.1180   46.7402   -6.9912 C.ar    1  UNL1        0.2271
     37 N          18.6941   47.5232   -5.9980 N.ar    1  UNL1       -0.2175
     38 C          19.6105   48.5641   -5.9746 C.ar    1  UNL1        0.0663
     39 C          20.5234   48.3709   -6.9805 C.ar    1  UNL1        0.1125
     40 O          20.2265   47.2111   -7.6285 O.2     1  UNL1       -0.4436
     41 C          16.0556   43.4159  -11.3063 C.3     1  UNL1        0.0487
     42 C          17.5866   43.2026  -11.2948 C.3     1  UNL1       -0.0422
     43 C          15.5930   44.7557  -11.9066 C.ar    1  UNL1       -0.0273
     44 C          16.5051   45.7966  -12.2061 C.ar    1  UNL1       -0.0568
     45 C          16.0614   46.9881  -12.8137 C.ar    1  UNL1       -0.0614
     46 C          14.7016   47.1580  -13.1318 C.ar    1  UNL1       -0.0617
     47 C          13.7792   46.1449  -12.8191 C.ar    1  UNL1       -0.0614
     48 C          14.2233   44.9533  -12.2059 C.ar    1  UNL1       -0.0568
     49 H          17.7012   39.7108   -8.4270 H       1  UNL1        0.0299
     50 H          20.4841   39.2792   -7.2467 H       1  UNL1        0.0526
     51 H          22.0582   38.4918   -9.2158 H       1  UNL1        0.0666
     52 H          15.7357   42.6813  -12.0399 H       1  UNL1        0.0548
     53 H          18.0598   37.0896   -6.9483 H       1  UNL1        0.0232
     54 H          16.8589   38.3368   -6.6352 H       1  UNL1        0.0232
     55 H          18.5407   38.6737   -6.3310 H       1  UNL1        0.0232
     56 H          17.3444   38.0260  -10.4401 H       1  UNL1        0.0268
     57 H          16.9287   36.9204   -9.1647 H       1  UNL1        0.0268
     58 H          14.8608   37.9291   -9.7967 H       1  UNL1        0.0265
     59 H          15.2842   38.7130   -8.3098 H       1  UNL1        0.0265
     60 H          16.4157   40.5278   -9.9763 H       1  UNL1        0.0266
     61 H          15.3509   39.8114  -11.1430 H       1  UNL1        0.0266
     62 H          13.4018   40.2830   -9.6393 H       1  UNL1        0.0280
     63 H          14.4645   40.9736   -8.4472 H       1  UNL1        0.0280
     64 H          13.8961   42.0689  -11.2270 H       1  UNL1        0.0465
     65 H          13.2936   42.7041   -9.7479 H       1  UNL1        0.0465
     66 H          16.6829   46.1645   -8.0632 H       1  UNL1        0.0633
     67 H          20.4447   44.4603   -6.8357 H       1  UNL1        0.0633
     68 H          17.3351   41.9223   -8.4066 H       1  UNL1        0.0633
     69 H          19.1606   41.0665   -9.0986 H       1  UNL1        0.1494
     70 H          19.8232   37.5719   -8.8877 H       1  UNL1        0.0286
     71 H          19.4594   38.8086  -10.0557 H       1  UNL1        0.0286
     72 H          21.6022   40.1052  -10.9455 H       1  UNL1        0.0840
     73 H          21.7722   41.4774   -9.8921 H       1  UNL1        0.0840
     74 H          24.0310   39.6584  -10.2811 H       1  UNL1        0.2018
     75 H          23.6976   42.4692   -9.5102 H       1  UNL1        0.0866
     76 H          24.7002   41.2410   -8.7735 H       1  UNL1        0.0866
     77 H          26.8628   40.5529   -9.8864 H       1  UNL1        0.0622
     78 H          28.7615   41.3538  -11.2426 H       1  UNL1        0.0618
     79 H          28.5387   43.3390  -12.6637 H       1  UNL1        0.0620
     80 H          24.4013   43.7213  -11.4578 H       1  UNL1        0.0625
     81 H          25.4766   44.6743  -13.7757 H       1  UNL1        0.0343
     82 H          27.8617   44.5502  -14.4792 H       1  UNL1        0.0235
     83 H          28.3095   45.6572  -13.1820 H       1  UNL1        0.0235
     84 H          27.2805   46.2079  -14.4961 H       1  UNL1        0.0235
     85 H          24.7656   45.9428  -11.7725 H       1  UNL1        0.0235
     86 H          25.6023   47.0212  -12.8724 H       1  UNL1        0.0235
     87 H          26.4316   46.4133  -11.4437 H       1  UNL1        0.0235
     88 H          23.5256   39.1261   -7.9545 H       1  UNL1        0.2101
     89 H          19.5563   49.3503   -5.2429 H       1  UNL1        0.0862
     90 H          21.3933   48.9135   -7.3236 H       1  UNL1        0.1046
     91 H          17.9909   43.2660  -12.3041 H       1  UNL1        0.0251
     92 H          17.8437   42.2146  -10.9129 H       1  UNL1        0.0251
     93 H          18.1117   43.9416  -10.6931 H       1  UNL1        0.0251
     94 H          17.5579   45.6986  -11.9897 H       1  UNL1        0.0621
     95 H          16.7709   47.7669  -13.0496 H       1  UNL1        0.0618
     96 H          14.3695   48.0661  -13.6157 H       1  UNL1        0.0618
     97 H          12.7361   46.2676  -13.0664 H       1  UNL1        0.0618
     98 H          13.5003   44.1810  -11.9923 H       1  UNL1        0.0621
     99 H          23.6489   40.7648  -11.4306 H       1  UNL1        0.2018
@<TRIPOS>BOND
     1     1     2    1
     2     1    53    1
     3     1    54    1
     4     1    55    1
     5     2    49    1
     6     2    21    1
     7     2     3    1
     8     3     4    1
     9     3    56    1
    10     3    57    1
    11     4     5    1
    12     4    58    1
    13     4    59    1
    14     5     6    1
    15     5    60    1
    16     5    61    1
    17     6     7    1
    18     6    62    1
    19     6    63    1
    20     7     8    1
    21     7    64    1
    22     7    65    1
    23     8     9   am
    24     8    41    1
    25     9    10    2
    26     9    11    1
    27    11    16   ar
    28    11    12   ar
    29    12    13   ar
    30    12    66    1
    31    13    14   ar
    32    13    36    1
    33    14    15   ar
    34    14    67    1
    35    15    16   ar
    36    15    17    1
    37    16    68    1
    38    17    18    2
    39    17    19   am
    40    19    20    1
    41    19    69    1
    42    20    50    1
    43    20    21    1
    44    20    22    1
    45    21    70    1
    46    21    71    1
    47    22    51    1
    48    22    23    1
    49    22    35    1
    50    23    24    1
    51    23    72    1
    52    23    73    1
    53    24    25    1
    54    24    74    1
    55    24    99    1
    56    25    26    1
    57    25    75    1
    58    25    76    1
    59    26    31   ar
    60    26    27   ar
    61    27    28   ar
    62    27    77    1
    63    28    29   ar
    64    28    78    1
    65    29    30   ar
    66    29    79    1
    67    30    31   ar
    68    30    32    1
    69    31    80    1
    70    32    33    1
    71    32    34    1
    72    32    81    1
    73    33    82    1
    74    33    83    1
    75    33    84    1
    76    34    85    1
    77    34    86    1
    78    34    87    1
    79    35    88    1
    80    36    40   ar
    81    36    37   ar
    82    37    38   ar
    83    38    39   ar
    84    38    89    1
    85    39    40   ar
    86    39    90    1
    87    41    52    1
    88    41    42    1
    89    41    43    1
    90    42    91    1
    91    42    92    1
    92    42    93    1
    93    43    48   ar
    94    43    44   ar
    95    44    45   ar
    96    44    94    1
    97    45    46   ar
    98    45    95    1
    99    46    47   ar
   100    46    96    1
   101    47    48   ar
   102    47    97    1
   103    48    98    1
