@<TRIPOS>MOLECULE
BACE_18.smi:1
 66 67 0 0 0
SMALL
GASTEIGER
****
Structure written by MMmdl.
@<TRIPOS>ATOM
      1 O          15.3201   39.3503   -6.8001 O.3     1  UNL1       -0.3924
      2 C          14.9587   38.9093   -8.0870 C.3     1  UNL1        0.0719
      3 C          15.6358   39.8041   -9.1511 C.3     1  UNL1        0.0965
      4 O          14.8601   39.6855  -10.3337 O.3     1  UNL1       -0.3877
      5 C          17.1171   39.4160   -9.4656 C.3     1  UNL1        0.0517
      6 N          17.6866   40.0508  -10.6673 N.am    1  UNL1       -0.3059
      7 C          17.8609   41.3332  -11.0299 C.2     1  UNL1        0.2445
      8 O          18.4961   41.6286  -12.0398 O.2     1  UNL1       -0.2702
      9 C          18.0851   39.5063   -8.2478 C.3     1  UNL1       -0.0294
     10 C          19.5566   39.0461   -8.4665 C.3     1  UNL1       -0.0421
     11 C          19.6458   37.7329   -9.2670 C.3     1  UNL1       -0.0624
     12 C          20.3011   38.8386   -7.1205 C.3     1  UNL1       -0.0504
     13 C          20.5711   40.1020   -6.2855 C.3     1  UNL1       -0.0528
     14 C          21.7218   40.9712   -6.8170 C.3     1  UNL1       -0.0530
     15 C          21.9711   42.2388   -5.9738 C.3     1  UNL1       -0.0530
     16 C          21.4019   43.5298   -6.5845 C.3     1  UNL1       -0.0500
     17 C          19.8663   43.6249   -6.5789 C.3     1  UNL1       -0.0186
     18 C          19.3674   44.8264   -7.3999 C.3     1  UNL1        0.0896
     19 O          17.9474   44.8765   -7.4993 O.3     1  UNL1       -0.4919
     20 C          17.3225   44.1555   -8.5013 C.ar    1  UNL1        0.1219
     21 C          17.9354   43.1147   -9.2428 C.ar    1  UNL1       -0.0078
     22 C          17.2153   42.4219  -10.2344 C.ar    1  UNL1        0.0409
     23 C          15.9809   44.4934   -8.7846 C.ar    1  UNL1       -0.0078
     24 C          15.2536   43.8121   -9.7835 C.ar    1  UNL1        0.0410
     25 C          15.8895   42.7956  -10.5212 C.ar    1  UNL1       -0.0373
     26 C          13.8269   44.1483  -10.1047 C.2     1  UNL1        0.2463
     27 O          13.5425   44.4725  -11.2599 O.2     1  UNL1       -0.2700
     28 N          12.8963   44.0211   -9.1266 N.am    1  UNL1       -0.3036
     29 C          13.1967   43.7229   -7.7287 C.3     1  UNL1        0.0031
     30 C          11.4639   44.1016   -9.4168 C.3     1  UNL1        0.0031
     31 H          15.5663   40.8336   -8.8065 H       1  UNL1        0.0635
     32 H          17.0732   38.3626   -9.7391 H       1  UNL1        0.0525
     33 H          20.0809   39.8120   -9.0398 H       1  UNL1        0.0299
     34 H          15.0858   38.6908   -6.1486 H       1  UNL1        0.2095
     35 H          15.2329   37.8611   -8.2099 H       1  UNL1        0.0583
     36 H          13.8695   38.9679   -8.1516 H       1  UNL1        0.0583
     37 H          13.9432   39.7781  -10.0985 H       1  UNL1        0.2100
     38 H          18.0828   39.3922  -11.3205 H       1  UNL1        0.1494
     39 H          18.0733   40.5218   -7.8528 H       1  UNL1        0.0286
     40 H          17.6784   38.8819   -7.4516 H       1  UNL1        0.0286
     41 H          19.0178   36.9538   -8.8324 H       1  UNL1        0.0232
     42 H          20.6681   37.3557   -9.2825 H       1  UNL1        0.0232
     43 H          19.3431   37.8639  -10.3048 H       1  UNL1        0.0232
     44 H          19.7204   38.1437   -6.5115 H       1  UNL1        0.0268
     45 H          21.2561   38.3394   -7.2945 H       1  UNL1        0.0268
     46 H          19.6602   40.6842   -6.1848 H       1  UNL1        0.0265
     47 H          20.8219   39.7899   -5.2717 H       1  UNL1        0.0265
     48 H          22.6306   40.3684   -6.8131 H       1  UNL1        0.0265
     49 H          21.5536   41.2384   -7.8600 H       1  UNL1        0.0265
     50 H          21.6034   42.1059   -4.9560 H       1  UNL1        0.0265
     51 H          23.0487   42.3713   -5.8776 H       1  UNL1        0.0265
     52 H          21.8012   44.3841   -6.0386 H       1  UNL1        0.0266
     53 H          21.7740   43.6323   -7.6062 H       1  UNL1        0.0266
     54 H          19.4407   42.7071   -6.9777 H       1  UNL1        0.0298
     55 H          19.5032   43.6943   -5.5542 H       1  UNL1        0.0298
     56 H          19.6856   45.7446   -6.9077 H       1  UNL1        0.0696
     57 H          19.8223   44.8521   -8.3896 H       1  UNL1        0.0696
     58 H          18.9621   42.8271   -9.0729 H       1  UNL1        0.0662
     59 H          15.5186   45.2914   -8.2256 H       1  UNL1        0.0662
     60 H          15.3424   42.2667  -11.2870 H       1  UNL1        0.0633
     61 H          13.9654   42.9518   -7.6396 H       1  UNL1        0.0428
     62 H          12.3240   43.3506   -7.1863 H       1  UNL1        0.0428
     63 H          13.5392   44.6281   -7.2404 H       1  UNL1        0.0428
     64 H          11.2508   44.5484  -10.3868 H       1  UNL1        0.0428
     65 H          10.9386   44.6881   -8.6629 H       1  UNL1        0.0428
     66 H          11.0335   43.0989   -9.4134 H       1  UNL1        0.0428
@<TRIPOS>BOND
     1     1     2    1
     2     1    34    1
     3     2     3    1
     4     2    35    1
     5     2    36    1
     6     3    31    1
     7     3     4    1
     8     3     5    1
     9     4    37    1
    10     5    32    1
    11     5     6    1
    12     5     9    1
    13     6     7   am
    14     6    38    1
    15     7    22    1
    16     7     8    2
    17     9    10    1
    18     9    39    1
    19     9    40    1
    20    10    33    1
    21    10    11    1
    22    10    12    1
    23    11    41    1
    24    11    42    1
    25    11    43    1
    26    12    13    1
    27    12    44    1
    28    12    45    1
    29    13    14    1
    30    13    46    1
    31    13    47    1
    32    14    15    1
    33    14    48    1
    34    14    49    1
    35    15    16    1
    36    15    50    1
    37    15    51    1
    38    16    17    1
    39    16    52    1
    40    16    53    1
    41    17    18    1
    42    17    54    1
    43    17    55    1
    44    18    19    1
    45    18    56    1
    46    18    57    1
    47    19    20    1
    48    20    21   ar
    49    20    23   ar
    50    21    22   ar
    51    21    58    1
    52    22    25   ar
    53    23    24   ar
    54    23    59    1
    55    24    25   ar
    56    24    26    1
    57    25    60    1
    58    26    27    2
    59    26    28   am
    60    28    29    1
    61    28    30    1
    62    29    61    1
    63    29    62    1
    64    29    63    1
    65    30    64    1
    66    30    65    1
    67    30    66    1
