@<TRIPOS>MOLECULE
BACE_9.smi:1
 87 89 0 0 0
SMALL
GASTEIGER
****
Structure written by MMmdl.
@<TRIPOS>ATOM
      1 C          26.4903   42.4838  -11.7785 C.3     1  UNL1       -0.0624
      2 C          25.6040   42.7613  -10.5543 C.3     1  UNL1       -0.0421
      3 C          26.4553   43.4149   -9.4467 C.3     1  UNL1       -0.0504
      4 C          25.6535   43.8298   -8.2026 C.3     1  UNL1       -0.0528
      5 C          26.5024   44.5578   -7.1483 C.3     1  UNL1       -0.0530
      6 C          25.6780   44.9916   -5.9258 C.3     1  UNL1       -0.0530
      7 C          24.8057   46.2356   -6.1878 C.3     1  UNL1       -0.0516
      8 C          23.6983   46.4710   -5.1419 C.3     1  UNL1       -0.0375
      9 C          22.3780   45.7494   -5.4692 C.3     1  UNL1        0.0091
     10 N          22.4729   44.3154   -5.2516 N.pl3   1  UNL1       -0.3438
     11 C          21.6699   43.4968   -6.0551 C.ar    1  UNL1        0.0282
     12 C          20.3194   43.8122   -6.3205 C.ar    1  UNL1       -0.0355
     13 C          19.5323   42.9597   -7.1214 C.ar    1  UNL1       -0.0195
     14 C          20.0975   41.7869   -7.6631 C.ar    1  UNL1       -0.0442
     15 C          21.4573   41.4852   -7.4391 C.ar    1  UNL1        0.0388
     16 C          22.2294   42.3308   -6.6150 C.ar    1  UNL1       -0.0287
     17 C          22.0666   40.2611   -8.0534 C.2     1  UNL1        0.2444
     18 O          21.7521   39.1455   -7.6501 O.2     1  UNL1       -0.2702
     19 N          22.9276   40.4197   -9.0752 N.am    1  UNL1       -0.3060
     20 C          23.3695   41.6504   -9.7455 C.3     1  UNL1        0.0508
     21 C          24.8692   41.4704  -10.0936 C.3     1  UNL1       -0.0295
     22 C          22.5127   42.0090  -11.0095 C.3     1  UNL1        0.0859
     23 C          21.6641   40.9057  -11.6783 C.3     1  UNL1        0.0240
     24 N          20.4595   40.6108  -10.9126 N.3     1  UNL1       -0.3095
     25 C          19.6803   39.4984  -11.4286 C.3     1  UNL1        0.0213
     26 C          18.6338   39.0997  -10.4169 C.ar    1  UNL1       -0.0333
     27 C          18.8181   37.9515   -9.6225 C.ar    1  UNL1       -0.0573
     28 C          17.8596   37.6054   -8.6518 C.ar    1  UNL1       -0.0612
     29 C          16.7286   38.4192   -8.4553 C.ar    1  UNL1       -0.0583
     30 C          16.5535   39.5887   -9.2272 C.ar    1  UNL1       -0.0445
     31 C          17.5026   39.9143  -10.2183 C.ar    1  UNL1       -0.0539
     32 C          15.3665   40.5098   -8.9999 C.3     1  UNL1       -0.0215
     33 C          15.1496   40.8110   -7.5069 C.3     1  UNL1       -0.0586
     34 C          14.1094   39.9493   -9.6827 C.3     1  UNL1       -0.0586
     35 O          21.6792   43.1190  -10.7507 O.3     1  UNL1       -0.3887
     36 C          18.0770   43.2982   -7.3783 C.3     1  UNL1        0.0724
     37 O          17.9306   44.6347   -7.8390 O.3     1  UNL1       -0.3784
     38 C          16.5857   44.9676   -8.1372 C.3     1  UNL1        0.0369
     39 H          24.8675   43.5035  -10.8657 H       1  UNL1        0.0299
     40 H          23.3180   42.4842   -9.0464 H       1  UNL1        0.0524
     41 H          23.1933   42.3609  -11.7832 H       1  UNL1        0.0624
     42 H          27.2314   41.7111  -11.5678 H       1  UNL1        0.0232
     43 H          27.0221   43.3804  -12.0982 H       1  UNL1        0.0232
     44 H          25.8909   42.1500  -12.6224 H       1  UNL1        0.0232
     45 H          27.2737   42.7474   -9.1780 H       1  UNL1        0.0268
     46 H          26.9323   44.3079   -9.8550 H       1  UNL1        0.0268
     47 H          24.8243   44.4630   -8.5192 H       1  UNL1        0.0265
     48 H          25.2080   42.9501   -7.7387 H       1  UNL1        0.0265
     49 H          27.2956   43.8863   -6.8173 H       1  UNL1        0.0265
     50 H          26.9980   45.4240   -7.5880 H       1  UNL1        0.0265
     51 H          25.0764   44.1469   -5.5948 H       1  UNL1        0.0265
     52 H          26.3504   45.2104   -5.0952 H       1  UNL1        0.0265
     53 H          25.4634   47.1052   -6.2119 H       1  UNL1        0.0266
     54 H          24.3510   46.1922   -7.1776 H       1  UNL1        0.0266
     55 H          24.0505   46.2180   -4.1402 H       1  UNL1        0.0280
     56 H          23.4865   47.5399   -5.1210 H       1  UNL1        0.0280
     57 H          21.5790   46.1388   -4.8403 H       1  UNL1        0.0461
     58 H          22.0893   45.9590   -6.5005 H       1  UNL1        0.0461
     59 H          23.3987   43.9716   -5.0378 H       1  UNL1        0.1461
     60 H          19.8720   44.7002   -5.8991 H       1  UNL1        0.0639
     61 H          19.4895   41.1244   -8.2629 H       1  UNL1        0.0628
     62 H          23.2601   42.0855   -6.4197 H       1  UNL1        0.0643
     63 H          23.3526   39.5683   -9.4226 H       1  UNL1        0.1494
     64 H          24.9457   40.6984  -10.8588 H       1  UNL1        0.0286
     65 H          25.4008   41.0476   -9.2405 H       1  UNL1        0.0286
     66 H          21.3897   41.2205  -12.6862 H       1  UNL1        0.0450
     67 H          22.2698   40.0080  -11.7908 H       1  UNL1        0.0450
     68 H          20.7167   40.3994   -9.9526 H       1  UNL1        0.1223
     69 H          19.2053   39.7604  -12.3737 H       1  UNL1        0.0473
     70 H          20.3221   38.6397  -11.6243 H       1  UNL1        0.0473
     71 H          19.7060   37.3498   -9.7419 H       1  UNL1        0.0621
     72 H          17.9948   36.7281   -8.0372 H       1  UNL1        0.0618
     73 H          16.0115   38.1485   -7.6920 H       1  UNL1        0.0620
     74 H          17.3819   40.8074  -10.8146 H       1  UNL1        0.0623
     75 H          15.6011   41.4611   -9.4781 H       1  UNL1        0.0343
     76 H          16.0788   41.1012   -7.0159 H       1  UNL1        0.0235
     77 H          14.7495   39.9532   -6.9668 H       1  UNL1        0.0235
     78 H          14.4592   41.6394   -7.3704 H       1  UNL1        0.0235
     79 H          14.2962   39.7484  -10.7378 H       1  UNL1        0.0235
     80 H          13.2729   40.6482   -9.6401 H       1  UNL1        0.0235
     81 H          13.7860   39.0160   -9.2185 H       1  UNL1        0.0235
     82 H          20.8784   42.7772  -10.3780 H       1  UNL1        0.2099
     83 H          17.6728   42.6092   -8.1214 H       1  UNL1        0.0610
     84 H          17.5147   43.1520   -6.4537 H       1  UNL1        0.0610
     85 H          16.5428   45.9767   -8.5477 H       1  UNL1        0.0524
     86 H          15.9672   44.9492   -7.2401 H       1  UNL1        0.0524
     87 H          16.1579   44.2850   -8.8738 H       1  UNL1        0.0524
@<TRIPOS>BOND
     1     1     2    1
     2     1    42    1
     3     1    43    1
     4     1    44    1
     5     2    39    1
     6     2    21    1
     7     2     3    1
     8     3     4    1
     9     3    45    1
    10     3    46    1
    11     4     5    1
    12     4    47    1
    13     4    48    1
    14     5     6    1
    15     5    49    1
    16     5    50    1
    17     6     7    1
    18     6    51    1
    19     6    52    1
    20     7     8    1
    21     7    53    1
    22     7    54    1
    23     8     9    1
    24     8    55    1
    25     8    56    1
    26     9    10    1
    27     9    57    1
    28     9    58    1
    29    10    11    1
    30    10    59    1
    31    11    16   ar
    32    11    12   ar
    33    12    13   ar
    34    12    60    1
    35    13    14   ar
    36    13    36    1
    37    14    15   ar
    38    14    61    1
    39    15    16   ar
    40    15    17    1
    41    16    62    1
    42    17    18    2
    43    17    19   am
    44    19    20    1
    45    19    63    1
    46    20    40    1
    47    20    21    1
    48    20    22    1
    49    21    64    1
    50    21    65    1
    51    22    41    1
    52    22    23    1
    53    22    35    1
    54    23    24    1
    55    23    66    1
    56    23    67    1
    57    24    25    1
    58    24    68    1
    59    25    26    1
    60    25    69    1
    61    25    70    1
    62    26    31   ar
    63    26    27   ar
    64    27    28   ar
    65    27    71    1
    66    28    29   ar
    67    28    72    1
    68    29    30   ar
    69    29    73    1
    70    30    31   ar
    71    30    32    1
    72    31    74    1
    73    32    33    1
    74    32    34    1
    75    32    75    1
    76    33    76    1
    77    33    77    1
    78    33    78    1
    79    34    79    1
    80    34    80    1
    81    34    81    1
    82    35    82    1
    83    36    37    1
    84    36    83    1
    85    36    84    1
    86    37    38    1
    87    38    85    1
    88    38    86    1
    89    38    87    1
