@<TRIPOS>MOLECULE
BACE_18.smi:1
 66 67 0 0 0
SMALL
GASTEIGER
****
Structure written by MMmdl.
@<TRIPOS>ATOM
      1 O          17.5030   44.3376   -8.6180 O.3     1  UNL1       -0.3924
      2 C          16.3603   44.4280   -7.7947 C.3     1  UNL1        0.0719
      3 C          15.1526   43.7301   -8.4525 C.3     1  UNL1        0.0965
      4 O          13.9218   44.2900   -8.0394 O.3     1  UNL1       -0.3877
      5 C          15.0824   42.1627   -8.3560 C.3     1  UNL1        0.0517
      6 N          14.4995   41.5657   -9.5637 N.am    1  UNL1       -0.3059
      7 C          14.9635   41.4993  -10.8241 C.2     1  UNL1        0.2445
      8 O          14.4619   40.7359  -11.6400 O.2     1  UNL1       -0.2702
      9 C          16.3422   41.3692   -7.8795 C.3     1  UNL1       -0.0294
     10 C          16.2053   39.8094   -7.8176 C.3     1  UNL1       -0.0421
     11 C          14.9049   39.3534   -7.1278 C.3     1  UNL1       -0.0624
     12 C          17.3733   39.0910   -7.0919 C.3     1  UNL1       -0.0504
     13 C          18.7865   39.2646   -7.6711 C.3     1  UNL1       -0.0528
     14 C          19.0738   38.3051   -8.8412 C.3     1  UNL1       -0.0530
     15 C          20.5241   38.3737   -9.3605 C.3     1  UNL1       -0.0530
     16 C          20.6464   39.0575  -10.7305 C.3     1  UNL1       -0.0500
     17 C          20.3204   40.5544  -10.6987 C.3     1  UNL1       -0.0186
     18 C          20.0604   41.1077  -12.1031 C.3     1  UNL1        0.0896
     19 O          19.7131   42.4815  -12.0399 O.3     1  UNL1       -0.4919
     20 C          18.3939   42.8350  -11.8784 C.ar    1  UNL1        0.1219
     21 C          17.3796   41.9630  -11.4123 C.ar    1  UNL1       -0.0078
     22 C          16.0586   42.4272  -11.2644 C.ar    1  UNL1        0.0409
     23 C          18.0698   44.1716  -12.1881 C.ar    1  UNL1       -0.0078
     24 C          16.7541   44.6575  -12.0388 C.ar    1  UNL1        0.0410
     25 C          15.7487   43.7499  -11.6523 C.ar    1  UNL1       -0.0373
     26 C          16.3773   46.0900  -12.3240 C.2     1  UNL1        0.2463
     27 O          15.2843   46.3157  -12.8517 O.2     1  UNL1       -0.2700
     28 N          17.2070   47.1000  -11.9537 N.am    1  UNL1       -0.3036
     29 C          18.3412   46.9841  -11.0332 C.3     1  UNL1        0.0031
     30 C          16.9153   48.4774  -12.3614 C.3     1  UNL1        0.0031
     31 H          15.1480   44.0910   -9.4532 H       1  UNL1        0.0635
     32 H          14.3594   41.9608   -7.5674 H       1  UNL1        0.0525
     33 H          16.1734   39.4343   -8.8408 H       1  UNL1        0.0299
     34 H          17.7448   43.4278   -8.7022 H       1  UNL1        0.2095
     35 H          16.6198   43.9979   -6.8400 H       1  UNL1        0.0583
     36 H          16.1500   45.4858   -7.6386 H       1  UNL1        0.0583
     37 H          13.5194   43.6707   -7.4417 H       1  UNL1        0.2100
     38 H          13.7021   40.9716   -9.3754 H       1  UNL1        0.1494
     39 H          17.1883   41.6180   -8.5178 H       1  UNL1        0.0286
     40 H          16.5964   41.7192   -6.8790 H       1  UNL1        0.0286
     41 H          14.8288   39.7498   -6.1133 H       1  UNL1        0.0232
     42 H          14.8542   38.2661   -7.0521 H       1  UNL1        0.0232
     43 H          14.0212   39.6608   -7.6806 H       1  UNL1        0.0232
     44 H          17.3774   39.3559   -6.0379 H       1  UNL1        0.0268
     45 H          17.1672   38.0218   -7.0792 H       1  UNL1        0.0268
     46 H          18.9697   40.3015   -7.9420 H       1  UNL1        0.0265
     47 H          19.4993   39.0430   -6.8768 H       1  UNL1        0.0265
     48 H          18.8808   37.2866   -8.5023 H       1  UNL1        0.0265
     49 H          18.3657   38.4800   -9.6537 H       1  UNL1        0.0265
     50 H          21.1776   38.8596   -8.6335 H       1  UNL1        0.0265
     51 H          20.9045   37.3533   -9.4553 H       1  UNL1        0.0265
     52 H          21.6593   38.9365  -11.1140 H       1  UNL1        0.0266
     53 H          19.9917   38.5464  -11.4388 H       1  UNL1        0.0266
     54 H          19.4489   40.7366  -10.0736 H       1  UNL1        0.0298
     55 H          21.1414   41.0992  -10.2295 H       1  UNL1        0.0298
     56 H          20.9706   41.0202  -12.6978 H       1  UNL1        0.0696
     57 H          19.2994   40.5332  -12.6344 H       1  UNL1        0.0696
     58 H          17.5837   40.9309  -11.1645 H       1  UNL1        0.0662
     59 H          18.8555   44.8237  -12.5427 H       1  UNL1        0.0662
     60 H          14.7217   44.0883  -11.6002 H       1  UNL1        0.0633
     61 H          18.2298   46.1521  -10.3403 H       1  UNL1        0.0428
     62 H          18.4396   47.8811  -10.4212 H       1  UNL1        0.0428
     63 H          19.2708   46.8542  -11.5875 H       1  UNL1        0.0428
     64 H          16.5522   48.5250  -13.3884 H       1  UNL1        0.0428
     65 H          17.8069   49.1056  -12.3115 H       1  UNL1        0.0428
     66 H          16.1564   48.9099  -11.7089 H       1  UNL1        0.0428
@<TRIPOS>BOND
     1     1     2    1
     2     1    34    1
     3     2     3    1
     4     2    35    1
     5     2    36    1
     6     3    31    1
     7     3     4    1
     8     3     5    1
     9     4    37    1
    10     5    32    1
    11     5     6    1
    12     5     9    1
    13     6     7   am
    14     6    38    1
    15     7    22    1
    16     7     8    2
    17     9    10    1
    18     9    39    1
    19     9    40    1
    20    10    33    1
    21    10    11    1
    22    10    12    1
    23    11    41    1
    24    11    42    1
    25    11    43    1
    26    12    13    1
    27    12    44    1
    28    12    45    1
    29    13    14    1
    30    13    46    1
    31    13    47    1
    32    14    15    1
    33    14    48    1
    34    14    49    1
    35    15    16    1
    36    15    50    1
    37    15    51    1
    38    16    17    1
    39    16    52    1
    40    16    53    1
    41    17    18    1
    42    17    54    1
    43    17    55    1
    44    18    19    1
    45    18    56    1
    46    18    57    1
    47    19    20    1
    48    20    21   ar
    49    20    23   ar
    50    21    22   ar
    51    21    58    1
    52    22    25   ar
    53    23    24   ar
    54    23    59    1
    55    24    25   ar
    56    24    26    1
    57    25    60    1
    58    26    27    2
    59    26    28   am
    60    28    29    1
    61    28    30    1
    62    29    61    1
    63    29    62    1
    64    29    63    1
    65    30    64    1
    66    30    65    1
    67    30    66    1
