@<TRIPOS>MOLECULE
BACE_3.smi:1
 85 86 0 0 0
SMALL
GASTEIGER
****
Structure written by MMmdl.
@<TRIPOS>ATOM
      1 C          21.9125   39.5046   -8.7384 C.ar    1  UNL1       -0.0573
      2 C          22.8224   40.5727   -8.6822 C.ar    1  UNL1       -0.0612
      3 C          22.8732   41.3852   -7.5342 C.ar    1  UNL1       -0.0583
      4 C          22.0369   41.1250   -6.4240 C.ar    1  UNL1       -0.0445
      5 C          22.1627   41.9650   -5.1586 C.3     1  UNL1       -0.0215
      6 C          20.8554   42.6992   -4.8167 C.3     1  UNL1       -0.0586
      7 C          22.6563   41.1201   -3.9693 C.3     1  UNL1       -0.0586
      8 C          21.1047   40.0668   -6.5044 C.ar    1  UNL1       -0.0539
      9 C          21.0379   39.2630   -7.6628 C.ar    1  UNL1       -0.0333
     10 C          20.0177   38.1537   -7.7642 C.3     1  UNL1        0.0214
     11 N          18.7731   38.6426   -8.3361 N.3     1  UNL1       -0.3071
     12 C          17.5658   38.0556   -7.7512 C.3     1  UNL1        0.0521
     13 C          16.2773   38.4091   -8.5396 C.3     1  UNL1        0.1962
     14 O          15.2374   38.1500   -7.6405 O.3     1  UNL1       -0.3623
     15 O          16.2190   37.5285   -9.6390 O.3     1  UNL1       -0.3623
     16 C          16.1299   39.8919   -9.0162 C.3     1  UNL1        0.0782
     17 N          16.9521   40.1599  -10.2047 N.am    1  UNL1       -0.3058
     18 C          17.9790   41.0239  -10.2680 C.2     1  UNL1        0.2337
     19 O          18.3984   41.6335   -9.2809 O.2     1  UNL1       -0.2738
     20 C          18.6139   41.2372  -11.6543 C.3     1  UNL1        0.0991
     21 C          19.7261   40.1867  -11.8731 C.3     1  UNL1       -0.0379
     22 C          14.6590   40.3000   -9.3300 C.3     1  UNL1       -0.0269
     23 C          14.3418   41.7998   -9.5622 C.3     1  UNL1       -0.0420
     24 C          14.8506   42.3246  -10.9084 C.3     1  UNL1       -0.0624
     25 C          14.7133   42.6677   -8.3356 C.3     1  UNL1       -0.0504
     26 C          14.6400   44.1951   -8.5245 C.3     1  UNL1       -0.0528
     27 C          16.0548   44.7761   -8.6737 C.3     1  UNL1       -0.0530
     28 C          16.0744   46.2260   -9.1580 C.3     1  UNL1       -0.0531
     29 C          17.4930   46.8249   -9.2317 C.3     1  UNL1       -0.0530
     30 C          18.4642   46.0411  -10.1371 C.3     1  UNL1       -0.0526
     31 C          18.0577   46.0348  -11.6207 C.3     1  UNL1       -0.0448
     32 C          18.8630   45.0426  -12.4761 C.3     1  UNL1        0.0242
     33 C          18.3695   43.5907  -12.3585 C.2     1  UNL1        0.2159
     34 O          17.2607   43.3534  -12.8433 O.2     1  UNL1       -0.2756
     35 N          19.1372   42.6239  -11.7823 N.am    1  UNL1       -0.2932
     36 C          20.4598   42.9210  -11.2027 C.3     1  UNL1        0.0039
     37 H          16.4670   40.4854   -8.1706 H       1  UNL1        0.0552
     38 H          17.8550   41.0379  -12.4143 H       1  UNL1        0.0594
     39 H          13.2563   41.8445   -9.6511 H       1  UNL1        0.0299
     40 H          21.8871   38.8747   -9.6149 H       1  UNL1        0.0621
     41 H          23.4786   40.7609   -9.5185 H       1  UNL1        0.0618
     42 H          23.5879   42.1906   -7.4980 H       1  UNL1        0.0620
     43 H          22.9160   42.7353   -5.3423 H       1  UNL1        0.0343
     44 H          20.5300   43.3200   -5.6504 H       1  UNL1        0.0235
     45 H          20.9798   43.3442   -3.9459 H       1  UNL1        0.0235
     46 H          20.0619   41.9899   -4.5942 H       1  UNL1        0.0235
     47 H          23.6130   40.6418   -4.1963 H       1  UNL1        0.0235
     48 H          21.9467   40.3307   -3.7088 H       1  UNL1        0.0235
     49 H          22.8010   41.7410   -3.0855 H       1  UNL1        0.0235
     50 H          20.4456   39.8684   -5.6726 H       1  UNL1        0.0623
     51 H          19.8514   37.7511   -6.7630 H       1  UNL1        0.0473
     52 H          20.4094   37.3507   -8.3913 H       1  UNL1        0.0473
     53 H          18.7272   39.6594   -8.2329 H       1  UNL1        0.1224
     54 H          17.4708   38.3954   -6.7147 H       1  UNL1        0.0477
     55 H          17.6700   36.9675   -7.7018 H       1  UNL1        0.0477
     56 H          15.5222   37.4764   -7.0145 H       1  UNL1        0.2128
     57 H          17.0577   37.5641  -10.0714 H       1  UNL1        0.2128
     58 H          16.6945   39.6789  -11.0503 H       1  UNL1        0.1492
     59 H          19.2874   39.2033  -12.0430 H       1  UNL1        0.0252
     60 H          20.3883   40.0882  -11.0140 H       1  UNL1        0.0252
     61 H          20.3361   40.4188  -12.7483 H       1  UNL1        0.0252
     62 H          14.2821   39.7077  -10.1687 H       1  UNL1        0.0287
     63 H          14.0280   40.0194   -8.4870 H       1  UNL1        0.0287
     64 H          14.2525   43.1633  -11.2596 H       1  UNL1        0.0232
     65 H          14.8047   41.5409  -11.6606 H       1  UNL1        0.0232
     66 H          15.8779   42.6618  -10.8359 H       1  UNL1        0.0232
     67 H          14.0599   42.3851   -7.5162 H       1  UNL1        0.0268
     68 H          15.7072   42.4237   -7.9664 H       1  UNL1        0.0268
     69 H          14.1742   44.6637   -7.6570 H       1  UNL1        0.0265
     70 H          14.0087   44.4503   -9.3736 H       1  UNL1        0.0265
     71 H          16.5877   44.7032   -7.7219 H       1  UNL1        0.0265
     72 H          16.6130   44.1573   -9.3783 H       1  UNL1        0.0265
     73 H          15.4614   46.8258   -8.4896 H       1  UNL1        0.0265
     74 H          15.5879   46.2878  -10.1308 H       1  UNL1        0.0265
     75 H          17.4235   47.8546   -9.5803 H       1  UNL1        0.0265
     76 H          17.9074   46.8766   -8.2255 H       1  UNL1        0.0265
     77 H          18.5788   45.0253   -9.7648 H       1  UNL1        0.0265
     78 H          19.4551   46.4855  -10.0563 H       1  UNL1        0.0265
     79 H          16.9992   45.8017  -11.7292 H       1  UNL1        0.0270
     80 H          18.1785   47.0436  -12.0180 H       1  UNL1        0.0270
     81 H          19.9303   45.1626  -12.3074 H       1  UNL1        0.0358
     82 H          18.7150   45.3202  -13.5204 H       1  UNL1        0.0358
     83 H          20.7898   42.1614  -10.4933 H       1  UNL1        0.0429
     84 H          20.4752   43.8500  -10.6342 H       1  UNL1        0.0429
     85 H          21.2153   42.9795  -11.9815 H       1  UNL1        0.0429
@<TRIPOS>BOND
     1     1     9   ar
     2     1     2   ar
     3     1    40    1
     4     2     3   ar
     5     2    41    1
     6     3     4   ar
     7     3    42    1
     8     4     5    1
     9     4     8   ar
    10     5     6    1
    11     5     7    1
    12     5    43    1
    13     6    44    1
    14     6    45    1
    15     6    46    1
    16     7    47    1
    17     7    48    1
    18     7    49    1
    19     8     9   ar
    20     8    50    1
    21     9    10    1
    22    10    11    1
    23    10    51    1
    24    10    52    1
    25    11    12    1
    26    11    53    1
    27    12    13    1
    28    12    54    1
    29    12    55    1
    30    13    14    1
    31    13    15    1
    32    13    16    1
    33    14    56    1
    34    15    57    1
    35    16    37    1
    36    16    17    1
    37    16    22    1
    38    17    18   am
    39    17    58    1
    40    18    19    2
    41    18    20    1
    42    20    38    1
    43    20    35    1
    44    20    21    1
    45    21    59    1
    46    21    60    1
    47    21    61    1
    48    22    23    1
    49    22    62    1
    50    22    63    1
    51    23    39    1
    52    23    24    1
    53    23    25    1
    54    24    64    1
    55    24    65    1
    56    24    66    1
    57    25    26    1
    58    25    67    1
    59    25    68    1
    60    26    27    1
    61    26    69    1
    62    26    70    1
    63    27    28    1
    64    27    71    1
    65    27    72    1
    66    28    29    1
    67    28    73    1
    68    28    74    1
    69    29    30    1
    70    29    75    1
    71    29    76    1
    72    30    31    1
    73    30    77    1
    74    30    78    1
    75    31    32    1
    76    31    79    1
    77    31    80    1
    78    32    33    1
    79    32    81    1
    80    32    82    1
    81    33    34    2
    82    33    35   am
    83    35    36    1
    84    36    83    1
    85    36    84    1
    86    36    85    1
