@<TRIPOS>MOLECULE
BACE_3.smi:1
 86 87 0 0 0
SMALL
GASTEIGER
****
Structure written by MMmdl.
@<TRIPOS>ATOM
      1 C          27.0584   43.2825   -9.8404 C.ar    1  UNL1       -0.0535
      2 C          28.1609   44.1269  -10.0715 C.ar    1  UNL1       -0.0611
      3 C          29.1244   43.7770  -11.0370 C.ar    1  UNL1       -0.0583
      4 C          28.9888   42.5837  -11.7790 C.ar    1  UNL1       -0.0444
      5 C          30.0576   42.1593  -12.7746 C.3     1  UNL1       -0.0215
      6 C          30.3312   43.2359  -13.8393 C.3     1  UNL1       -0.0586
      7 C          31.3365   41.7535  -12.0339 C.3     1  UNL1       -0.0586
      8 C          27.8739   41.7494  -11.5535 C.ar    1  UNL1       -0.0501
      9 C          26.9172   42.0871  -10.5786 C.ar    1  UNL1       -0.0027
     10 C          25.7481   41.1634  -10.3074 C.3     1  UNL1       -0.0075
     11 N          24.5089   41.7519  -10.8401 N.4     1  UNL1        0.2341
     12 C          23.2641   41.2764  -10.2053 C.3     1  UNL1        0.0236
     13 C          22.0397   42.0943  -10.6850 C.3     1  UNL1        0.2249
     14 O          21.6634   41.6951  -11.9893 O.3     1  UNL1       -0.3594
     15 O          22.4191   43.4563  -10.6442 O.3     1  UNL1       -0.3594
     16 C          20.8256   41.9613   -9.7230 C.3     1  UNL1        0.0822
     17 N          19.6763   42.6924  -10.2528 N.am    1  UNL1       -0.3056
     18 C          18.9010   43.5558   -9.5781 C.2     1  UNL1        0.2337
     19 O          19.1727   43.9503   -8.4427 O.2     1  UNL1       -0.2738
     20 C          17.6334   44.0307  -10.3088 C.3     1  UNL1        0.0991
     21 C          17.5150   45.5690  -10.2928 C.3     1  UNL1       -0.0379
     22 C          20.4053   40.5209   -9.3263 C.3     1  UNL1       -0.0267
     23 C          20.0299   39.5217  -10.4528 C.3     1  UNL1       -0.0420
     24 C          18.9213   40.0118  -11.4000 C.3     1  UNL1       -0.0624
     25 C          19.7286   38.1103   -9.8894 C.3     1  UNL1       -0.0504
     26 C          18.4793   37.9575   -8.9910 C.3     1  UNL1       -0.0528
     27 C          17.1666   37.7969   -9.7702 C.3     1  UNL1       -0.0530
     28 C          15.9285   37.5386   -8.9093 C.3     1  UNL1       -0.0531
     29 C          15.6033   38.6157   -7.8557 C.3     1  UNL1       -0.0530
     30 C          15.5652   40.0680   -8.3592 C.3     1  UNL1       -0.0526
     31 C          14.6074   40.3228   -9.5385 C.3     1  UNL1       -0.0448
     32 C          14.4462   41.8171   -9.9006 C.3     1  UNL1        0.0242
     33 C          15.7254   42.4665  -10.4718 C.2     1  UNL1        0.2159
     34 O          16.0709   42.1290  -11.6073 O.2     1  UNL1       -0.2756
     35 N          16.4130   43.3948   -9.7535 N.am    1  UNL1       -0.2932
     36 C          16.0469   43.7258   -8.3631 C.3     1  UNL1        0.0039
     37 H          21.1214   42.4270   -8.7795 H       1  UNL1        0.0553
     38 H          17.7625   43.7766  -11.3620 H       1  UNL1        0.0594
     39 H          20.9174   39.3877  -11.0693 H       1  UNL1        0.0299
     40 H          26.3301   43.5544   -9.0902 H       1  UNL1        0.0622
     41 H          28.2768   45.0385   -9.5038 H       1  UNL1        0.0618
     42 H          29.9774   44.4205  -11.1889 H       1  UNL1        0.0620
     43 H          29.7006   41.2750  -13.3044 H       1  UNL1        0.0343
     44 H          29.4335   43.4718  -14.4049 H       1  UNL1        0.0235
     45 H          31.0836   42.8918  -14.5433 H       1  UNL1        0.0235
     46 H          30.6985   44.1601  -13.3975 H       1  UNL1        0.0235
     47 H          31.1265   40.9558  -11.3186 H       1  UNL1        0.0235
     48 H          31.7682   42.5872  -11.4775 H       1  UNL1        0.0235
     49 H          32.0896   41.3944  -12.7338 H       1  UNL1        0.0235
     50 H          27.7820   40.8209  -12.1022 H       1  UNL1        0.0625
     51 H          25.6607   40.9997   -9.2401 H       1  UNL1        0.0866
     52 H          25.9163   40.1858  -10.7578 H       1  UNL1        0.0866
     53 H          24.4618   41.5455  -11.8319 H       1  UNL1        0.2019
     54 H          23.3733   41.4004   -9.1292 H       1  UNL1        0.0868
     55 H          23.1313   40.2068  -10.3828 H       1  UNL1        0.0868
     56 H          22.4388   41.4714  -12.4908 H       1  UNL1        0.2130
     57 H          21.7214   43.9442  -10.2130 H       1  UNL1        0.2130
     58 H          19.4173   42.4567  -11.2024 H       1  UNL1        0.1492
     59 H          18.3856   46.0208  -10.7717 H       1  UNL1        0.0252
     60 H          17.4471   45.9852   -9.2850 H       1  UNL1        0.0252
     61 H          16.6355   45.8983  -10.8469 H       1  UNL1        0.0252
     62 H          21.2035   40.0722   -8.7340 H       1  UNL1        0.0287
     63 H          19.5622   40.6113   -8.6391 H       1  UNL1        0.0287
     64 H          18.5583   39.2052  -12.0342 H       1  UNL1        0.0232
     65 H          19.2690   40.7969  -12.0684 H       1  UNL1        0.0232
     66 H          18.0752   40.4164  -10.8398 H       1  UNL1        0.0232
     67 H          19.6558   37.3989  -10.7139 H       1  UNL1        0.0268
     68 H          20.6006   37.7872   -9.3197 H       1  UNL1        0.0268
     69 H          18.4019   38.7756   -8.2789 H       1  UNL1        0.0265
     70 H          18.6083   37.0629   -8.3822 H       1  UNL1        0.0265
     71 H          16.9658   38.6555  -10.4006 H       1  UNL1        0.0265
     72 H          17.2839   36.9520  -10.4394 H       1  UNL1        0.0265
     73 H          16.0598   36.5748   -8.4195 H       1  UNL1        0.0265
     74 H          15.0669   37.4261   -9.5701 H       1  UNL1        0.0265
     75 H          14.6472   38.3675   -7.3914 H       1  UNL1        0.0265
     76 H          16.3294   38.5564   -7.0419 H       1  UNL1        0.0265
     77 H          16.5758   40.3883   -8.6211 H       1  UNL1        0.0265
     78 H          15.2650   40.6923   -7.5150 H       1  UNL1        0.0265
     79 H          14.9320   39.7706  -10.4214 H       1  UNL1        0.0270
     80 H          13.6278   39.9139   -9.2876 H       1  UNL1        0.0270
     81 H          14.0304   42.3590   -9.0527 H       1  UNL1        0.0358
     82 H          13.6829   41.8914  -10.6764 H       1  UNL1        0.0358
     83 H          16.7293   44.4271   -7.8855 H       1  UNL1        0.0429
     84 H          16.0518   42.8315   -7.7334 H       1  UNL1        0.0429
     85 H          15.0538   44.1786   -8.3141 H       1  UNL1        0.0429
     86 H          24.5292   42.7535  -10.7155 H       1  UNL1        0.2019
@<TRIPOS>BOND
     1     1     9   ar
     2     1     2   ar
     3     1    40    1
     4     2     3   ar
     5     2    41    1
     6     3     4   ar
     7     3    42    1
     8     4     5    1
     9     4     8   ar
    10     5     6    1
    11     5     7    1
    12     5    43    1
    13     6    44    1
    14     6    45    1
    15     6    46    1
    16     7    47    1
    17     7    48    1
    18     7    49    1
    19     8     9   ar
    20     8    50    1
    21     9    10    1
    22    10    11    1
    23    10    51    1
    24    10    52    1
    25    11    12    1
    26    11    53    1
    27    11    86    1
    28    12    13    1
    29    12    54    1
    30    12    55    1
    31    13    14    1
    32    13    15    1
    33    13    16    1
    34    14    56    1
    35    15    57    1
    36    16    37    1
    37    16    17    1
    38    16    22    1
    39    17    18   am
    40    17    58    1
    41    18    19    2
    42    18    20    1
    43    20    38    1
    44    20    35    1
    45    20    21    1
    46    21    59    1
    47    21    60    1
    48    21    61    1
    49    22    23    1
    50    22    62    1
    51    22    63    1
    52    23    39    1
    53    23    24    1
    54    23    25    1
    55    24    64    1
    56    24    65    1
    57    24    66    1
    58    25    26    1
    59    25    67    1
    60    25    68    1
    61    26    27    1
    62    26    69    1
    63    26    70    1
    64    27    28    1
    65    27    71    1
    66    27    72    1
    67    28    29    1
    68    28    73    1
    69    28    74    1
    70    29    30    1
    71    29    75    1
    72    29    76    1
    73    30    31    1
    74    30    77    1
    75    30    78    1
    76    31    32    1
    77    31    79    1
    78    31    80    1
    79    32    33    1
    80    32    81    1
    81    32    82    1
    82    33    34    2
    83    33    35   am
    84    35    36    1
    85    36    83    1
    86    36    84    1
    87    36    85    1
