@<TRIPOS>MOLECULE
BACE_19.smi:1
 76 77 0 0 0
SMALL
GASTEIGER
****
Structure written by MMmdl.
@<TRIPOS>ATOM
      1 C          31.6772   43.5492  -10.4254 C.3     1  UNL1       -0.0652
      2 C          30.6454   42.4925  -10.8314 C.3     1  UNL1       -0.0545
      3 C          30.0037   42.7956  -12.1970 C.3     1  UNL1       -0.0376
      4 C          28.9014   41.8004  -12.5989 C.3     1  UNL1        0.0116
      5 N          27.8634   41.6876  -11.5812 N.am    1  UNL1       -0.3151
      6 C          26.9074   42.5968  -11.3410 C.2     1  UNL1        0.2159
      7 O          26.7419   43.5810  -12.0628 O.2     1  UNL1       -0.2755
      8 C          26.0695   42.3927  -10.0605 C.3     1  UNL1        0.0351
      9 C          25.5603   40.9501   -9.9275 C.3     1  UNL1       -0.0540
     10 C          24.9519   43.4469   -9.8700 C.3     1  UNL1       -0.0143
     11 C          23.7787   43.4180  -10.8889 C.3     1  UNL1        0.0742
     12 C          22.6048   42.4370  -10.5836 C.3     1  UNL1        0.0493
     13 C          21.4704   42.5389  -11.6399 C.3     1  UNL1       -0.0295
     14 C          20.2571   41.5771  -11.5581 C.3     1  UNL1       -0.0418
     15 C          20.6791   40.0884  -11.4536 C.3     1  UNL1       -0.0464
     16 C          19.5384   39.0640  -11.2606 C.3     1  UNL1       -0.0274
     17 C          18.9625   39.0106   -9.8534 C.ar    1  UNL1       -0.0470
     18 C          17.5651   39.0061   -9.6574 C.ar    1  UNL1       -0.0586
     19 C          17.0339   39.0346   -8.3547 C.ar    1  UNL1       -0.0612
     20 C          17.8959   39.0925   -7.2428 C.ar    1  UNL1       -0.0570
     21 C          19.2942   39.0904   -7.4274 C.ar    1  UNL1       -0.0263
     22 C          19.8183   38.9945   -8.7312 C.ar    1  UNL1       -0.0538
     23 C          20.2167   39.1583   -6.2186 C.3     1  UNL1        0.0907
     24 S          21.5306   40.4611   -6.3220 S.O2    1  UNL1       -0.0263
     25 O          22.1731   40.5540   -5.0041 O.2     1  UNL1       -0.1740
     26 O          22.3749   40.2266   -7.5038 O.2     1  UNL1       -0.1740
     27 C          20.5640   42.0109   -6.6021 C.3     1  UNL1        0.0769
     28 C          21.4094   43.2614   -6.9682 C.3     1  UNL1        0.0520
     29 C          21.6428   43.4648   -8.4776 C.2     1  UNL1        0.2177
     30 O          21.3893   44.5569   -8.9876 O.2     1  UNL1       -0.2755
     31 N          22.1640   42.4444   -9.1791 N.am    1  UNL1       -0.3097
     32 C          22.7212   43.4219   -6.1799 C.3     1  UNL1       -0.0526
     33 C          19.2218   42.0454  -10.5224 C.3     1  UNL1       -0.0623
     34 O          23.2720   44.7337  -11.0266 O.3     1  UNL1       -0.3899
     35 H          26.7669   42.5547   -9.2403 H       1  UNL1        0.0392
     36 H          24.1761   43.1658  -11.8722 H       1  UNL1        0.0612
     37 H          23.0260   41.4460  -10.7066 H       1  UNL1        0.0524
     38 H          19.7442   41.6752  -12.5154 H       1  UNL1        0.0299
     39 H          20.7875   44.1101   -6.6797 H       1  UNL1        0.0407
     40 H          32.0590   43.3517   -9.4249 H       1  UNL1        0.0230
     41 H          31.2346   44.5490  -10.4111 H       1  UNL1        0.0230
     42 H          32.5218   43.5643  -11.1165 H       1  UNL1        0.0230
     43 H          31.1155   41.5109  -10.8577 H       1  UNL1        0.0263
     44 H          29.8793   42.4501  -10.0574 H       1  UNL1        0.0263
     45 H          29.5870   43.8018  -12.1848 H       1  UNL1        0.0280
     46 H          30.7736   42.7993  -12.9681 H       1  UNL1        0.0280
     47 H          28.4614   42.0997  -13.5493 H       1  UNL1        0.0462
     48 H          29.3302   40.8102  -12.7567 H       1  UNL1        0.0462
     49 H          27.9079   40.8693  -10.9855 H       1  UNL1        0.1487
     50 H          26.3839   40.2555   -9.7460 H       1  UNL1        0.0237
     51 H          25.0483   40.6112  -10.8290 H       1  UNL1        0.0237
     52 H          24.8657   40.8455   -9.0921 H       1  UNL1        0.0237
     53 H          24.5790   43.3988   -8.8481 H       1  UNL1        0.0298
     54 H          25.4302   44.4287   -9.9262 H       1  UNL1        0.0298
     55 H          21.0903   43.5624  -11.6762 H       1  UNL1        0.0286
     56 H          21.9518   42.3698  -12.6032 H       1  UNL1        0.0286
     57 H          21.1922   39.8396  -12.3823 H       1  UNL1        0.0271
     58 H          21.4293   39.9482  -10.6804 H       1  UNL1        0.0271
     59 H          18.7443   39.2701  -11.9779 H       1  UNL1        0.0313
     60 H          19.9133   38.0690  -11.4889 H       1  UNL1        0.0313
     61 H          16.8964   38.9924  -10.5044 H       1  UNL1        0.0620
     62 H          15.9653   39.0273   -8.2004 H       1  UNL1        0.0618
     63 H          17.4691   39.1298   -6.2497 H       1  UNL1        0.0621
     64 H          20.8838   38.9339   -8.8747 H       1  UNL1        0.0623
     65 H          19.6334   39.3516   -5.3190 H       1  UNL1        0.0549
     66 H          20.7092   38.1958   -6.1095 H       1  UNL1        0.0549
     67 H          19.7984   41.8132   -7.3495 H       1  UNL1        0.0507
     68 H          20.0256   42.1991   -5.6736 H       1  UNL1        0.0507
     69 H          22.3225   41.5830   -8.6636 H       1  UNL1        0.1491
     70 H          23.1903   44.3851   -6.3846 H       1  UNL1        0.0237
     71 H          23.4473   42.6483   -6.4325 H       1  UNL1        0.0237
     72 H          22.5390   43.3716   -5.1061 H       1  UNL1        0.0237
     73 H          19.5192   41.7754   -9.5146 H       1  UNL1        0.0232
     74 H          18.2466   41.5968  -10.7090 H       1  UNL1        0.0232
     75 H          19.0836   43.1262  -10.5520 H       1  UNL1        0.0232
     76 H          22.6744   44.8803  -10.3017 H       1  UNL1        0.2099
@<TRIPOS>BOND
     1     1     2    1
     2     1    40    1
     3     1    41    1
     4     1    42    1
     5     2     3    1
     6     2    43    1
     7     2    44    1
     8     3     4    1
     9     3    45    1
    10     3    46    1
    11     4     5    1
    12     4    47    1
    13     4    48    1
    14     5     6   am
    15     5    49    1
    16     6     7    2
    17     6     8    1
    18     8    35    1
    19     8     9    1
    20     8    10    1
    21     9    50    1
    22     9    51    1
    23     9    52    1
    24    10    11    1
    25    10    53    1
    26    10    54    1
    27    11    36    1
    28    11    12    1
    29    11    34    1
    30    12    37    1
    31    12    31    1
    32    12    13    1
    33    13    14    1
    34    13    55    1
    35    13    56    1
    36    14    38    1
    37    14    15    1
    38    14    33    1
    39    15    16    1
    40    15    57    1
    41    15    58    1
    42    16    17    1
    43    16    59    1
    44    16    60    1
    45    17    22   ar
    46    17    18   ar
    47    18    19   ar
    48    18    61    1
    49    19    20   ar
    50    19    62    1
    51    20    21   ar
    52    20    63    1
    53    21    22   ar
    54    21    23    1
    55    22    64    1
    56    23    24    1
    57    23    65    1
    58    23    66    1
    59    24    25    2
    60    24    26    2
    61    24    27    1
    62    27    28    1
    63    27    67    1
    64    27    68    1
    65    28    39    1
    66    28    29    1
    67    28    32    1
    68    29    30    2
    69    29    31   am
    70    31    69    1
    71    32    70    1
    72    32    71    1
    73    32    72    1
    74    33    73    1
    75    33    74    1
    76    33    75    1
    77    34    76    1
