@<TRIPOS>MOLECULE
BACE_4.smi:1
 90 92 0 0 0
SMALL
GASTEIGER
****
Structure written by MMmdl.
@<TRIPOS>ATOM
      1 C          19.1332   39.8872  -11.0263 C.3     1  UNL1       -0.0624
      2 C          20.1612   39.4652   -9.9492 C.3     1  UNL1       -0.0421
      3 C          19.7331   38.1948   -9.1694 C.3     1  UNL1       -0.0504
      4 C          18.2218   37.9343   -8.9769 C.3     1  UNL1       -0.0528
      5 C          17.4829   38.9529   -8.0944 C.3     1  UNL1       -0.0530
      6 C          15.9596   38.7465   -8.1525 C.3     1  UNL1       -0.0510
      7 C          15.1493   39.7681   -7.3397 C.3     1  UNL1       -0.0294
      8 C          15.2719   41.2094   -7.8554 C.3     1  UNL1        0.0483
      9 O          14.8294   41.2886   -9.2051 O.3     1  UNL1       -0.3706
     10 C          14.7480   42.6100   -9.7262 C.3     1  UNL1        0.1238
     11 C          16.1059   43.0470  -10.3083 C.2     1  UNL1        0.2417
     12 O          16.4402   42.5461  -11.3858 O.2     1  UNL1       -0.2731
     13 N          16.8742   43.9659   -9.6640 N.am    1  UNL1       -0.2914
     14 C          18.1741   44.3851  -10.2467 C.3     1  UNL1        0.0991
     15 C          19.3515   43.7634   -9.4763 C.2     1  UNL1        0.2336
     16 O          19.7012   44.2168   -8.3856 O.2     1  UNL1       -0.2738
     17 N          19.9579   42.7221  -10.0667 N.am    1  UNL1       -0.3083
     18 C          21.0911   41.9619   -9.5395 C.3     1  UNL1        0.0543
     19 C          20.6336   40.5857   -8.9792 C.3     1  UNL1       -0.0293
     20 C          22.2793   42.0188  -10.5446 C.3     1  UNL1        0.1130
     21 C          23.6529   41.7048   -9.8950 C.3     1  UNL1       -0.0044
     22 N          24.8023   41.7501  -10.8399 N.4     1  UNL1        0.2365
     23 C          25.4383   43.0398  -11.2543 C.3     1  UNL1        0.0145
     24 C          24.5785   43.7962  -12.2545 C.3     1  UNL1        0.0032
     25 C          24.7543   44.3360  -10.8485 C.3     1  UNL1        0.0032
     26 C          26.9333   42.9441  -11.5027 C.ar    1  UNL1        0.0035
     27 C          27.6917   41.8074  -11.1360 C.ar    1  UNL1       -0.0529
     28 C          29.0706   41.7501  -11.4069 C.ar    1  UNL1       -0.0610
     29 C          29.7225   42.8123  -12.0496 C.ar    1  UNL1       -0.0580
     30 C          29.0014   43.9692  -12.4214 C.ar    1  UNL1       -0.0415
     31 C          27.6162   44.0130  -12.1326 C.ar    1  UNL1       -0.0493
     32 C          29.6691   45.1612  -13.1337 C.3     1  UNL1       -0.0127
     33 C          29.4749   46.4453  -12.3019 C.3     1  UNL1       -0.0560
     34 C          31.1886   44.9659  -13.3395 C.3     1  UNL1       -0.0560
     35 C          29.0331   45.3504  -14.5247 C.3     1  UNL1       -0.0560
     36 O          22.0599   41.1482  -11.6396 O.3     1  UNL1       -0.3847
     37 C          18.2941   45.9261  -10.2891 C.3     1  UNL1       -0.0379
     38 C          16.4759   44.5579   -8.3737 C.3     1  UNL1        0.0040
     39 H          21.0527   39.1535  -10.4935 H       1  UNL1        0.0299
     40 H          18.2621   44.0700  -11.2878 H       1  UNL1        0.0594
     41 H          21.4507   42.5074   -8.6646 H       1  UNL1        0.0526
     42 H          22.2824   43.0336  -10.9330 H       1  UNL1        0.0666
     43 H          18.8430   39.0331  -11.6391 H       1  UNL1        0.0232
     44 H          19.5353   40.6288  -11.7141 H       1  UNL1        0.0232
     45 H          18.2276   40.3077  -10.5905 H       1  UNL1        0.0232
     46 H          20.1283   37.3499   -9.7256 H       1  UNL1        0.0268
     47 H          20.2350   38.1509   -8.2026 H       1  UNL1        0.0268
     48 H          18.0952   36.9465   -8.5314 H       1  UNL1        0.0265
     49 H          17.7361   37.8668   -9.9497 H       1  UNL1        0.0265
     50 H          17.8349   38.8760   -7.0643 H       1  UNL1        0.0265
     51 H          17.7173   39.9609   -8.4265 H       1  UNL1        0.0265
     52 H          15.7206   37.7500   -7.7844 H       1  UNL1        0.0266
     53 H          15.6232   38.7693   -9.1894 H       1  UNL1        0.0266
     54 H          14.0975   39.4772   -7.3575 H       1  UNL1        0.0287
     55 H          15.4534   39.7271   -6.2915 H       1  UNL1        0.0287
     56 H          16.2988   41.5613   -7.7627 H       1  UNL1        0.0560
     57 H          14.6507   41.8571   -7.2403 H       1  UNL1        0.0560
     58 H          14.3172   43.3075   -9.0097 H       1  UNL1        0.0657
     59 H          14.0397   42.5780  -10.5542 H       1  UNL1        0.0657
     60 H          19.5867   42.4013  -10.9501 H       1  UNL1        0.1491
     61 H          21.4557   40.1840   -8.3844 H       1  UNL1        0.0286
     62 H          19.8405   40.7763   -8.2564 H       1  UNL1        0.0286
     63 H          23.6179   40.6905   -9.4938 H       1  UNL1        0.0840
     64 H          23.8497   42.3528   -9.0408 H       1  UNL1        0.0840
     65 H          24.5433   41.2477  -11.6875 H       1  UNL1        0.2023
     66 H          25.0578   44.3560  -13.0530 H       1  UNL1        0.0329
     67 H          23.6179   43.3799  -12.5429 H       1  UNL1        0.0329
     68 H          23.8832   44.3359  -10.2018 H       1  UNL1        0.0329
     69 H          25.3826   45.2161  -10.7333 H       1  UNL1        0.0329
     70 H          27.2472   40.9523  -10.6503 H       1  UNL1        0.0622
     71 H          29.6309   40.8662  -11.1369 H       1  UNL1        0.0618
     72 H          30.7788   42.7075  -12.2456 H       1  UNL1        0.0620
     73 H          27.0691   44.8978  -12.4148 H       1  UNL1        0.0625
     74 H          28.4243   46.7087  -12.1860 H       1  UNL1        0.0238
     75 H          29.9660   47.2986  -12.7710 H       1  UNL1        0.0238
     76 H          29.8969   46.3362  -11.3031 H       1  UNL1        0.0238
     77 H          31.4064   44.0963  -13.9599 H       1  UNL1        0.0238
     78 H          31.7113   44.8463  -12.3902 H       1  UNL1        0.0238
     79 H          31.6324   45.8288  -13.8369 H       1  UNL1        0.0238
     80 H          29.1582   44.4577  -15.1368 H       1  UNL1        0.0238
     81 H          29.4892   46.1832  -15.0606 H       1  UNL1        0.0238
     82 H          27.9641   45.5566  -14.4629 H       1  UNL1        0.0238
     83 H          22.7143   41.2614  -12.3176 H       1  UNL1        0.2101
     84 H          19.1929   46.2239  -10.8293 H       1  UNL1        0.0252
     85 H          18.3563   46.3837   -9.3024 H       1  UNL1        0.0252
     86 H          17.4451   46.3679  -10.8095 H       1  UNL1        0.0252
     87 H          17.2918   45.0819   -7.8789 H       1  UNL1        0.0429
     88 H          16.1426   43.8128   -7.6540 H       1  UNL1        0.0429
     89 H          15.6731   45.2790   -8.5190 H       1  UNL1        0.0429
     90 H          25.5326   41.2145  -10.3952 H       1  UNL1        0.2023
@<TRIPOS>BOND
     1     1     2    1
     2     1    43    1
     3     1    44    1
     4     1    45    1
     5     2    39    1
     6     2    19    1
     7     2     3    1
     8     3     4    1
     9     3    46    1
    10     3    47    1
    11     4     5    1
    12     4    48    1
    13     4    49    1
    14     5     6    1
    15     5    50    1
    16     5    51    1
    17     6     7    1
    18     6    52    1
    19     6    53    1
    20     7     8    1
    21     7    54    1
    22     7    55    1
    23     8     9    1
    24     8    56    1
    25     8    57    1
    26     9    10    1
    27    10    11    1
    28    10    58    1
    29    10    59    1
    30    11    12    2
    31    11    13   am
    32    13    14    1
    33    13    38    1
    34    14    40    1
    35    14    15    1
    36    14    37    1
    37    15    16    2
    38    15    17   am
    39    17    18    1
    40    17    60    1
    41    18    41    1
    42    18    19    1
    43    18    20    1
    44    19    61    1
    45    19    62    1
    46    20    42    1
    47    20    21    1
    48    20    36    1
    49    21    22    1
    50    21    63    1
    51    21    64    1
    52    22    23    1
    53    22    65    1
    54    22    90    1
    55    23    25    1
    56    23    24    1
    57    23    26    1
    58    24    25    1
    59    24    66    1
    60    24    67    1
    61    25    68    1
    62    25    69    1
    63    26    31   ar
    64    26    27   ar
    65    27    28   ar
    66    27    70    1
    67    28    29   ar
    68    28    71    1
    69    29    30   ar
    70    29    72    1
    71    30    31   ar
    72    30    32    1
    73    31    73    1
    74    32    33    1
    75    32    34    1
    76    32    35    1
    77    33    74    1
    78    33    75    1
    79    33    76    1
    80    34    77    1
    81    34    78    1
    82    34    79    1
    83    35    80    1
    84    35    81    1
    85    35    82    1
    86    36    83    1
    87    37    84    1
    88    37    85    1
    89    37    86    1
    90    38    87    1
    91    38    88    1
    92    38    89    1
