@<TRIPOS>MOLECULE
BACE_10.smi:1
 86 88 0 0 0
SMALL
GASTEIGER
****
Structure written by MMmdl.
@<TRIPOS>ATOM
      1 C          20.4445   38.7804   -6.9980 C.3     1  UNL1       -0.0623
      2 C          19.8621   39.5060   -8.2246 C.3     1  UNL1       -0.0400
      3 C          19.2795   38.4880   -9.2379 C.3     1  UNL1       -0.0268
      4 C          17.9300   37.8976   -8.8036 C.3     1  UNL1        0.0479
      5 O          17.0552   38.9916   -8.6107 O.3     1  UNL1       -0.3797
      6 C          15.7307   38.6412   -8.2589 C.3     1  UNL1        0.0477
      7 C          15.1190   39.8104   -7.4756 C.3     1  UNL1       -0.0281
      8 C          15.3058   41.1781   -8.1540 C.3     1  UNL1       -0.0354
      9 C          14.7202   41.2350   -9.5727 C.3     1  UNL1        0.0092
     10 N          14.8689   42.5526  -10.1730 N.pl3   1  UNL1       -0.3438
     11 C          16.0425   42.9516  -10.8281 C.ar    1  UNL1        0.0282
     12 C          16.0775   44.2597  -11.3491 C.ar    1  UNL1       -0.0355
     13 C          17.1918   44.7162  -12.0789 C.ar    1  UNL1       -0.0195
     14 C          18.2878   43.8554  -12.2820 C.ar    1  UNL1       -0.0442
     15 C          18.2805   42.5497  -11.7500 C.ar    1  UNL1        0.0388
     16 C          17.1609   42.1014  -11.0159 C.ar    1  UNL1       -0.0287
     17 C          19.4072   41.6139  -12.0704 C.2     1  UNL1        0.2444
     18 O          19.6602   41.3500  -13.2400 O.2     1  UNL1       -0.2702
     19 N          20.1281   41.0681  -11.0820 N.am    1  UNL1       -0.3058
     20 C          20.3612   41.5981   -9.7394 C.3     1  UNL1        0.0545
     21 C          20.9161   40.4624   -8.8318 C.3     1  UNL1       -0.0292
     22 C          21.3425   42.8190   -9.7824 C.3     1  UNL1        0.1130
     23 C          22.4422   42.8197  -10.8809 C.3     1  UNL1       -0.0050
     24 N          23.3046   41.6206  -10.8387 N.4     1  UNL1        0.2321
     25 C          24.2898   41.5825   -9.7360 C.3     1  UNL1       -0.0076
     26 C          25.5938   42.2540  -10.1056 C.ar    1  UNL1       -0.0027
     27 C          26.5435   41.5586  -10.8803 C.ar    1  UNL1       -0.0535
     28 C          27.7756   42.1597  -11.1955 C.ar    1  UNL1       -0.0611
     29 C          28.0646   43.4574  -10.7319 C.ar    1  UNL1       -0.0583
     30 C          27.1217   44.1621   -9.9522 C.ar    1  UNL1       -0.0444
     31 C          25.8847   43.5541   -9.6428 C.ar    1  UNL1       -0.0501
     32 C          27.4493   45.5569   -9.4359 C.3     1  UNL1       -0.0215
     33 C          27.5740   45.5731   -7.9042 C.3     1  UNL1       -0.0586
     34 C          26.4374   46.6002   -9.9337 C.3     1  UNL1       -0.0586
     35 O          20.5943   44.0095   -9.9186 O.3     1  UNL1       -0.3847
     36 C          17.2215   46.1316  -12.6264 C.3     1  UNL1        0.0724
     37 O          15.9396   46.5695  -13.0575 O.3     1  UNL1       -0.3784
     38 C          15.9719   47.8787  -13.5986 C.3     1  UNL1        0.0369
     39 H          19.0541   40.1376   -7.8515 H       1  UNL1        0.0299
     40 H          19.4161   41.9233   -9.3010 H       1  UNL1        0.0526
     41 H          21.8188   42.9275   -8.8081 H       1  UNL1        0.0666
     42 H          21.2902   38.1494   -7.2712 H       1  UNL1        0.0232
     43 H          19.6994   38.1491   -6.5142 H       1  UNL1        0.0232
     44 H          20.7899   39.4891   -6.2453 H       1  UNL1        0.0232
     45 H          19.1077   38.9550  -10.2033 H       1  UNL1        0.0290
     46 H          19.9963   37.6868   -9.4192 H       1  UNL1        0.0290
     47 H          17.5390   37.2349   -9.5772 H       1  UNL1        0.0560
     48 H          18.0258   37.3166   -7.8854 H       1  UNL1        0.0560
     49 H          15.1598   38.4147   -9.1597 H       1  UNL1        0.0560
     50 H          15.7068   37.7498   -7.6400 H       1  UNL1        0.0560
     51 H          14.0599   39.6162   -7.3082 H       1  UNL1        0.0288
     52 H          15.5712   39.8493   -6.4834 H       1  UNL1        0.0288
     53 H          14.8368   41.9399   -7.5295 H       1  UNL1        0.0281
     54 H          16.3668   41.4262   -8.1803 H       1  UNL1        0.0281
     55 H          15.1622   40.4762  -10.2174 H       1  UNL1        0.0461
     56 H          13.6594   40.9984   -9.5358 H       1  UNL1        0.0461
     57 H          14.1280   43.2187  -10.0157 H       1  UNL1        0.1461
     58 H          15.2352   44.9207  -11.2023 H       1  UNL1        0.0639
     59 H          19.1447   44.2034  -12.8398 H       1  UNL1        0.0628
     60 H          17.1623   41.0909  -10.6332 H       1  UNL1        0.0643
     61 H          20.7198   40.3034  -11.3678 H       1  UNL1        0.1494
     62 H          21.4287   40.9297   -7.9905 H       1  UNL1        0.0286
     63 H          21.6826   39.8826   -9.3470 H       1  UNL1        0.0286
     64 H          21.9893   42.8733  -11.8713 H       1  UNL1        0.0840
     65 H          23.0651   43.7118  -10.7946 H       1  UNL1        0.0840
     66 H          22.7034   40.8174  -10.7382 H       1  UNL1        0.2018
     67 H          23.8861   42.0036   -8.8152 H       1  UNL1        0.0866
     68 H          24.5114   40.5469   -9.5056 H       1  UNL1        0.0866
     69 H          26.3392   40.5572  -11.2340 H       1  UNL1        0.0622
     70 H          28.5025   41.6187  -11.7858 H       1  UNL1        0.0618
     71 H          29.0163   43.9068  -10.9727 H       1  UNL1        0.0620
     72 H          25.1653   44.0826   -9.0350 H       1  UNL1        0.0625
     73 H          28.4229   45.8396   -9.8393 H       1  UNL1        0.0343
     74 H          28.3390   44.8725   -7.5678 H       1  UNL1        0.0235
     75 H          26.6367   45.2977   -7.4200 H       1  UNL1        0.0235
     76 H          27.8548   46.5626   -7.5436 H       1  UNL1        0.0235
     77 H          26.3894   46.6065  -11.0242 H       1  UNL1        0.0235
     78 H          26.7189   47.6023   -9.6119 H       1  UNL1        0.0235
     79 H          25.4329   46.4031   -9.5579 H       1  UNL1        0.0235
     80 H          19.9580   44.0555   -9.2186 H       1  UNL1        0.2101
     81 H          17.5975   46.7950  -11.8454 H       1  UNL1        0.0610
     82 H          17.9274   46.1800  -13.4572 H       1  UNL1        0.0610
     83 H          14.9718   48.1668  -13.9232 H       1  UNL1        0.0524
     84 H          16.6323   47.9305  -14.4646 H       1  UNL1        0.0524
     85 H          16.3095   48.6041  -12.8572 H       1  UNL1        0.0524
     86 H          23.7939   41.5117  -11.7246 H       1  UNL1        0.2018
@<TRIPOS>BOND
     1     1     2    1
     2     1    42    1
     3     1    43    1
     4     1    44    1
     5     2    39    1
     6     2    21    1
     7     2     3    1
     8     3     4    1
     9     3    45    1
    10     3    46    1
    11     4     5    1
    12     4    47    1
    13     4    48    1
    14     5     6    1
    15     6     7    1
    16     6    49    1
    17     6    50    1
    18     7     8    1
    19     7    51    1
    20     7    52    1
    21     8     9    1
    22     8    53    1
    23     8    54    1
    24     9    10    1
    25     9    55    1
    26     9    56    1
    27    10    11    1
    28    10    57    1
    29    11    16   ar
    30    11    12   ar
    31    12    13   ar
    32    12    58    1
    33    13    14   ar
    34    13    36    1
    35    14    15   ar
    36    14    59    1
    37    15    16   ar
    38    15    17    1
    39    16    60    1
    40    17    18    2
    41    17    19   am
    42    19    20    1
    43    19    61    1
    44    20    40    1
    45    20    21    1
    46    20    22    1
    47    21    62    1
    48    21    63    1
    49    22    41    1
    50    22    23    1
    51    22    35    1
    52    23    24    1
    53    23    64    1
    54    23    65    1
    55    24    25    1
    56    24    66    1
    57    24    86    1
    58    25    26    1
    59    25    67    1
    60    25    68    1
    61    26    31   ar
    62    26    27   ar
    63    27    28   ar
    64    27    69    1
    65    28    29   ar
    66    28    70    1
    67    29    30   ar
    68    29    71    1
    69    30    31   ar
    70    30    32    1
    71    31    72    1
    72    32    33    1
    73    32    34    1
    74    32    73    1
    75    33    74    1
    76    33    75    1
    77    33    76    1
    78    34    77    1
    79    34    78    1
    80    34    79    1
    81    35    80    1
    82    36    37    1
    83    36    81    1
    84    36    82    1
    85    37    38    1
    86    38    83    1
    87    38    84    1
    88    38    85    1
