@<TRIPOS>MOLECULE
BACE_5.smi:1
 79 80 0 0 0
SMALL
GASTEIGER
****
Structure written by MMmdl.
@<TRIPOS>ATOM
      1 C          22.4368   43.7798    0.8203 C.3     1  UNL1       -0.0649
      2 C          20.9719   43.3240    0.8195 C.3     1  UNL1       -0.0505
      3 C          20.2773   43.5093   -0.5341 C.3     1  UNL1       -0.0112
      4 C          20.7062   42.5503   -1.5983 C.ar    1  UNL1        0.0364
      5 C          21.7152   42.5907   -2.5182 C.ar    1  UNL1       -0.0168
      6 C          21.5710   41.3829   -3.2602 C.ar    1  UNL1        0.0768
      7 N          20.5528   40.6525   -2.8405 N.ar    1  UNL1       -0.1774
      8 N          20.0562   41.3570   -1.8073 N.ar    1  UNL1       -0.2813
      9 C          22.4031   40.8973   -4.4104 C.3     1  UNL1        0.0403
     10 N          21.8665   41.3039   -5.7102 N.3     1  UNL1       -0.3080
     11 C          21.9815   42.7329   -6.0137 C.3     1  UNL1        0.0240
     12 C          20.6378   43.5051   -5.9206 C.3     1  UNL1        0.0859
     13 C          19.7244   43.3283   -7.1699 C.3     1  UNL1        0.0505
     14 C          18.4896   44.2740   -7.2041 C.3     1  UNL1       -0.0295
     15 C          18.1957   44.8703   -8.6045 C.3     1  UNL1       -0.0421
     16 C          16.8002   45.5355   -8.6847 C.3     1  UNL1       -0.0504
     17 C          15.5925   44.5875   -8.5688 C.3     1  UNL1       -0.0528
     18 C          15.4409   43.5928   -9.7247 C.3     1  UNL1       -0.0530
     19 C          14.1850   42.7242   -9.5536 C.3     1  UNL1       -0.0510
     20 C          13.9473   41.7479  -10.7154 C.3     1  UNL1       -0.0294
     21 C          14.8934   40.5402  -10.7060 C.3     1  UNL1        0.0483
     22 O          14.5152   39.6836   -9.6398 O.3     1  UNL1       -0.3706
     23 C          15.4520   38.6636   -9.3218 C.3     1  UNL1        0.1238
     24 C          16.6053   39.2490   -8.4855 C.2     1  UNL1        0.2417
     25 O          16.3102   39.7730   -7.4106 O.2     1  UNL1       -0.2731
     26 N          17.8898   39.1869   -8.9268 N.am    1  UNL1       -0.2914
     27 C          18.9799   39.6568   -8.0346 C.3     1  UNL1        0.0991
     28 C          19.3216   41.1329   -8.3030 C.2     1  UNL1        0.2336
     29 O          19.6700   41.5071   -9.4235 O.2     1  UNL1       -0.2738
     30 N          19.2606   41.9458   -7.2404 N.am    1  UNL1       -0.3084
     31 C          20.2675   38.8144   -8.1917 C.3     1  UNL1       -0.0379
     32 C          18.2200   38.7812  -10.3041 C.3     1  UNL1        0.0040
     33 C          19.2654   45.9050   -9.0075 C.3     1  UNL1       -0.0624
     34 O          20.9947   44.8717   -5.8189 O.3     1  UNL1       -0.3887
     35 H          19.2315   41.0458   -1.3002 H       1  UNL1        0.1885
     36 H          20.0992   43.2360   -5.0104 H       1  UNL1        0.0624
     37 H          20.3510   43.5275   -8.0385 H       1  UNL1        0.0524
     38 H          18.2338   44.0623   -9.3359 H       1  UNL1        0.0299
     39 H          18.6839   39.5416   -6.9881 H       1  UNL1        0.0594
     40 H          22.9332   43.5091    1.7536 H       1  UNL1        0.0230
     41 H          22.4982   44.8629    0.7103 H       1  UNL1        0.0230
     42 H          22.9984   43.3506   -0.0047 H       1  UNL1        0.0230
     43 H          20.4600   43.9340    1.5602 H       1  UNL1        0.0266
     44 H          20.8646   42.2934    1.1596 H       1  UNL1        0.0266
     45 H          20.4598   44.5356   -0.8400 H       1  UNL1        0.0328
     46 H          19.1960   43.4285   -0.4265 H       1  UNL1        0.0328
     47 H          22.4505   43.3702   -2.6528 H       1  UNL1        0.0654
     48 H          22.4584   39.8089   -4.3741 H       1  UNL1        0.0489
     49 H          23.4306   41.2448   -4.3014 H       1  UNL1        0.0489
     50 H          20.8883   41.0320   -5.7507 H       1  UNL1        0.1224
     51 H          22.3900   42.8547   -7.0165 H       1  UNL1        0.0450
     52 H          22.7180   43.1905   -5.3500 H       1  UNL1        0.0450
     53 H          17.6259   43.7214   -6.8368 H       1  UNL1        0.0286
     54 H          18.5990   45.0961   -6.4972 H       1  UNL1        0.0286
     55 H          16.7285   46.2933   -7.9037 H       1  UNL1        0.0268
     56 H          16.7123   46.0761   -9.6282 H       1  UNL1        0.0268
     57 H          14.6903   45.1945   -8.5042 H       1  UNL1        0.0265
     58 H          15.6361   44.0309   -7.6401 H       1  UNL1        0.0265
     59 H          15.3935   44.1335  -10.6709 H       1  UNL1        0.0265
     60 H          16.3217   42.9541   -9.7722 H       1  UNL1        0.0265
     61 H          13.3154   43.3766   -9.4664 H       1  UNL1        0.0266
     62 H          14.2408   42.1714   -8.6126 H       1  UNL1        0.0266
     63 H          12.9213   41.3865  -10.6485 H       1  UNL1        0.0287
     64 H          14.0271   42.2844  -11.6590 H       1  UNL1        0.0287
     65 H          15.9275   40.8728  -10.6227 H       1  UNL1        0.0560
     66 H          14.8039   39.9842  -11.6401 H       1  UNL1        0.0560
     67 H          15.7653   38.1194  -10.2128 H       1  UNL1        0.0657
     68 H          14.9378   37.9354   -8.6920 H       1  UNL1        0.0657
     69 H          18.8506   41.5707   -6.3858 H       1  UNL1        0.1491
     70 H          20.9598   39.0200   -7.3748 H       1  UNL1        0.0252
     71 H          20.8126   39.0135   -9.1141 H       1  UNL1        0.0252
     72 H          20.0435   37.7500   -8.1545 H       1  UNL1        0.0252
     73 H          19.2402   39.0284  -10.5971 H       1  UNL1        0.0429
     74 H          17.5860   39.2926  -11.0300 H       1  UNL1        0.0429
     75 H          18.0901   37.7042  -10.4348 H       1  UNL1        0.0429
     76 H          19.0529   46.3235   -9.9905 H       1  UNL1        0.0232
     77 H          20.2629   45.4706   -9.0604 H       1  UNL1        0.0232
     78 H          19.3023   46.7302   -8.2972 H       1  UNL1        0.0232
     79 H          21.4904   45.1071   -6.5879 H       1  UNL1        0.2099
@<TRIPOS>BOND
     1     1     2    1
     2     1    40    1
     3     1    41    1
     4     1    42    1
     5     2     3    1
     6     2    43    1
     7     2    44    1
     8     3     4    1
     9     3    45    1
    10     3    46    1
    11     4     8   ar
    12     4     5   ar
    13     5     6   ar
    14     5    47    1
    15     6     7   ar
    16     6     9    1
    17     7     8   ar
    18     8    35    1
    19     9    10    1
    20     9    48    1
    21     9    49    1
    22    10    11    1
    23    10    50    1
    24    11    12    1
    25    11    51    1
    26    11    52    1
    27    12    36    1
    28    12    13    1
    29    12    34    1
    30    13    37    1
    31    13    30    1
    32    13    14    1
    33    14    15    1
    34    14    53    1
    35    14    54    1
    36    15    38    1
    37    15    16    1
    38    15    33    1
    39    16    17    1
    40    16    55    1
    41    16    56    1
    42    17    18    1
    43    17    57    1
    44    17    58    1
    45    18    19    1
    46    18    59    1
    47    18    60    1
    48    19    20    1
    49    19    61    1
    50    19    62    1
    51    20    21    1
    52    20    63    1
    53    20    64    1
    54    21    22    1
    55    21    65    1
    56    21    66    1
    57    22    23    1
    58    23    24    1
    59    23    67    1
    60    23    68    1
    61    24    25    2
    62    24    26   am
    63    26    27    1
    64    26    32    1
    65    27    39    1
    66    27    28    1
    67    27    31    1
    68    28    29    2
    69    28    30   am
    70    30    69    1
    71    31    70    1
    72    31    71    1
    73    31    72    1
    74    32    73    1
    75    32    74    1
    76    32    75    1
    77    33    76    1
    78    33    77    1
    79    33    78    1
    80    34    79    1
