@<TRIPOS>MOLECULE
BACE_15.smi:1
 83 86 0 0 0
SMALL
GASTEIGER
****
Structure written by MMmdl.
@<TRIPOS>ATOM
      1 C          20.1146   38.3587   -7.6174 C.3     1  UNL1       -0.0586
      2 C          19.2989   37.9976   -8.8702 C.3     1  UNL1       -0.0215
      3 C          19.7896   38.8114  -10.0781 C.3     1  UNL1       -0.0586
      4 C          17.7875   38.1312   -8.7012 C.ar    1  UNL1       -0.0444
      5 C          16.9271   37.5246   -9.6399 C.ar    1  UNL1       -0.0583
      6 C          15.5347   37.7108   -9.5806 C.ar    1  UNL1       -0.0611
      7 C          14.9819   38.5362   -8.5905 C.ar    1  UNL1       -0.0535
      8 C          15.8267   39.1249   -7.6367 C.ar    1  UNL1       -0.0027
      9 C          17.2182   38.8959   -7.6634 C.ar    1  UNL1       -0.0501
     10 C          15.2550   40.1059   -6.6471 C.3     1  UNL1       -0.0076
     11 N          15.2622   41.4618   -7.2400 N.4     1  UNL1        0.2321
     12 C          16.5905   41.9615   -7.6853 C.3     1  UNL1       -0.0049
     13 C          16.6216   43.3773   -8.3215 C.3     1  UNL1        0.1133
     14 C          17.5143   44.4205   -7.5906 C.3     1  UNL1        0.0583
     15 C          17.7855   45.6844   -8.4479 C.3     1  UNL1       -0.0065
     16 C          18.7288   46.6824   -7.7919 C.ar    1  UNL1       -0.0421
     17 C          18.2787   47.4645   -6.7089 C.ar    1  UNL1       -0.0583
     18 C          19.1593   48.3508   -6.0683 C.ar    1  UNL1       -0.0580
     19 C          20.4906   48.4622   -6.5078 C.ar    1  UNL1       -0.0199
     20 C          20.9578   47.6977   -7.5965 C.ar    1  UNL1        0.1208
     21 C          20.0609   46.8142   -8.2463 C.ar    1  UNL1       -0.0167
     22 O          22.2835   47.8729   -7.9341 O.3     1  UNL1       -0.4920
     23 C          22.8683   47.0868   -8.9647 C.3     1  UNL1        0.0897
     24 C          24.3752   47.0166   -8.6772 C.3     1  UNL1       -0.0156
     25 C          24.6915   46.1400   -7.4507 C.3     1  UNL1       -0.0156
     26 C          24.9176   44.6583   -7.7984 C.3     1  UNL1        0.0897
     27 O          24.7082   43.8396   -6.6502 O.3     1  UNL1       -0.4919
     28 C          23.4247   43.4619   -6.3062 C.ar    1  UNL1        0.1215
     29 C          23.2582   42.8666   -5.0388 C.ar    1  UNL1       -0.0145
     30 C          21.9975   42.3861   -4.6185 C.ar    1  UNL1       -0.0178
     31 C          20.8824   42.5391   -5.4661 C.ar    1  UNL1       -0.0440
     32 C          21.0135   43.1745   -6.7201 C.ar    1  UNL1        0.0405
     33 C          22.2861   43.6120   -7.1395 C.ar    1  UNL1       -0.0078
     34 C          19.8236   43.3904   -7.6126 C.2     1  UNL1        0.2445
     35 O          19.8911   43.2311   -8.8307 O.2     1  UNL1       -0.2702
     36 N          18.7449   43.8842   -6.9865 N.am    1  UNL1       -0.3055
     37 C          21.8534   41.6819   -3.2777 C.3     1  UNL1        0.0725
     38 O          21.4811   42.5444   -2.2109 O.3     1  UNL1       -0.3784
     39 C          20.0949   42.8490   -2.1678 C.3     1  UNL1        0.0369
     40 O          15.3107   43.9049   -8.4398 O.3     1  UNL1       -0.3847
     41 H          17.0039   43.2695   -9.3381 H       1  UNL1        0.0666
     42 H          16.9492   44.7420   -6.7213 H       1  UNL1        0.0529
     43 H          19.7926   37.7792   -6.7532 H       1  UNL1        0.0235
     44 H          20.0314   39.4160   -7.3651 H       1  UNL1        0.0235
     45 H          21.1713   38.1496   -7.7748 H       1  UNL1        0.0235
     46 H          19.4886   36.9501   -9.0911 H       1  UNL1        0.0343
     47 H          19.2936   38.5030  -10.9975 H       1  UNL1        0.0235
     48 H          20.8603   38.6769  -10.2309 H       1  UNL1        0.0235
     49 H          19.6050   39.8777   -9.9409 H       1  UNL1        0.0235
     50 H          17.3515   36.9408  -10.4392 H       1  UNL1        0.0620
     51 H          14.8744   37.2442  -10.3017 H       1  UNL1        0.0618
     52 H          13.9150   38.7155   -8.5701 H       1  UNL1        0.0622
     53 H          17.8383   39.3833   -6.9259 H       1  UNL1        0.0625
     54 H          14.2289   39.8198   -6.4143 H       1  UNL1        0.0866
     55 H          15.8059   40.0891   -5.7087 H       1  UNL1        0.0866
     56 H          14.6324   41.4679   -8.0307 H       1  UNL1        0.2018
     57 H          17.2678   41.8884   -6.8455 H       1  UNL1        0.0840
     58 H          16.9933   41.3026   -8.4530 H       1  UNL1        0.0840
     59 H          18.2001   45.3945   -9.4136 H       1  UNL1        0.0332
     60 H          16.8484   46.1922   -8.6735 H       1  UNL1        0.0332
     61 H          17.2598   47.3803   -6.3663 H       1  UNL1        0.0620
     62 H          18.8245   48.9481   -5.2367 H       1  UNL1        0.0619
     63 H          21.1645   49.1388   -6.0032 H       1  UNL1        0.0654
     64 H          20.3734   46.2100   -9.0842 H       1  UNL1        0.0657
     65 H          22.4771   46.0737   -9.0180 H       1  UNL1        0.0696
     66 H          22.6825   47.5665   -9.9261 H       1  UNL1        0.0696
     67 H          24.9104   46.6419   -9.5498 H       1  UNL1        0.0299
     68 H          24.7461   48.0283   -8.5080 H       1  UNL1        0.0299
     69 H          25.5868   46.5133   -6.9534 H       1  UNL1        0.0299
     70 H          23.8926   46.2371   -6.7137 H       1  UNL1        0.0299
     71 H          24.3342   44.3335   -8.6608 H       1  UNL1        0.0696
     72 H          25.9547   44.5302   -8.1078 H       1  UNL1        0.0696
     73 H          24.1184   42.7503   -4.3958 H       1  UNL1        0.0657
     74 H          19.9279   42.1506   -5.1513 H       1  UNL1        0.0628
     75 H          22.3574   44.0639   -8.1143 H       1  UNL1        0.0662
     76 H          18.8300   43.9740   -5.9876 H       1  UNL1        0.1494
     77 H          21.1556   40.8487   -3.3614 H       1  UNL1        0.0610
     78 H          22.8148   41.2376   -3.0235 H       1  UNL1        0.0610
     79 H          19.8934   43.5229   -1.3346 H       1  UNL1        0.0524
     80 H          19.4936   41.9500   -2.0340 H       1  UNL1        0.0524
     81 H          19.7700   43.3537   -3.0735 H       1  UNL1        0.0524
     82 H          15.0019   44.0867   -7.5629 H       1  UNL1        0.2101
     83 H          14.8994   42.0858   -6.5208 H       1  UNL1        0.2018
@<TRIPOS>BOND
     1     1     2    1
     2     1    43    1
     3     1    44    1
     4     1    45    1
     5     2     3    1
     6     2     4    1
     7     2    46    1
     8     3    47    1
     9     3    48    1
    10     3    49    1
    11     4     9   ar
    12     4     5   ar
    13     5     6   ar
    14     5    50    1
    15     6     7   ar
    16     6    51    1
    17     7     8   ar
    18     7    52    1
    19     8     9   ar
    20     8    10    1
    21     9    53    1
    22    10    11    1
    23    10    54    1
    24    10    55    1
    25    11    12    1
    26    11    56    1
    27    11    83    1
    28    12    13    1
    29    12    57    1
    30    12    58    1
    31    13    41    1
    32    13    14    1
    33    13    40    1
    34    14    42    1
    35    14    36    1
    36    14    15    1
    37    15    16    1
    38    15    59    1
    39    15    60    1
    40    16    21   ar
    41    16    17   ar
    42    17    18   ar
    43    17    61    1
    44    18    19   ar
    45    18    62    1
    46    19    20   ar
    47    19    63    1
    48    20    21   ar
    49    20    22    1
    50    21    64    1
    51    22    23    1
    52    23    24    1
    53    23    65    1
    54    23    66    1
    55    24    25    1
    56    24    67    1
    57    24    68    1
    58    25    26    1
    59    25    69    1
    60    25    70    1
    61    26    27    1
    62    26    71    1
    63    26    72    1
    64    27    28    1
    65    28    33   ar
    66    28    29   ar
    67    29    30   ar
    68    29    73    1
    69    30    31   ar
    70    30    37    1
    71    31    32   ar
    72    31    74    1
    73    32    33   ar
    74    32    34    1
    75    33    75    1
    76    34    35    2
    77    34    36   am
    78    36    76    1
    79    37    38    1
    80    37    77    1
    81    37    78    1
    82    38    39    1
    83    39    79    1
    84    39    80    1
    85    39    81    1
    86    40    82    1
