@<TRIPOS>MOLECULE
BACE_20.smi:1
 78 79 0 0 0
SMALL
GASTEIGER
****
Structure written by MMmdl.
@<TRIPOS>ATOM
      1 C          24.8601   51.7612   -0.7306 C.3     1  UNL1       -0.0652
      2 C          25.6927   50.6026   -0.1732 C.3     1  UNL1       -0.0545
      3 C          25.5952   49.3284   -1.0198 C.3     1  UNL1       -0.0377
      4 C          26.2405   49.4666   -2.4081 C.3     1  UNL1        0.0104
      5 N          26.0061   48.2949   -3.2405 N.pl3   1  UNL1       -0.3289
      6 C          24.7896   48.1069   -3.9136 C.ar    1  UNL1        0.1232
      7 C          24.6202   46.9502   -4.6926 C.ar    1  UNL1       -0.0095
      8 C          23.3897   46.7332   -5.3451 C.ar    1  UNL1        0.0450
      9 C          22.3830   47.7171   -5.2219 C.ar    1  UNL1        0.0122
     10 C          22.6451   48.8561   -4.4370 C.ar    1  UNL1        0.2168
     11 N          23.8164   49.0355   -3.7842 N.ar    1  UNL1       -0.1981
     12 O          21.6809   49.8398   -4.3407 O.3     1  UNL1       -0.4796
     13 C          21.8718   50.8739   -3.3726 C.3     1  UNL1        0.0804
     14 C          23.1913   45.4982   -6.1734 C.2     1  UNL1        0.2446
     15 O          24.0803   45.0840   -6.9183 O.2     1  UNL1       -0.2702
     16 N          22.0170   44.8750   -5.9985 N.am    1  UNL1       -0.3057
     17 C          21.6156   43.6290   -6.6491 C.3     1  UNL1        0.0533
     18 C          22.3545   42.4187   -6.0237 C.3     1  UNL1       -0.0068
     19 C          22.0371   41.1061   -6.7160 C.ar    1  UNL1       -0.0455
     20 C          21.0814   40.2199   -6.1714 C.ar    1  UNL1       -0.0585
     21 C          20.7602   39.0267   -6.8439 C.ar    1  UNL1       -0.0615
     22 C          21.3987   38.7096   -8.0604 C.ar    1  UNL1       -0.0617
     23 C          22.3661   39.5832   -8.5953 C.ar    1  UNL1       -0.0615
     24 C          22.6865   40.7755   -7.9248 C.ar    1  UNL1       -0.0585
     25 C          20.0720   43.4931   -6.6349 C.3     1  UNL1        0.0745
     26 C          19.3210   44.6809   -7.2910 C.3     1  UNL1       -0.0143
     27 C          17.7868   44.5116   -7.4492 C.3     1  UNL1        0.0351
     28 C          17.1483   45.7556   -8.0923 C.3     1  UNL1       -0.0540
     29 C          17.4234   43.2546   -8.2528 C.2     1  UNL1        0.2159
     30 O          17.8601   43.1072   -9.3925 O.2     1  UNL1       -0.2755
     31 N          16.6524   42.3464   -7.6400 N.am    1  UNL1       -0.3151
     32 C          16.3340   41.0341   -8.1743 C.3     1  UNL1        0.0116
     33 C          15.3865   40.2852   -7.2253 C.3     1  UNL1       -0.0376
     34 C          15.0635   38.8517   -7.6674 C.3     1  UNL1       -0.0545
     35 C          14.2682   38.7824   -8.9783 C.3     1  UNL1       -0.0652
     36 O          19.6601   43.3508   -5.2936 O.3     1  UNL1       -0.3899
     37 H          21.9126   43.6963   -7.6970 H       1  UNL1        0.0527
     38 H          19.8130   42.5773   -7.1610 H       1  UNL1        0.0612
     39 H          17.3495   44.4104   -6.4584 H       1  UNL1        0.0392
     40 H          24.9035   52.6168   -0.0569 H       1  UNL1        0.0230
     41 H          23.8138   51.4780   -0.8448 H       1  UNL1        0.0230
     42 H          25.2264   52.0975   -1.7013 H       1  UNL1        0.0230
     43 H          25.3518   50.3828    0.8396 H       1  UNL1        0.0263
     44 H          26.7350   50.9091   -0.0776 H       1  UNL1        0.0263
     45 H          24.5471   49.0412   -1.1082 H       1  UNL1        0.0280
     46 H          26.0858   48.5199   -0.4801 H       1  UNL1        0.0280
     47 H          27.3165   49.6015   -2.3010 H       1  UNL1        0.0461
     48 H          25.8730   50.3497   -2.9299 H       1  UNL1        0.0461
     49 H          26.7579   47.6351   -3.3790 H       1  UNL1        0.1475
     50 H          25.4138   46.2200   -4.7763 H       1  UNL1        0.0659
     51 H          21.4353   47.6099   -5.7266 H       1  UNL1        0.0678
     52 H          21.1384   51.6635   -3.5257 H       1  UNL1        0.0660
     53 H          22.8511   51.3499   -3.4401 H       1  UNL1        0.0660
     54 H          21.7449   50.4909   -2.3583 H       1  UNL1        0.0660
     55 H          21.3656   45.2517   -5.3239 H       1  UNL1        0.1494
     56 H          23.4327   42.5719   -6.0786 H       1  UNL1        0.0332
     57 H          22.1189   42.3354   -4.9610 H       1  UNL1        0.0332
     58 H          20.5749   40.4657   -5.2467 H       1  UNL1        0.0620
     59 H          20.0151   38.3573   -6.4382 H       1  UNL1        0.0618
     60 H          21.1473   37.8001   -8.5824 H       1  UNL1        0.0618
     61 H          22.8595   39.3376   -9.5248 H       1  UNL1        0.0618
     62 H          23.4240   41.4442   -8.3462 H       1  UNL1        0.0620
     63 H          19.7549   44.8598   -8.2745 H       1  UNL1        0.0298
     64 H          19.5104   45.5870   -6.7160 H       1  UNL1        0.0298
     65 H          17.2830   46.6333   -7.4598 H       1  UNL1        0.0237
     66 H          16.0748   45.6179   -8.2340 H       1  UNL1        0.0237
     67 H          17.5921   45.9723   -9.0655 H       1  UNL1        0.0237
     68 H          16.2924   42.5566   -6.7141 H       1  UNL1        0.1487
     69 H          17.2571   40.4644   -8.3085 H       1  UNL1        0.0462
     70 H          15.8774   41.1505   -9.1590 H       1  UNL1        0.0462
     71 H          14.4603   40.8472   -7.1152 H       1  UNL1        0.0280
     72 H          15.8272   40.2428   -6.2279 H       1  UNL1        0.0280
     73 H          14.4878   38.3612   -6.8786 H       1  UNL1        0.0263
     74 H          15.9863   38.2782   -7.7636 H       1  UNL1        0.0263
     75 H          14.0599   37.7501   -9.2410 H       1  UNL1        0.0230
     76 H          14.8133   39.2197   -9.8137 H       1  UNL1        0.0230
     77 H          13.3116   39.2993   -8.8889 H       1  UNL1        0.0230
     78 H          19.0405   42.6245   -5.2400 H       1  UNL1        0.2099
@<TRIPOS>BOND
     1     1     2    1
     2     1    40    1
     3     1    41    1
     4     1    42    1
     5     2     3    1
     6     2    43    1
     7     2    44    1
     8     3     4    1
     9     3    45    1
    10     3    46    1
    11     4     5    1
    12     4    47    1
    13     4    48    1
    14     5     6    1
    15     5    49    1
    16     6    11   ar
    17     6     7   ar
    18     7     8   ar
    19     7    50    1
    20     8     9   ar
    21     8    14    1
    22     9    10   ar
    23     9    51    1
    24    10    11   ar
    25    10    12    1
    26    12    13    1
    27    13    52    1
    28    13    53    1
    29    13    54    1
    30    14    15    2
    31    14    16   am
    32    16    17    1
    33    16    55    1
    34    17    37    1
    35    17    18    1
    36    17    25    1
    37    18    19    1
    38    18    56    1
    39    18    57    1
    40    19    24   ar
    41    19    20   ar
    42    20    21   ar
    43    20    58    1
    44    21    22   ar
    45    21    59    1
    46    22    23   ar
    47    22    60    1
    48    23    24   ar
    49    23    61    1
    50    24    62    1
    51    25    38    1
    52    25    26    1
    53    25    36    1
    54    26    27    1
    55    26    63    1
    56    26    64    1
    57    27    39    1
    58    27    28    1
    59    27    29    1
    60    28    65    1
    61    28    66    1
    62    28    67    1
    63    29    30    2
    64    29    31   am
    65    31    32    1
    66    31    68    1
    67    32    33    1
    68    32    69    1
    69    32    70    1
    70    33    34    1
    71    33    71    1
    72    33    72    1
    73    34    35    1
    74    34    73    1
    75    34    74    1
    76    35    75    1
    77    35    76    1
    78    35    77    1
    79    36    78    1
