@<TRIPOS>MOLECULE
BACE_4.smi:1
 89 91 0 0 0
SMALL
GASTEIGER
****
Structure written by MMmdl.
@<TRIPOS>ATOM
      1 C          21.2127   44.8319   -5.2032 C.3     1  UNL1       -0.0624
      2 C          22.4959   44.1800   -4.6961 C.3     1  UNL1       -0.0421
      3 C          23.6264   44.3576   -5.7333 C.3     1  UNL1       -0.0504
      4 C          23.5438   45.6854   -6.5102 C.3     1  UNL1       -0.0528
      5 C          23.7011   46.9495   -5.6404 C.3     1  UNL1       -0.0530
      6 C          23.5248   48.2736   -6.4173 C.3     1  UNL1       -0.0510
      7 C          22.1535   48.4682   -7.1044 C.3     1  UNL1       -0.0294
      8 C          20.9526   48.4501   -6.1357 C.3     1  UNL1        0.0483
      9 O          19.5810   48.6423   -6.8207 O.3     1  UNL1       -0.3706
     10 C          19.1211   47.4823   -7.7472 C.3     1  UNL1        0.1238
     11 C          18.8805   46.1250   -7.0685 C.2     1  UNL1        0.2417
     12 O          18.6523   46.0602   -5.8718 O.2     1  UNL1       -0.2731
     13 N          18.9132   45.0537   -7.8757 N.am    1  UNL1       -0.2914
     14 C          18.7951   43.6697   -7.3657 C.3     1  UNL1        0.0991
     15 C          20.1879   43.0552   -7.1069 C.2     1  UNL1        0.2336
     16 O          21.0776   43.1381   -7.9376 O.2     1  UNL1       -0.2738
     17 N          20.3393   42.4342   -5.9242 N.am    1  UNL1       -0.3084
     18 C          21.5822   41.8246   -5.4354 C.3     1  UNL1        0.0505
     19 C          22.1996   42.7109   -4.3132 C.3     1  UNL1       -0.0295
     20 C          21.3370   40.3365   -5.0329 C.3     1  UNL1        0.0859
     21 C          20.8409   39.4313   -6.1819 C.3     1  UNL1        0.0245
     22 N          19.3785   39.3536   -6.2230 N.3     1  UNL1       -0.3042
     23 C          18.8036   38.8645   -7.4855 C.3     1  UNL1        0.0447
     24 C          17.2986   38.7977   -7.5890 C.3     1  UNL1       -0.0285
     25 C          18.1039   37.5265   -7.4633 C.3     1  UNL1       -0.0285
     26 C          19.5808   39.2328   -8.7412 C.ar    1  UNL1       -0.0271
     27 C          20.8240   38.6221   -9.0071 C.ar    1  UNL1       -0.0568
     28 C          21.5489   38.9604  -10.1625 C.ar    1  UNL1       -0.0612
     29 C          21.0387   39.9146  -11.0616 C.ar    1  UNL1       -0.0580
     30 C          19.7958   40.5518  -10.8248 C.ar    1  UNL1       -0.0417
     31 C          19.0812   40.1938   -9.6506 C.ar    1  UNL1       -0.0531
     32 C          19.2685   41.5989  -11.8350 C.3     1  UNL1       -0.0127
     33 C          19.6430   43.0215  -11.3582 C.3     1  UNL1       -0.0560
     34 C          19.8945   41.3458  -13.2263 C.3     1  UNL1       -0.0560
     35 C          17.7296   41.5627  -12.0099 C.3     1  UNL1       -0.0560
     36 O          22.5330   39.7590   -4.5438 O.3     1  UNL1       -0.3887
     37 C          18.1083   42.8131   -8.4255 C.3     1  UNL1       -0.0379
     38 C          19.1927   45.2775   -9.2797 C.3     1  UNL1        0.0040
     39 H          22.7568   44.7364   -3.7959 H       1  UNL1        0.0299
     40 H          18.1644   43.6051   -6.4790 H       1  UNL1        0.0594
     41 H          22.2822   41.8225   -6.2705 H       1  UNL1        0.0524
     42 H          20.6054   40.2809   -4.2256 H       1  UNL1        0.0624
     43 H          21.3698   45.8786   -5.4630 H       1  UNL1        0.0232
     44 H          20.4238   44.8133   -4.4521 H       1  UNL1        0.0232
     45 H          20.8318   44.3285   -6.0926 H       1  UNL1        0.0232
     46 H          24.5973   44.2582   -5.2479 H       1  UNL1        0.0268
     47 H          23.5828   43.5531   -6.4675 H       1  UNL1        0.0268
     48 H          22.5874   45.7066   -7.0325 H       1  UNL1        0.0265
     49 H          24.3055   45.6917   -7.2899 H       1  UNL1        0.0265
     50 H          22.9965   46.9243   -4.8091 H       1  UNL1        0.0265
     51 H          24.6885   46.9400   -5.1788 H       1  UNL1        0.0265
     52 H          24.3088   48.3483   -7.1709 H       1  UNL1        0.0266
     53 H          23.6997   49.1059   -5.7356 H       1  UNL1        0.0266
     54 H          22.1636   49.4198   -7.6358 H       1  UNL1        0.0287
     55 H          22.0249   47.7114   -7.8782 H       1  UNL1        0.0287
     56 H          21.0884   49.2407   -5.3978 H       1  UNL1        0.0560
     57 H          20.9407   47.5203   -5.5669 H       1  UNL1        0.0560
     58 H          19.8356   47.3602   -8.5612 H       1  UNL1        0.0657
     59 H          18.1804   47.7627   -8.2211 H       1  UNL1        0.0657
     60 H          19.5370   42.4195   -5.3109 H       1  UNL1        0.1491
     61 H          21.5227   42.7038   -3.4589 H       1  UNL1        0.0286
     62 H          23.1151   42.2411   -3.9539 H       1  UNL1        0.0286
     63 H          21.2470   38.4290   -6.0405 H       1  UNL1        0.0450
     64 H          21.2324   39.7825   -7.1361 H       1  UNL1        0.0450
     65 H          18.9629   40.2441   -5.9686 H       1  UNL1        0.1229
     66 H          16.7184   39.1154   -6.7226 H       1  UNL1        0.0287
     67 H          16.8490   39.0167   -8.5575 H       1  UNL1        0.0287
     68 H          18.1928   36.8957   -8.3477 H       1  UNL1        0.0287
     69 H          18.0622   36.9944   -6.5129 H       1  UNL1        0.0287
     70 H          21.2275   37.8888   -8.3239 H       1  UNL1        0.0621
     71 H          22.4996   38.4873  -10.3602 H       1  UNL1        0.0618
     72 H          21.6225   40.1501  -11.9388 H       1  UNL1        0.0620
     73 H          18.1324   40.6491   -9.4151 H       1  UNL1        0.0624
     74 H          19.2276   43.2315  -10.3716 H       1  UNL1        0.0238
     75 H          19.2618   43.7846  -12.0381 H       1  UNL1        0.0238
     76 H          20.7210   43.1707  -11.2953 H       1  UNL1        0.0238
     77 H          19.6609   40.3443  -13.5902 H       1  UNL1        0.0238
     78 H          20.9801   41.4443  -13.2202 H       1  UNL1        0.0238
     79 H          19.5214   42.0537  -13.9676 H       1  UNL1        0.0238
     80 H          17.3830   40.5982  -12.3835 H       1  UNL1        0.0238
     81 H          17.3937   42.3119  -12.7283 H       1  UNL1        0.0238
     82 H          17.2067   41.7732  -11.0759 H       1  UNL1        0.0238
     83 H          22.3644   39.4019   -3.6853 H       1  UNL1        0.2099
     84 H          17.9726   41.7878   -8.0786 H       1  UNL1        0.0252
     85 H          18.6793   42.7727   -9.3537 H       1  UNL1        0.0252
     86 H          17.1186   43.2025   -8.6669 H       1  UNL1        0.0252
     87 H          19.0411   44.3947   -9.8978 H       1  UNL1        0.0429
     88 H          20.2229   45.6030   -9.4290 H       1  UNL1        0.0429
     89 H          18.5221   46.0285   -9.6995 H       1  UNL1        0.0429
@<TRIPOS>BOND
     1     1     2    1
     2     1    43    1
     3     1    44    1
     4     1    45    1
     5     2    39    1
     6     2    19    1
     7     2     3    1
     8     3     4    1
     9     3    46    1
    10     3    47    1
    11     4     5    1
    12     4    48    1
    13     4    49    1
    14     5     6    1
    15     5    50    1
    16     5    51    1
    17     6     7    1
    18     6    52    1
    19     6    53    1
    20     7     8    1
    21     7    54    1
    22     7    55    1
    23     8     9    1
    24     8    56    1
    25     8    57    1
    26     9    10    1
    27    10    11    1
    28    10    58    1
    29    10    59    1
    30    11    12    2
    31    11    13   am
    32    13    14    1
    33    13    38    1
    34    14    40    1
    35    14    15    1
    36    14    37    1
    37    15    16    2
    38    15    17   am
    39    17    18    1
    40    17    60    1
    41    18    41    1
    42    18    19    1
    43    18    20    1
    44    19    61    1
    45    19    62    1
    46    20    42    1
    47    20    21    1
    48    20    36    1
    49    21    22    1
    50    21    63    1
    51    21    64    1
    52    22    23    1
    53    22    65    1
    54    23    25    1
    55    23    24    1
    56    23    26    1
    57    24    25    1
    58    24    66    1
    59    24    67    1
    60    25    68    1
    61    25    69    1
    62    26    31   ar
    63    26    27   ar
    64    27    28   ar
    65    27    70    1
    66    28    29   ar
    67    28    71    1
    68    29    30   ar
    69    29    72    1
    70    30    31   ar
    71    30    32    1
    72    31    73    1
    73    32    33    1
    74    32    34    1
    75    32    35    1
    76    33    74    1
    77    33    75    1
    78    33    76    1
    79    34    77    1
    80    34    78    1
    81    34    79    1
    82    35    80    1
    83    35    81    1
    84    35    82    1
    85    36    83    1
    86    37    84    1
    87    37    85    1
    88    37    86    1
    89    38    87    1
    90    38    88    1
    91    38    89    1
