@<TRIPOS>MOLECULE
BACE_20.smi:1
 78 79 0 0 0
SMALL
GASTEIGER
****
Structure written by MMmdl.
@<TRIPOS>ATOM
      1 C          22.5506   47.4883  -15.4330 C.3     1  UNL1       -0.0652
      2 C          23.4153   47.3250  -14.1785 C.3     1  UNL1       -0.0545
      3 C          24.5131   46.2676  -14.3509 C.3     1  UNL1       -0.0377
      4 C          25.4045   46.1399  -13.1081 C.3     1  UNL1        0.0104
      5 N          26.3274   45.0216  -13.2348 N.pl3   1  UNL1       -0.3289
      6 C          26.2545   43.9231  -12.3719 C.ar    1  UNL1        0.1232
      7 C          25.0789   43.5396  -11.6891 C.ar    1  UNL1       -0.0095
      8 C          25.1209   42.4361  -10.8067 C.ar    1  UNL1        0.0450
      9 C          26.3523   41.7507  -10.6695 C.ar    1  UNL1        0.0122
     10 C          27.4696   42.2027  -11.3985 C.ar    1  UNL1        0.2168
     11 N          27.4173   43.2663  -12.2323 N.ar    1  UNL1       -0.1981
     12 O          28.6758   41.5556  -11.2418 O.3     1  UNL1       -0.4796
     13 C          29.7722   41.9545  -12.0570 C.3     1  UNL1        0.0804
     14 C          23.8805   42.0340  -10.0455 C.2     1  UNL1        0.2446
     15 O          22.7952   42.5621  -10.2917 O.2     1  UNL1       -0.2702
     16 N          24.0523   41.1415   -9.0521 N.am    1  UNL1       -0.3057
     17 C          23.0756   40.7355   -8.0248 C.3     1  UNL1        0.0533
     18 C          22.6783   41.9936   -7.1973 C.3     1  UNL1       -0.0068
     19 C          22.0213   41.8044   -5.8333 C.ar    1  UNL1       -0.0455
     20 C          22.4665   40.8276   -4.9164 C.ar    1  UNL1       -0.0585
     21 C          21.9097   40.7460   -3.6274 C.ar    1  UNL1       -0.0615
     22 C          20.9025   41.6455   -3.2348 C.ar    1  UNL1       -0.0617
     23 C          20.4602   42.6295   -4.1371 C.ar    1  UNL1       -0.0615
     24 C          21.0105   42.7036   -5.4304 C.ar    1  UNL1       -0.0585
     25 C          21.8696   39.9202   -8.6029 C.3     1  UNL1        0.0745
     26 C          21.3716   38.7845   -7.6634 C.3     1  UNL1       -0.0143
     27 C          19.8415   38.6170   -7.4638 C.3     1  UNL1        0.0351
     28 C          19.1923   39.8614   -6.8408 C.3     1  UNL1       -0.0540
     29 C          19.0418   38.1533   -8.6954 C.2     1  UNL1        0.2159
     30 O          19.3655   38.4856   -9.8339 O.2     1  UNL1       -0.2755
     31 N          17.9623   37.3974   -8.4391 N.am    1  UNL1       -0.3151
     32 C          16.9675   36.9810   -9.4169 C.3     1  UNL1        0.0116
     33 C          15.6571   37.7609   -9.2349 C.3     1  UNL1       -0.0376
     34 C          15.7675   39.2481   -9.6046 C.3     1  UNL1       -0.0545
     35 C          14.4414   39.9866   -9.4105 C.3     1  UNL1       -0.0652
     36 O          22.2234   39.3108   -9.8301 O.3     1  UNL1       -0.3899
     37 H          23.6607   40.0676   -7.3951 H       1  UNL1        0.0527
     38 H          21.0601   40.6107   -8.8371 H       1  UNL1        0.0612
     39 H          19.7347   37.8193   -6.7280 H       1  UNL1        0.0392
     40 H          21.7709   48.2317  -15.2736 H       1  UNL1        0.0230
     41 H          22.0652   46.5500  -15.7005 H       1  UNL1        0.0230
     42 H          23.1489   47.8089  -16.2856 H       1  UNL1        0.0230
     43 H          22.7792   47.0523  -13.3346 H       1  UNL1        0.0263
     44 H          23.8650   48.2874  -13.9274 H       1  UNL1        0.0263
     45 H          25.1304   46.5237  -15.2139 H       1  UNL1        0.0280
     46 H          24.0601   45.3012  -14.5731 H       1  UNL1        0.0280
     47 H          24.7978   46.0633  -12.2057 H       1  UNL1        0.0461
     48 H          25.9914   47.0512  -12.9885 H       1  UNL1        0.0461
     49 H          27.2524   45.2326  -13.5773 H       1  UNL1        0.1475
     50 H          24.1482   44.0676  -11.8341 H       1  UNL1        0.0659
     51 H          26.4645   40.8861  -10.0327 H       1  UNL1        0.0678
     52 H          30.6442   41.3492  -11.8130 H       1  UNL1        0.0660
     53 H          30.0394   42.9984  -11.8899 H       1  UNL1        0.0660
     54 H          29.5489   41.8065  -13.1152 H       1  UNL1        0.0660
     55 H          24.9749   40.7427   -8.9675 H       1  UNL1        0.1494
     56 H          23.5738   42.5887   -7.0066 H       1  UNL1        0.0332
     57 H          22.0257   42.6243   -7.8021 H       1  UNL1        0.0332
     58 H          23.2603   40.1495   -5.1794 H       1  UNL1        0.0620
     59 H          22.2698   40.0082   -2.9252 H       1  UNL1        0.0618
     60 H          20.4760   41.5882   -2.2445 H       1  UNL1        0.0618
     61 H          19.6894   43.3233   -3.8398 H       1  UNL1        0.0618
     62 H          20.6613   43.4687   -6.1075 H       1  UNL1        0.0620
     63 H          21.7937   38.9299   -6.6718 H       1  UNL1        0.0298
     64 H          21.7952   37.8320   -7.9850 H       1  UNL1        0.0298
     65 H          19.6608   40.0984   -5.8859 H       1  UNL1        0.0237
     66 H          18.1305   39.7011   -6.6467 H       1  UNL1        0.0237
     67 H          19.2735   40.7401   -7.4787 H       1  UNL1        0.0237
     68 H          17.7422   37.1827   -7.4726 H       1  UNL1        0.1487
     69 H          16.7802   35.9174   -9.2687 H       1  UNL1        0.0462
     70 H          17.3359   37.0967  -10.4365 H       1  UNL1        0.0462
     71 H          15.3277   37.6762   -8.1970 H       1  UNL1        0.0280
     72 H          14.8788   37.2989   -9.8438 H       1  UNL1        0.0280
     73 H          16.0928   39.3492  -10.6415 H       1  UNL1        0.0263
     74 H          16.5292   39.7301   -8.9895 H       1  UNL1        0.0263
     75 H          14.5389   41.0442   -9.6546 H       1  UNL1        0.0230
     76 H          14.0983   39.9171   -8.3777 H       1  UNL1        0.0230
     77 H          13.6608   39.5661  -10.0416 H       1  UNL1        0.0230
     78 H          23.0640   38.8834   -9.7198 H       1  UNL1        0.2099
@<TRIPOS>BOND
     1     1     2    1
     2     1    40    1
     3     1    41    1
     4     1    42    1
     5     2     3    1
     6     2    43    1
     7     2    44    1
     8     3     4    1
     9     3    45    1
    10     3    46    1
    11     4     5    1
    12     4    47    1
    13     4    48    1
    14     5     6    1
    15     5    49    1
    16     6    11   ar
    17     6     7   ar
    18     7     8   ar
    19     7    50    1
    20     8     9   ar
    21     8    14    1
    22     9    10   ar
    23     9    51    1
    24    10    11   ar
    25    10    12    1
    26    12    13    1
    27    13    52    1
    28    13    53    1
    29    13    54    1
    30    14    15    2
    31    14    16   am
    32    16    17    1
    33    16    55    1
    34    17    37    1
    35    17    18    1
    36    17    25    1
    37    18    19    1
    38    18    56    1
    39    18    57    1
    40    19    24   ar
    41    19    20   ar
    42    20    21   ar
    43    20    58    1
    44    21    22   ar
    45    21    59    1
    46    22    23   ar
    47    22    60    1
    48    23    24   ar
    49    23    61    1
    50    24    62    1
    51    25    38    1
    52    25    26    1
    53    25    36    1
    54    26    27    1
    55    26    63    1
    56    26    64    1
    57    27    39    1
    58    27    28    1
    59    27    29    1
    60    28    65    1
    61    28    66    1
    62    28    67    1
    63    29    30    2
    64    29    31   am
    65    31    32    1
    66    31    68    1
    67    32    33    1
    68    32    69    1
    69    32    70    1
    70    33    34    1
    71    33    71    1
    72    33    72    1
    73    34    35    1
    74    34    73    1
    75    34    74    1
    76    35    75    1
    77    35    76    1
    78    35    77    1
    79    36    78    1
