@<TRIPOS>MOLECULE
BACE_3.smi:1
 85 86 0 0 0
SMALL
GASTEIGER
****
Structure written by MMmdl.
@<TRIPOS>ATOM
      1 C          21.4760   39.2192   -8.3792 C.ar    1  UNL1       -0.0573
      2 C          22.5455   40.1346   -8.3785 C.ar    1  UNL1       -0.0612
      3 C          22.7091   41.0221   -7.2987 C.ar    1  UNL1       -0.0583
      4 C          21.8129   40.9980   -6.2087 C.ar    1  UNL1       -0.0445
      5 C          22.0279   41.9375   -5.0257 C.3     1  UNL1       -0.0215
      6 C          20.9185   42.9950   -4.9255 C.3     1  UNL1       -0.0586
      7 C          22.2023   41.1637   -3.7065 C.3     1  UNL1       -0.0586
      8 C          20.7273   40.0923   -6.2277 C.ar    1  UNL1       -0.0539
      9 C          20.5581   39.2025   -7.3095 C.ar    1  UNL1       -0.0333
     10 C          19.3996   38.2261   -7.3289 C.3     1  UNL1        0.0214
     11 N          18.1415   38.8587   -7.7003 N.3     1  UNL1       -0.3071
     12 C          17.2717   37.9916   -8.4982 C.3     1  UNL1        0.0521
     13 C          15.8575   38.5908   -8.6804 C.3     1  UNL1        0.1962
     14 O          15.2410   38.5500   -7.4130 O.3     1  UNL1       -0.3623
     15 O          15.1694   37.7816   -9.6043 O.3     1  UNL1       -0.3623
     16 C          15.8027   40.0603   -9.1910 C.3     1  UNL1        0.0782
     17 N          16.7476   40.2789  -10.2906 N.am    1  UNL1       -0.3058
     18 C          17.7474   41.1770  -10.3119 C.2     1  UNL1        0.2337
     19 O          18.0056   41.9254   -9.3682 O.2     1  UNL1       -0.2738
     20 C          18.5414   41.2701  -11.6269 C.3     1  UNL1        0.0991
     21 C          19.6251   40.1687  -11.6295 C.3     1  UNL1       -0.0379
     22 C          14.3669   40.5420   -9.5701 C.3     1  UNL1       -0.0269
     23 C          14.1056   42.0717   -9.6825 C.3     1  UNL1       -0.0420
     24 C          14.5378   42.6266  -11.0501 C.3     1  UNL1       -0.0624
     25 C          14.5851   42.8786   -8.4444 C.3     1  UNL1       -0.0504
     26 C          14.6152   44.4107   -8.5866 C.3     1  UNL1       -0.0528
     27 C          16.0343   44.8873   -8.9329 C.3     1  UNL1       -0.0530
     28 C          16.1615   46.3865   -9.2260 C.3     1  UNL1       -0.0531
     29 C          17.6237   46.8671   -9.3111 C.3     1  UNL1       -0.0530
     30 C          18.5252   46.0321  -10.2389 C.3     1  UNL1       -0.0526
     31 C          18.0854   46.0423  -11.7131 C.3     1  UNL1       -0.0448
     32 C          18.8600   45.0417  -12.5854 C.3     1  UNL1        0.0242
     33 C          18.3571   43.5934  -12.4343 C.2     1  UNL1        0.2159
     34 O          17.2600   43.3497  -12.9343 O.2     1  UNL1       -0.2756
     35 N          19.1013   42.6389  -11.8096 N.am    1  UNL1       -0.2932
     36 C          20.4265   42.9332  -11.2395 C.3     1  UNL1        0.0039
     37 H          16.1499   40.6305   -8.3338 H       1  UNL1        0.0552
     38 H          17.8583   41.0323  -12.4398 H       1  UNL1        0.0594
     39 H          13.0196   42.1784   -9.6868 H       1  UNL1        0.0299
     40 H          21.3603   38.5373   -9.2080 H       1  UNL1        0.0621
     41 H          23.2454   40.1468   -9.2028 H       1  UNL1        0.0618
     42 H          23.5372   41.7152   -7.3089 H       1  UNL1        0.0620
     43 H          22.9615   42.4741   -5.2003 H       1  UNL1        0.0343
     44 H          20.8427   43.5712   -5.8480 H       1  UNL1        0.0235
     45 H          21.1150   43.6950   -4.1139 H       1  UNL1        0.0235
     46 H          19.9437   42.5448   -4.7396 H       1  UNL1        0.0235
     47 H          23.0219   40.4491   -3.7779 H       1  UNL1        0.0235
     48 H          21.3014   40.6105   -3.4409 H       1  UNL1        0.0235
     49 H          22.4281   41.8407   -2.8818 H       1  UNL1        0.0235
     50 H          20.0215   40.0739   -5.4084 H       1  UNL1        0.0623
     51 H          19.3040   37.7502   -6.3532 H       1  UNL1        0.0473
     52 H          19.6459   37.4382   -8.0416 H       1  UNL1        0.0473
     53 H          17.6291   39.1110   -6.8568 H       1  UNL1        0.1224
     54 H          17.1902   37.0051   -8.0379 H       1  UNL1        0.0477
     55 H          17.7294   37.8274   -9.4744 H       1  UNL1        0.0477
     56 H          15.4607   37.7257   -6.9708 H       1  UNL1        0.2128
     57 H          14.2936   38.1353   -9.6681 H       1  UNL1        0.2128
     58 H          16.6351   39.6786  -11.0938 H       1  UNL1        0.1492
     59 H          19.1676   39.1807  -11.6780 H       1  UNL1        0.0252
     60 H          20.2424   40.1721  -10.7325 H       1  UNL1        0.0252
     61 H          20.2833   40.2611  -12.4937 H       1  UNL1        0.0252
     62 H          14.0604   40.0649  -10.5017 H       1  UNL1        0.0287
     63 H          13.6624   40.1472   -8.8401 H       1  UNL1        0.0287
     64 H          14.2112   43.6526  -11.2097 H       1  UNL1        0.0232
     65 H          14.0947   42.0365  -11.8492 H       1  UNL1        0.0232
     66 H          15.6130   42.6062  -11.1744 H       1  UNL1        0.0232
     67 H          13.9520   42.6102   -7.6039 H       1  UNL1        0.0268
     68 H          15.5784   42.5791   -8.1305 H       1  UNL1        0.0268
     69 H          14.3239   44.8641   -7.6401 H       1  UNL1        0.0265
     70 H          13.8826   44.7472   -9.3180 H       1  UNL1        0.0265
     71 H          16.6965   44.6325   -8.1030 H       1  UNL1        0.0265
     72 H          16.3956   44.3229   -9.7915 H       1  UNL1        0.0265
     73 H          15.6600   46.9465   -8.4412 H       1  UNL1        0.0265
     74 H          15.6388   46.6230  -10.1505 H       1  UNL1        0.0265
     75 H          17.6435   47.9120   -9.6220 H       1  UNL1        0.0265
     76 H          18.0561   46.8479   -8.3095 H       1  UNL1        0.0265
     77 H          18.5743   45.0086   -9.8661 H       1  UNL1        0.0265
     78 H          19.5461   46.4097  -10.1733 H       1  UNL1        0.0265
     79 H          17.0194   45.8285  -11.7946 H       1  UNL1        0.0270
     80 H          18.2149   47.0468  -12.1154 H       1  UNL1        0.0270
     81 H          19.9316   45.1521  -12.4382 H       1  UNL1        0.0358
     82 H          18.6855   45.3139  -13.6269 H       1  UNL1        0.0358
     83 H          20.7209   42.2318  -10.4607 H       1  UNL1        0.0429
     84 H          20.4649   43.9043  -10.7480 H       1  UNL1        0.0429
     85 H          21.1844   42.9115  -12.0267 H       1  UNL1        0.0429
@<TRIPOS>BOND
     1     1     9   ar
     2     1     2   ar
     3     1    40    1
     4     2     3   ar
     5     2    41    1
     6     3     4   ar
     7     3    42    1
     8     4     5    1
     9     4     8   ar
    10     5     6    1
    11     5     7    1
    12     5    43    1
    13     6    44    1
    14     6    45    1
    15     6    46    1
    16     7    47    1
    17     7    48    1
    18     7    49    1
    19     8     9   ar
    20     8    50    1
    21     9    10    1
    22    10    11    1
    23    10    51    1
    24    10    52    1
    25    11    12    1
    26    11    53    1
    27    12    13    1
    28    12    54    1
    29    12    55    1
    30    13    14    1
    31    13    15    1
    32    13    16    1
    33    14    56    1
    34    15    57    1
    35    16    37    1
    36    16    17    1
    37    16    22    1
    38    17    18   am
    39    17    58    1
    40    18    19    2
    41    18    20    1
    42    20    38    1
    43    20    35    1
    44    20    21    1
    45    21    59    1
    46    21    60    1
    47    21    61    1
    48    22    23    1
    49    22    62    1
    50    22    63    1
    51    23    39    1
    52    23    24    1
    53    23    25    1
    54    24    64    1
    55    24    65    1
    56    24    66    1
    57    25    26    1
    58    25    67    1
    59    25    68    1
    60    26    27    1
    61    26    69    1
    62    26    70    1
    63    27    28    1
    64    27    71    1
    65    27    72    1
    66    28    29    1
    67    28    73    1
    68    28    74    1
    69    29    30    1
    70    29    75    1
    71    29    76    1
    72    30    31    1
    73    30    77    1
    74    30    78    1
    75    31    32    1
    76    31    79    1
    77    31    80    1
    78    32    33    1
    79    32    81    1
    80    32    82    1
    81    33    34    2
    82    33    35   am
    83    35    36    1
    84    36    83    1
    85    36    84    1
    86    36    85    1
