@<TRIPOS>MOLECULE
BACE_6.smi:1
 83 85 0 0 0
SMALL
GASTEIGER
****
Structure written by MMmdl.
@<TRIPOS>ATOM
      1 C          25.0785   46.9975   -5.8101 C.3     1  UNL1       -0.0493
      2 C          24.1249   46.7565   -6.9885 C.3     1  UNL1        0.0121
      3 N          23.4428   45.4557   -6.8781 N.am    1  UNL1       -0.2978
      4 C          23.3569   44.7114   -8.1560 C.3     1  UNL1        0.0150
      5 C          24.1293   43.3703   -8.1686 C.3     1  UNL1       -0.0371
      6 C          24.2897   42.7690   -9.5788 C.3     1  UNL1       -0.0516
      7 C          22.9851   42.3690  -10.2986 C.3     1  UNL1       -0.0528
      8 C          22.3473   41.0525   -9.8030 C.3     1  UNL1       -0.0504
      9 C          21.0137   40.6827  -10.5058 C.3     1  UNL1       -0.0421
     10 C          20.3507   39.4038   -9.9165 C.3     1  UNL1       -0.0293
     11 C          19.2677   39.6576   -8.8315 C.3     1  UNL1        0.0545
     12 N          19.8713   40.2800   -7.6632 N.am    1  UNL1       -0.3058
     13 C          19.6915   41.5389   -7.2362 C.2     1  UNL1        0.2444
     14 O          18.8661   42.3145   -7.7157 O.2     1  UNL1       -0.2702
     15 C          20.7103   41.9993   -6.2407 C.ar    1  UNL1        0.0374
     16 C          21.2009   41.1199   -5.2509 C.ar    1  UNL1       -0.0496
     17 C          22.2524   41.5245   -4.4099 C.ar    1  UNL1       -0.0603
     18 C          22.8254   42.7994   -4.5714 C.ar    1  UNL1       -0.0496
     19 C          22.3252   43.6993   -5.5331 C.ar    1  UNL1        0.0376
     20 C          21.2241   43.3115   -6.3285 C.ar    1  UNL1       -0.0375
     21 C          22.9760   45.0488   -5.6646 C.2     1  UNL1        0.2466
     22 O          23.1433   45.7058   -4.6329 O.2     1  UNL1       -0.2700
     23 C          18.4806   38.3937   -8.3751 C.3     1  UNL1        0.1130
     24 C          16.9436   38.5593   -8.3590 C.3     1  UNL1       -0.0050
     25 N          16.4590   39.0786   -7.0502 N.4     1  UNL1        0.2321
     26 C          15.2703   39.9672   -7.0695 C.3     1  UNL1       -0.0076
     27 C          15.3229   40.9892   -8.1907 C.ar    1  UNL1       -0.0027
     28 C          14.5754   40.7984   -9.3696 C.ar    1  UNL1       -0.0535
     29 C          14.5366   41.8050  -10.3505 C.ar    1  UNL1       -0.0611
     30 C          15.2802   42.9889  -10.1815 C.ar    1  UNL1       -0.0583
     31 C          16.0764   43.1682   -9.0280 C.ar    1  UNL1       -0.0444
     32 C          16.0890   42.1588   -8.0394 C.ar    1  UNL1       -0.0501
     33 C          16.8855   44.4453   -8.8186 C.3     1  UNL1       -0.0215
     34 C          15.9630   45.6475   -8.5669 C.3     1  UNL1       -0.0586
     35 C          17.8736   44.7317   -9.9648 C.3     1  UNL1       -0.0586
     36 O          18.7897   37.3228   -9.2492 O.3     1  UNL1       -0.3847
     37 C          21.2081   40.5215  -12.0268 C.3     1  UNL1       -0.0624
     38 H          20.3204   41.5134  -10.3730 H       1  UNL1        0.0299
     39 H          18.5481   40.3562   -9.2579 H       1  UNL1        0.0526
     40 H          18.8075   38.1111   -7.3723 H       1  UNL1        0.0666
     41 H          25.5852   47.9557   -5.9149 H       1  UNL1        0.0245
     42 H          25.8436   46.2227   -5.7552 H       1  UNL1        0.0245
     43 H          24.5463   47.0111   -4.8602 H       1  UNL1        0.0245
     44 H          23.3927   47.5620   -7.0313 H       1  UNL1        0.0462
     45 H          24.6723   46.8442   -7.9264 H       1  UNL1        0.0462
     46 H          22.3148   44.5668   -8.4377 H       1  UNL1        0.0464
     47 H          23.7626   45.3138   -8.9691 H       1  UNL1        0.0464
     48 H          25.1250   43.5425   -7.7595 H       1  UNL1        0.0280
     49 H          23.6613   42.6316   -7.5207 H       1  UNL1        0.0280
     50 H          24.8189   43.4942  -10.1989 H       1  UNL1        0.0266
     51 H          24.9485   41.9019   -9.5254 H       1  UNL1        0.0266
     52 H          22.2573   43.1801  -10.2563 H       1  UNL1        0.0265
     53 H          23.2363   42.2595  -11.3515 H       1  UNL1        0.0265
     54 H          23.0634   40.2409   -9.9329 H       1  UNL1        0.0268
     55 H          22.1869   41.1315   -8.7297 H       1  UNL1        0.0268
     56 H          19.8850   38.8449  -10.7269 H       1  UNL1        0.0286
     57 H          21.1240   38.7344   -9.5324 H       1  UNL1        0.0286
     58 H          20.5799   39.7285   -7.2009 H       1  UNL1        0.1494
     59 H          20.7916   40.1262   -5.1403 H       1  UNL1        0.0625
     60 H          22.6322   40.8509   -3.6571 H       1  UNL1        0.0618
     61 H          23.6666   43.0945   -3.9627 H       1  UNL1        0.0625
     62 H          20.8039   43.9963   -7.0506 H       1  UNL1        0.0633
     63 H          16.6549   39.2132   -9.1812 H       1  UNL1        0.0840
     64 H          16.4730   37.5991   -8.5618 H       1  UNL1        0.0840
     65 H          16.2707   38.2962   -6.4388 H       1  UNL1        0.2018
     66 H          14.3713   39.3581   -7.1579 H       1  UNL1        0.0866
     67 H          15.1941   40.4885   -6.1119 H       1  UNL1        0.0866
     68 H          14.0049   39.8935   -9.5167 H       1  UNL1        0.0622
     69 H          13.9381   41.6691  -11.2394 H       1  UNL1        0.0618
     70 H          15.2278   43.7503  -10.9433 H       1  UNL1        0.0620
     71 H          16.6835   42.2793   -7.1472 H       1  UNL1        0.0625
     72 H          17.4875   44.3032   -7.9188 H       1  UNL1        0.0343
     73 H          15.3301   45.4847   -7.6945 H       1  UNL1        0.0235
     74 H          15.3081   45.8315   -9.4199 H       1  UNL1        0.0235
     75 H          16.5378   46.5553   -8.3910 H       1  UNL1        0.0235
     76 H          18.5782   43.9081  -10.0881 H       1  UNL1        0.0235
     77 H          18.4561   45.6287   -9.7610 H       1  UNL1        0.0235
     78 H          17.3710   44.8971  -10.9171 H       1  UNL1        0.0235
     79 H          19.7347   37.2157   -9.3120 H       1  UNL1        0.2101
     80 H          21.9392   39.7459  -12.2543 H       1  UNL1        0.0232
     81 H          21.5406   41.4446  -12.5000 H       1  UNL1        0.0232
     82 H          20.2766   40.2485  -12.5173 H       1  UNL1        0.0232
     83 H          17.2129   39.6161   -6.6519 H       1  UNL1        0.2018
@<TRIPOS>BOND
     1     1     2    1
     2     1    41    1
     3     1    42    1
     4     1    43    1
     5     2     3    1
     6     2    44    1
     7     2    45    1
     8     3    21   am
     9     3     4    1
    10     4     5    1
    11     4    46    1
    12     4    47    1
    13     5     6    1
    14     5    48    1
    15     5    49    1
    16     6     7    1
    17     6    50    1
    18     6    51    1
    19     7     8    1
    20     7    52    1
    21     7    53    1
    22     8     9    1
    23     8    54    1
    24     8    55    1
    25     9    38    1
    26     9    10    1
    27     9    37    1
    28    10    11    1
    29    10    56    1
    30    10    57    1
    31    11    39    1
    32    11    12    1
    33    11    23    1
    34    12    13   am
    35    12    58    1
    36    13    14    2
    37    13    15    1
    38    15    20   ar
    39    15    16   ar
    40    16    17   ar
    41    16    59    1
    42    17    18   ar
    43    17    60    1
    44    18    19   ar
    45    18    61    1
    46    19    20   ar
    47    19    21    1
    48    20    62    1
    49    21    22    2
    50    23    40    1
    51    23    24    1
    52    23    36    1
    53    24    25    1
    54    24    63    1
    55    24    64    1
    56    25    26    1
    57    25    65    1
    58    25    83    1
    59    26    27    1
    60    26    66    1
    61    26    67    1
    62    27    32   ar
    63    27    28   ar
    64    28    29   ar
    65    28    68    1
    66    29    30   ar
    67    29    69    1
    68    30    31   ar
    69    30    70    1
    70    31    32   ar
    71    31    33    1
    72    32    71    1
    73    33    34    1
    74    33    35    1
    75    33    72    1
    76    34    73    1
    77    34    74    1
    78    34    75    1
    79    35    76    1
    80    35    77    1
    81    35    78    1
    82    36    79    1
    83    37    80    1
    84    37    81    1
    85    37    82    1
