@<TRIPOS>MOLECULE
BACE_14.smi:1
 85 89 0 0 0
SMALL
GASTEIGER
****
Structure written by MMmdl.
@<TRIPOS>ATOM
      1 C          29.3997   41.1863  -12.0679 C.3     1  UNL1       -0.0586
      2 C          29.3238   42.7000  -11.8272 C.3     1  UNL1       -0.0215
      3 C          29.1825   43.4732  -13.1447 C.3     1  UNL1       -0.0586
      4 C          28.2170   43.0809  -10.8522 C.ar    1  UNL1       -0.0445
      5 C          28.5358   43.7276   -9.6395 C.ar    1  UNL1       -0.0583
      6 C          27.5118   44.1476   -8.7693 C.ar    1  UNL1       -0.0612
      7 C          26.1643   43.9313   -9.1137 C.ar    1  UNL1       -0.0568
      8 C          25.8276   43.2832  -10.3211 C.ar    1  UNL1       -0.0271
      9 C          26.8622   42.8439  -11.1747 C.ar    1  UNL1       -0.0534
     10 C          24.3896   43.0928  -10.7063 C.3     1  UNL1        0.0447
     11 C          23.4792   44.2917  -10.8786 C.3     1  UNL1       -0.0285
     12 C          23.9378   43.5140  -12.0875 C.3     1  UNL1       -0.0285
     13 N          23.8270   41.8525  -10.1779 N.3     1  UNL1       -0.3042
     14 C          23.3014   41.9594   -8.8159 C.3     1  UNL1        0.0245
     15 C          22.6207   40.6433   -8.3903 C.3     1  UNL1        0.0862
     16 C          21.6702   40.7812   -7.1700 C.3     1  UNL1        0.0545
     17 C          20.9996   39.4399   -6.7643 C.3     1  UNL1       -0.0066
     18 C          19.8810   38.9732   -7.6887 C.ar    1  UNL1       -0.0421
     19 C          20.1717   38.2849   -8.8846 C.ar    1  UNL1       -0.0583
     20 C          19.1238   37.8656   -9.7260 C.ar    1  UNL1       -0.0580
     21 C          17.7828   38.1131   -9.3754 C.ar    1  UNL1       -0.0199
     22 C          17.4782   38.8089   -8.1808 C.ar    1  UNL1        0.1208
     23 C          18.5356   39.2203   -7.3472 C.ar    1  UNL1       -0.0167
     24 O          16.2029   39.1282   -7.7664 O.3     1  UNL1       -0.4920
     25 C          15.1468   39.1804   -8.7211 C.3     1  UNL1        0.0896
     26 C          15.3660   40.3122   -9.7452 C.3     1  UNL1       -0.0172
     27 C          15.5408   41.6973   -9.0967 C.3     1  UNL1       -0.0344
     28 C          16.2230   42.6889  -10.0541 C.3     1  UNL1        0.0092
     29 N          16.3761   44.0206   -9.4834 N.pl3   1  UNL1       -0.3438
     30 C          17.3660   44.3309   -8.5358 C.ar    1  UNL1        0.0285
     31 C          18.3176   43.3957   -8.0622 C.ar    1  UNL1       -0.0287
     32 C          19.2769   43.7689   -7.0896 C.ar    1  UNL1        0.0391
     33 C          19.2529   45.0844   -6.5710 C.ar    1  UNL1       -0.0390
     34 C          18.3277   46.0345   -7.0550 C.ar    1  UNL1        0.0196
     35 C          17.3929   45.6491   -8.0391 C.ar    1  UNL1       -0.0303
     36 C          18.2720   47.3944   -6.4611 C.2     1  UNL1        0.1602
     37 O          18.4601   47.6249   -5.2678 O.2     1  UNL1       -0.2924
     38 C          17.9339   48.5462   -7.4020 C.3     1  UNL1       -0.0014
     39 C          20.2884   42.7822   -6.5696 C.2     1  UNL1        0.2445
     40 O          20.7944   42.9304   -5.4571 O.2     1  UNL1       -0.2702
     41 N          20.6529   41.8077   -7.4209 N.am    1  UNL1       -0.3057
     42 O          23.6581   39.7508   -8.0398 O.3     1  UNL1       -0.3887
     43 H          22.0646   40.2369   -9.2354 H       1  UNL1        0.0624
     44 H          22.2931   41.0936   -6.3294 H       1  UNL1        0.0527
     45 H          30.1596   40.9502  -12.8110 H       1  UNL1        0.0235
     46 H          28.4601   40.7817  -12.4383 H       1  UNL1        0.0235
     47 H          29.6604   40.6570  -11.1516 H       1  UNL1        0.0235
     48 H          30.2761   42.9986  -11.3848 H       1  UNL1        0.0343
     49 H          29.9938   43.2363  -13.8340 H       1  UNL1        0.0235
     50 H          29.2012   44.5498  -12.9709 H       1  UNL1        0.0235
     51 H          28.2426   43.2350  -13.6393 H       1  UNL1        0.0235
     52 H          29.5668   43.9200   -9.3773 H       1  UNL1        0.0620
     53 H          27.7621   44.6448   -7.8443 H       1  UNL1        0.0618
     54 H          25.3841   44.2710   -8.4486 H       1  UNL1        0.0621
     55 H          26.6060   42.3516  -12.1012 H       1  UNL1        0.0624
     56 H          22.4263   44.1972  -10.6213 H       1  UNL1        0.0287
     57 H          23.9080   45.2820  -10.7304 H       1  UNL1        0.0287
     58 H          24.6596   43.9980  -12.7420 H       1  UNL1        0.0287
     59 H          23.1887   42.9092  -12.5934 H       1  UNL1        0.0287
     60 H          24.5625   41.1539  -10.1713 H       1  UNL1        0.1229
     61 H          22.5767   42.7716   -8.7809 H       1  UNL1        0.0450
     62 H          24.0881   42.2239   -8.1081 H       1  UNL1        0.0450
     63 H          21.7418   38.6452   -6.6760 H       1  UNL1        0.0332
     64 H          20.5814   39.5502   -5.7622 H       1  UNL1        0.0332
     65 H          21.1949   38.0712   -9.1584 H       1  UNL1        0.0620
     66 H          19.3457   37.3502  -10.6485 H       1  UNL1        0.0619
     67 H          17.0050   37.7667  -10.0378 H       1  UNL1        0.0654
     68 H          18.2996   39.7499   -6.4396 H       1  UNL1        0.0657
     69 H          15.0105   38.2166   -9.2140 H       1  UNL1        0.0696
     70 H          14.2197   39.3636   -8.1754 H       1  UNL1        0.0696
     71 H          16.2405   40.0862  -10.3556 H       1  UNL1        0.0298
     72 H          14.5237   40.3430  -10.4373 H       1  UNL1        0.0298
     73 H          14.5692   42.0779   -8.7773 H       1  UNL1        0.0281
     74 H          16.1369   41.6080   -8.1875 H       1  UNL1        0.0281
     75 H          17.1961   42.3107  -10.3732 H       1  UNL1        0.0461
     76 H          15.6230   42.7816  -10.9604 H       1  UNL1        0.0461
     77 H          15.6843   44.7159   -9.7167 H       1  UNL1        0.1461
     78 H          18.3026   42.3809   -8.4288 H       1  UNL1        0.0643
     79 H          19.9625   45.3686   -5.8049 H       1  UNL1        0.0632
     80 H          16.6588   46.3568   -8.3929 H       1  UNL1        0.0643
     81 H          16.8602   48.5936   -7.5765 H       1  UNL1        0.0309
     82 H          18.4377   48.4175   -8.3594 H       1  UNL1        0.0309
     83 H          18.2538   49.4935   -6.9697 H       1  UNL1        0.0309
     84 H          20.1833   41.7647   -8.3120 H       1  UNL1        0.1494
     85 H          24.0406   39.3841   -8.8304 H       1  UNL1        0.2099
@<TRIPOS>BOND
     1     1     2    1
     2     1    45    1
     3     1    46    1
     4     1    47    1
     5     2     3    1
     6     2     4    1
     7     2    48    1
     8     3    49    1
     9     3    50    1
    10     3    51    1
    11     4     9   ar
    12     4     5   ar
    13     5     6   ar
    14     5    52    1
    15     6     7   ar
    16     6    53    1
    17     7     8   ar
    18     7    54    1
    19     8     9   ar
    20     8    10    1
    21     9    55    1
    22    10    12    1
    23    10    11    1
    24    10    13    1
    25    11    12    1
    26    11    56    1
    27    11    57    1
    28    12    58    1
    29    12    59    1
    30    13    14    1
    31    13    60    1
    32    14    15    1
    33    14    61    1
    34    14    62    1
    35    15    43    1
    36    15    16    1
    37    15    42    1
    38    16    44    1
    39    16    41    1
    40    16    17    1
    41    17    18    1
    42    17    63    1
    43    17    64    1
    44    18    23   ar
    45    18    19   ar
    46    19    20   ar
    47    19    65    1
    48    20    21   ar
    49    20    66    1
    50    21    22   ar
    51    21    67    1
    52    22    23   ar
    53    22    24    1
    54    23    68    1
    55    24    25    1
    56    25    26    1
    57    25    69    1
    58    25    70    1
    59    26    27    1
    60    26    71    1
    61    26    72    1
    62    27    28    1
    63    27    73    1
    64    27    74    1
    65    28    29    1
    66    28    75    1
    67    28    76    1
    68    29    30    1
    69    29    77    1
    70    30    35   ar
    71    30    31   ar
    72    31    32   ar
    73    31    78    1
    74    32    33   ar
    75    32    39    1
    76    33    34   ar
    77    33    79    1
    78    34    35   ar
    79    34    36    1
    80    35    80    1
    81    36    37    2
    82    36    38    1
    83    38    81    1
    84    38    82    1
    85    38    83    1
    86    39    40    2
    87    39    41   am
    88    41    84    1
    89    42    85    1
