@<TRIPOS>MOLECULE
BACE_18.smi:1
 66 67 0 0 0
SMALL
GASTEIGER
****
Structure written by MMmdl.
@<TRIPOS>ATOM
      1 O          17.1973   44.5877   -8.6979 O.3     1  UNL1       -0.3924
      2 C          16.1139   44.6729   -7.7995 C.3     1  UNL1        0.0719
      3 C          14.8485   43.9899   -8.3887 C.3     1  UNL1        0.0965
      4 O          13.6686   44.5172   -7.7789 O.3     1  UNL1       -0.3877
      5 C          14.8085   42.4188   -8.3642 C.3     1  UNL1        0.0517
      6 N          14.2720   41.8745   -9.6137 N.am    1  UNL1       -0.3059
      7 C          14.8328   41.7500  -10.8273 C.2     1  UNL1        0.2445
      8 O          14.3933   40.9495  -11.6405 O.2     1  UNL1       -0.2702
      9 C          16.0560   41.6156   -7.8714 C.3     1  UNL1       -0.0294
     10 C          15.9547   40.0515   -7.9070 C.3     1  UNL1       -0.0421
     11 C          14.5990   39.5048   -7.4135 C.3     1  UNL1       -0.0624
     12 C          17.0473   39.3527   -7.0637 C.3     1  UNL1       -0.0504
     13 C          18.4983   39.4822   -7.5650 C.3     1  UNL1       -0.0528
     14 C          18.8343   38.4432   -8.6530 C.3     1  UNL1       -0.0530
     15 C          20.2841   38.5110   -9.1726 C.3     1  UNL1       -0.0530
     16 C          20.4087   39.1350  -10.5715 C.3     1  UNL1       -0.0500
     17 C          20.1361   40.6463  -10.5988 C.3     1  UNL1       -0.0186
     18 C          19.9045   41.1610  -12.0252 C.3     1  UNL1        0.0896
     19 O          19.6088   42.5517  -12.0390 O.3     1  UNL1       -0.4919
     20 C          18.3067   42.9693  -11.8621 C.ar    1  UNL1        0.1219
     21 C          17.2581   42.1431  -11.3857 C.ar    1  UNL1       -0.0078
     22 C          15.9548   42.6565  -11.2401 C.ar    1  UNL1        0.0409
     23 C          18.0274   44.3129  -12.1906 C.ar    1  UNL1       -0.0078
     24 C          16.7237   44.8451  -12.0546 C.ar    1  UNL1        0.0410
     25 C          15.6880   43.9857  -11.6345 C.ar    1  UNL1       -0.0373
     26 C          16.3940   46.2739  -12.4157 C.2     1  UNL1        0.2463
     27 O          15.3528   46.4971  -13.0395 O.2     1  UNL1       -0.2700
     28 N          17.2121   47.2814  -12.0185 N.am    1  UNL1       -0.3036
     29 C          18.3243   47.1624  -11.0724 C.3     1  UNL1        0.0031
     30 C          16.9369   48.6529  -12.4591 C.3     1  UNL1        0.0031
     31 H          14.7353   44.3571   -9.3978 H       1  UNL1        0.0635
     32 H          14.0604   42.1570   -7.6188 H       1  UNL1        0.0525
     33 H          16.0699   39.7255   -8.9419 H       1  UNL1        0.0299
     34 H          17.4438   43.6804   -8.7914 H       1  UNL1        0.2095
     35 H          16.4602   44.2637   -6.8501 H       1  UNL1        0.0583
     36 H          15.9154   45.7326   -7.6395 H       1  UNL1        0.0583
     37 H          12.9396   43.9793   -8.0537 H       1  UNL1        0.2100
     38 H          13.4583   41.2878   -9.4681 H       1  UNL1        0.1494
     39 H          16.9301   41.9106   -8.4485 H       1  UNL1        0.0286
     40 H          16.2595   41.9139   -6.8415 H       1  UNL1        0.0286
     41 H          14.3522   39.8959   -6.4257 H       1  UNL1        0.0232
     42 H          14.6057   38.4160   -7.3331 H       1  UNL1        0.0232
     43 H          13.7847   39.7388   -8.0960 H       1  UNL1        0.0232
     44 H          16.9663   39.7118   -6.0403 H       1  UNL1        0.0268
     45 H          16.8271   38.2853   -6.9828 H       1  UNL1        0.0268
     46 H          18.6987   40.5006   -7.8915 H       1  UNL1        0.0265
     47 H          19.1672   39.3117   -6.7188 H       1  UNL1        0.0265
     48 H          18.6720   37.4505   -8.2301 H       1  UNL1        0.0265
     49 H          18.1272   38.5218   -9.4803 H       1  UNL1        0.0265
     50 H          20.9338   39.0266   -8.4648 H       1  UNL1        0.0265
     51 H          20.6705   37.4943   -9.2366 H       1  UNL1        0.0265
     52 H          21.4093   38.9503  -10.9663 H       1  UNL1        0.0266
     53 H          19.7260   38.6158  -11.2476 H       1  UNL1        0.0266
     54 H          19.2675   40.8757   -9.9897 H       1  UNL1        0.0298
     55 H          20.9680   41.1807  -10.1411 H       1  UNL1        0.0298
     56 H          20.8123   41.0122  -12.6093 H       1  UNL1        0.0696
     57 H          19.1284   40.5896  -12.5324 H       1  UNL1        0.0696
     58 H          17.4201   41.1018  -11.1433 H       1  UNL1        0.0662
     59 H          18.8317   44.9303  -12.5606 H       1  UNL1        0.0662
     60 H          14.6742   44.3594  -11.5910 H       1  UNL1        0.0633
     61 H          18.1912   46.3437  -10.3681 H       1  UNL1        0.0428
     62 H          18.4331   48.0667  -10.4720 H       1  UNL1        0.0428
     63 H          19.2628   47.0077  -11.6051 H       1  UNL1        0.0428
     64 H          16.7595   48.6885  -13.5367 H       1  UNL1        0.0428
     65 H          17.7738   49.3237  -12.2604 H       1  UNL1        0.0428
     66 H          16.0551   49.0487  -11.9541 H       1  UNL1        0.0428
@<TRIPOS>BOND
     1     1     2    1
     2     1    34    1
     3     2     3    1
     4     2    35    1
     5     2    36    1
     6     3    31    1
     7     3     4    1
     8     3     5    1
     9     4    37    1
    10     5    32    1
    11     5     6    1
    12     5     9    1
    13     6     7   am
    14     6    38    1
    15     7    22    1
    16     7     8    2
    17     9    10    1
    18     9    39    1
    19     9    40    1
    20    10    33    1
    21    10    11    1
    22    10    12    1
    23    11    41    1
    24    11    42    1
    25    11    43    1
    26    12    13    1
    27    12    44    1
    28    12    45    1
    29    13    14    1
    30    13    46    1
    31    13    47    1
    32    14    15    1
    33    14    48    1
    34    14    49    1
    35    15    16    1
    36    15    50    1
    37    15    51    1
    38    16    17    1
    39    16    52    1
    40    16    53    1
    41    17    18    1
    42    17    54    1
    43    17    55    1
    44    18    19    1
    45    18    56    1
    46    18    57    1
    47    19    20    1
    48    20    21   ar
    49    20    23   ar
    50    21    22   ar
    51    21    58    1
    52    22    25   ar
    53    23    24   ar
    54    23    59    1
    55    24    25   ar
    56    24    26    1
    57    25    60    1
    58    26    27    2
    59    26    28   am
    60    28    29    1
    61    28    30    1
    62    29    61    1
    63    29    62    1
    64    29    63    1
    65    30    64    1
    66    30    65    1
    67    30    66    1
