@<TRIPOS>MOLECULE
BACE_11.smi:1
 81 83 0 0 0
SMALL
GASTEIGER
****
Structure written by MMmdl.
@<TRIPOS>ATOM
      1 C          15.0956   47.0578  -13.0386 C.3     1  UNL1       -0.0379
      2 C          15.9335   46.3747  -11.9394 C.3     1  UNL1        0.0991
      3 C          15.3302   45.0666  -11.3804 C.2     1  UNL1        0.2336
      4 O          14.1108   44.9014  -11.3731 O.2     1  UNL1       -0.2738
      5 N          16.1853   44.1575  -10.8786 N.am    1  UNL1       -0.3080
      6 C          15.8929   43.0168  -10.0037 C.3     1  UNL1        0.0580
      7 C          15.7485   43.5100   -8.5391 C.3     1  UNL1       -0.0065
      8 C          17.0446   44.0966   -8.0036 C.ar    1  UNL1       -0.0421
      9 C          17.9441   43.3049   -7.2568 C.ar    1  UNL1       -0.0583
     10 C          19.1718   43.8481   -6.8280 C.ar    1  UNL1       -0.0580
     11 C          19.5136   45.1761   -7.1516 C.ar    1  UNL1       -0.0199
     12 C          18.6136   45.9748   -7.8945 C.ar    1  UNL1        0.1208
     13 C          17.3770   45.4340   -8.2885 C.ar    1  UNL1       -0.0167
     14 O          18.8494   47.2663   -8.2943 O.3     1  UNL1       -0.4920
     15 C          20.0915   47.8764   -8.0119 C.3     1  UNL1        0.0896
     16 C          20.0568   49.2855   -8.6266 C.3     1  UNL1       -0.0186
     17 C          20.1690   49.3210  -10.1649 C.3     1  UNL1       -0.0495
     18 C          18.8703   49.6715  -10.9321 C.3     1  UNL1       -0.0447
     19 C          17.8159   48.5503  -11.1152 C.3     1  UNL1        0.0242
     20 C          18.2440   47.3816  -12.0328 C.2     1  UNL1        0.2159
     21 O          19.3858   47.3862  -12.4982 O.2     1  UNL1       -0.2756
     22 N          17.3717   46.3695  -12.3129 N.am    1  UNL1       -0.2932
     23 C          17.8459   45.2520  -13.1448 C.3     1  UNL1        0.0039
     24 C          14.7303   42.0941  -10.4633 C.3     1  UNL1        0.1132
     25 C          14.7452   40.6587   -9.8787 C.3     1  UNL1       -0.0049
     26 N          14.8761   40.6390   -8.3997 N.4     1  UNL1        0.2321
     27 C          15.6503   39.5146   -7.8174 C.3     1  UNL1       -0.0076
     28 C          16.8895   39.1627   -8.6219 C.ar    1  UNL1       -0.0027
     29 C          17.3990   37.8457   -8.6182 C.ar    1  UNL1       -0.0535
     30 C          18.5505   37.5314   -9.3696 C.ar    1  UNL1       -0.0611
     31 C          19.2010   38.5301  -10.1190 C.ar    1  UNL1       -0.0583
     32 C          18.6972   39.8498  -10.1342 C.ar    1  UNL1       -0.0444
     33 C          17.5315   40.1471   -9.4010 C.ar    1  UNL1       -0.0501
     34 C          19.4121   40.9558  -10.9015 C.3     1  UNL1       -0.0215
     35 C          18.4241   41.8861  -11.6152 C.3     1  UNL1       -0.0586
     36 C          20.4625   40.3918  -11.8726 C.3     1  UNL1       -0.0586
     37 O          13.5422   42.7113  -10.0278 O.3     1  UNL1       -0.3847
     38 H          15.8129   47.0152  -11.0659 H       1  UNL1        0.0594
     39 H          16.7967   42.4060  -10.0468 H       1  UNL1        0.0529
     40 H          14.7080   42.0407  -11.5499 H       1  UNL1        0.0666
     41 H          14.0749   47.2476  -12.7040 H       1  UNL1        0.0252
     42 H          15.0389   46.4408  -13.9358 H       1  UNL1        0.0252
     43 H          15.5255   48.0209  -13.3234 H       1  UNL1        0.0252
     44 H          17.1650   44.3833  -10.9690 H       1  UNL1        0.1491
     45 H          14.9541   44.2534   -8.4700 H       1  UNL1        0.0332
     46 H          15.4483   42.6971   -7.8770 H       1  UNL1        0.0332
     47 H          17.7055   42.2790   -7.0254 H       1  UNL1        0.0620
     48 H          19.8627   43.2364   -6.2661 H       1  UNL1        0.0619
     49 H          20.4730   45.5567   -6.8300 H       1  UNL1        0.0654
     50 H          16.6924   46.0512   -8.8504 H       1  UNL1        0.0657
     51 H          20.2274   47.9469   -6.9315 H       1  UNL1        0.0696
     52 H          20.9204   47.2963   -8.4199 H       1  UNL1        0.0696
     53 H          19.1677   49.8188   -8.2908 H       1  UNL1        0.0298
     54 H          20.8992   49.8414   -8.2146 H       1  UNL1        0.0298
     55 H          20.8886   50.0995  -10.4111 H       1  UNL1        0.0266
     56 H          20.6233   48.4038  -10.5377 H       1  UNL1        0.0266
     57 H          18.3969   50.5267  -10.4490 H       1  UNL1        0.0270
     58 H          19.1468   50.0338  -11.9242 H       1  UNL1        0.0270
     59 H          17.5151   48.1688  -10.1404 H       1  UNL1        0.0358
     60 H          16.9275   49.0101  -11.5529 H       1  UNL1        0.0358
     61 H          18.4785   44.5885  -12.5594 H       1  UNL1        0.0429
     62 H          18.4296   45.5937  -14.0014 H       1  UNL1        0.0429
     63 H          17.0230   44.6676  -13.5534 H       1  UNL1        0.0429
     64 H          13.7970   40.1710  -10.1087 H       1  UNL1        0.0840
     65 H          15.5205   40.0445  -10.3433 H       1  UNL1        0.0840
     66 H          15.2684   41.5153   -8.0789 H       1  UNL1        0.2018
     67 H          15.9779   39.7988   -6.8231 H       1  UNL1        0.0866
     68 H          15.0275   38.6334   -7.6729 H       1  UNL1        0.0866
     69 H          16.9191   37.0714   -8.0353 H       1  UNL1        0.0622
     70 H          18.9516   36.5270   -9.3650 H       1  UNL1        0.0618
     71 H          20.0920   38.2800  -10.6760 H       1  UNL1        0.0620
     72 H          17.1368   41.1517   -9.4257 H       1  UNL1        0.0625
     73 H          19.9501   41.5668  -10.1750 H       1  UNL1        0.0343
     74 H          17.7063   42.3183  -10.9187 H       1  UNL1        0.0235
     75 H          17.8719   41.3426  -12.3786 H       1  UNL1        0.0235
     76 H          18.9403   42.7096  -12.1088 H       1  UNL1        0.0235
     77 H          21.1765   39.7577  -11.3465 H       1  UNL1        0.0235
     78 H          21.0258   41.1937  -12.3504 H       1  UNL1        0.0235
     79 H          20.0124   39.7946  -12.6647 H       1  UNL1        0.0235
     80 H          13.0442   42.0918   -9.5092 H       1  UNL1        0.2101
     81 H          13.9504   40.5641   -8.0025 H       1  UNL1        0.2018
@<TRIPOS>BOND
     1     1     2    1
     2     1    41    1
     3     1    42    1
     4     1    43    1
     5     2    38    1
     6     2    22    1
     7     2     3    1
     8     3     4    2
     9     3     5   am
    10     5     6    1
    11     5    44    1
    12     6    39    1
    13     6     7    1
    14     6    24    1
    15     7     8    1
    16     7    45    1
    17     7    46    1
    18     8    13   ar
    19     8     9   ar
    20     9    10   ar
    21     9    47    1
    22    10    11   ar
    23    10    48    1
    24    11    12   ar
    25    11    49    1
    26    12    13   ar
    27    12    14    1
    28    13    50    1
    29    14    15    1
    30    15    16    1
    31    15    51    1
    32    15    52    1
    33    16    17    1
    34    16    53    1
    35    16    54    1
    36    17    18    1
    37    17    55    1
    38    17    56    1
    39    18    19    1
    40    18    57    1
    41    18    58    1
    42    19    20    1
    43    19    59    1
    44    19    60    1
    45    20    21    2
    46    20    22   am
    47    22    23    1
    48    23    61    1
    49    23    62    1
    50    23    63    1
    51    24    40    1
    52    24    25    1
    53    24    37    1
    54    25    26    1
    55    25    64    1
    56    25    65    1
    57    26    27    1
    58    26    66    1
    59    26    81    1
    60    27    28    1
    61    27    67    1
    62    27    68    1
    63    28    33   ar
    64    28    29   ar
    65    29    30   ar
    66    29    69    1
    67    30    31   ar
    68    30    70    1
    69    31    32   ar
    70    31    71    1
    71    32    33   ar
    72    32    34    1
    73    33    72    1
    74    34    35    1
    75    34    36    1
    76    34    73    1
    77    35    74    1
    78    35    75    1
    79    35    76    1
    80    36    77    1
    81    36    78    1
    82    36    79    1
    83    37    80    1
