@<TRIPOS>MOLECULE
BACE_5.smi:1
 80 81 0 0 0
SMALL
GASTEIGER
****
Structure written by MMmdl.
@<TRIPOS>ATOM
      1 C          21.6858   39.0413   -9.2807 C.3     1  UNL1       -0.0649
      2 C          20.2202   39.0738   -8.8320 C.3     1  UNL1       -0.0505
      3 C          19.4526   37.8174   -9.2677 C.3     1  UNL1       -0.0112
      4 C          18.0130   37.8251   -8.8695 C.ar    1  UNL1        0.0365
      5 C          17.3870   38.1498   -7.7018 C.ar    1  UNL1       -0.0128
      6 C          15.9967   38.1801   -8.0417 C.ar    1  UNL1        0.1072
      7 N          15.7765   37.7450   -9.2711 N.ar    1  UNL1       -0.1733
      8 N          17.0097   37.5057   -9.7495 N.ar    1  UNL1       -0.2812
      9 C          14.8402   38.7337   -7.2542 C.3     1  UNL1        0.0115
     10 N          15.2596   39.9318   -6.5015 N.4     1  UNL1        0.2333
     11 C          15.4455   41.1971   -7.2683 C.3     1  UNL1       -0.0049
     12 C          16.5526   41.1992   -8.3669 C.3     1  UNL1        0.1129
     13 C          17.2654   42.5356   -8.6945 C.3     1  UNL1        0.0543
     14 C          18.1208   43.0485   -7.5140 C.3     1  UNL1       -0.0293
     15 C          18.9250   44.3503   -7.7493 C.3     1  UNL1       -0.0421
     16 C          19.5708   44.8129   -6.4201 C.3     1  UNL1       -0.0504
     17 C          20.0242   46.2847   -6.3712 C.3     1  UNL1       -0.0528
     18 C          18.8474   47.2743   -6.2484 C.3     1  UNL1       -0.0530
     19 C          19.2015   48.7542   -6.4843 C.3     1  UNL1       -0.0510
     20 C          19.9266   49.0690   -7.8109 C.3     1  UNL1       -0.0294
     21 C          19.2888   48.4724   -9.0774 C.3     1  UNL1        0.0483
     22 O          18.0130   49.0512   -9.3300 O.3     1  UNL1       -0.3706
     23 C          17.3389   48.4686  -10.4469 C.3     1  UNL1        0.1238
     24 C          16.6145   47.1662  -10.0434 C.2     1  UNL1        0.2417
     25 O          16.4596   46.9404   -8.8439 O.2     1  UNL1       -0.2731
     26 N          16.1121   46.3421  -11.0011 N.am    1  UNL1       -0.2914
     27 C          15.2649   45.1837  -10.6103 C.3     1  UNL1        0.0991
     28 C          16.1465   43.9440  -10.4126 C.2     1  UNL1        0.2336
     29 O          16.6416   43.3698  -11.3848 O.2     1  UNL1       -0.2738
     30 N          16.3396   43.5719   -9.1355 N.am    1  UNL1       -0.3083
     31 C          14.1595   44.8843  -11.6518 C.3     1  UNL1       -0.0379
     32 C          16.5149   46.4885  -12.4095 C.3     1  UNL1        0.0040
     33 C          19.9732   44.1861   -8.8656 C.3     1  UNL1       -0.0624
     34 O          16.0342   40.7006   -9.5887 O.3     1  UNL1       -0.3847
     35 H          17.1543   37.1704  -10.6948 H       1  UNL1        0.1885
     36 H          17.3695   40.5644   -8.0457 H       1  UNL1        0.0666
     37 H          17.9666   42.3173   -9.5015 H       1  UNL1        0.0526
     38 H          18.2245   45.1158   -8.0690 H       1  UNL1        0.0299
     39 H          14.7524   45.3752   -9.6667 H       1  UNL1        0.0594
     40 H          22.2179   39.9311   -8.9458 H       1  UNL1        0.0230
     41 H          21.7688   38.9935  -10.3664 H       1  UNL1        0.0230
     42 H          22.2050   38.1747   -8.8688 H       1  UNL1        0.0230
     43 H          19.7357   39.9598   -9.2431 H       1  UNL1        0.0266
     44 H          20.1810   39.1747   -7.7473 H       1  UNL1        0.0266
     45 H          19.9387   36.9503   -8.8404 H       1  UNL1        0.0328
     46 H          19.5279   37.7110  -10.3505 H       1  UNL1        0.0328
     47 H          17.8580   38.4448   -6.7754 H       1  UNL1        0.0656
     48 H          14.4547   37.9908   -6.5612 H       1  UNL1        0.0882
     49 H          14.0037   38.9953   -7.9045 H       1  UNL1        0.0882
     50 H          16.1157   39.6968   -6.0215 H       1  UNL1        0.2018
     51 H          15.7616   41.8705   -6.4879 H       1  UNL1        0.0840
     52 H          14.4903   41.5646   -7.6509 H       1  UNL1        0.0840
     53 H          17.4529   43.2191   -6.6734 H       1  UNL1        0.0286
     54 H          18.8058   42.2613   -7.1999 H       1  UNL1        0.0286
     55 H          18.8621   44.6646   -5.6110 H       1  UNL1        0.0268
     56 H          20.4195   44.1637   -6.1934 H       1  UNL1        0.0268
     57 H          20.6355   46.4992   -7.2461 H       1  UNL1        0.0265
     58 H          20.6855   46.4269   -5.5166 H       1  UNL1        0.0265
     59 H          18.0596   47.0007   -6.9413 H       1  UNL1        0.0265
     60 H          18.4017   47.1715   -5.2595 H       1  UNL1        0.0265
     61 H          19.8115   49.1127   -5.6548 H       1  UNL1        0.0266
     62 H          18.2789   49.3344   -6.4478 H       1  UNL1        0.0266
     63 H          20.0033   50.1508   -7.9268 H       1  UNL1        0.0287
     64 H          20.9548   48.7129   -7.7430 H       1  UNL1        0.0287
     65 H          19.2195   47.3876   -8.9975 H       1  UNL1        0.0560
     66 H          19.9417   48.6752   -9.9282 H       1  UNL1        0.0560
     67 H          18.0372   48.3268  -11.2708 H       1  UNL1        0.0657
     68 H          16.5807   49.1731  -10.7869 H       1  UNL1        0.0657
     69 H          15.8976   44.1159   -8.4109 H       1  UNL1        0.1491
     70 H          13.4327   44.1835  -11.2409 H       1  UNL1        0.0252
     71 H          14.5327   44.4362  -12.5721 H       1  UNL1        0.0252
     72 H          13.6171   45.7885  -11.9232 H       1  UNL1        0.0252
     73 H          16.2579   45.6310  -13.0249 H       1  UNL1        0.0429
     74 H          17.5992   46.5714  -12.4995 H       1  UNL1        0.0429
     75 H          16.0600   47.3766  -12.8521 H       1  UNL1        0.0429
     76 H          20.5336   45.1052   -9.0276 H       1  UNL1        0.0232
     77 H          19.5073   43.9384   -9.8189 H       1  UNL1        0.0232
     78 H          20.6892   43.3966   -8.6303 H       1  UNL1        0.0232
     79 H          15.9565   39.7538   -9.5387 H       1  UNL1        0.2101
     80 H          14.5578   40.1131   -5.7860 H       1  UNL1        0.2018
@<TRIPOS>BOND
     1     1     2    1
     2     1    40    1
     3     1    41    1
     4     1    42    1
     5     2     3    1
     6     2    43    1
     7     2    44    1
     8     3     4    1
     9     3    45    1
    10     3    46    1
    11     4     8   ar
    12     4     5   ar
    13     5     6   ar
    14     5    47    1
    15     6     7   ar
    16     6     9    1
    17     7     8   ar
    18     8    35    1
    19     9    10    1
    20     9    48    1
    21     9    49    1
    22    10    11    1
    23    10    50    1
    24    10    80    1
    25    11    12    1
    26    11    51    1
    27    11    52    1
    28    12    36    1
    29    12    13    1
    30    12    34    1
    31    13    37    1
    32    13    30    1
    33    13    14    1
    34    14    15    1
    35    14    53    1
    36    14    54    1
    37    15    38    1
    38    15    16    1
    39    15    33    1
    40    16    17    1
    41    16    55    1
    42    16    56    1
    43    17    18    1
    44    17    57    1
    45    17    58    1
    46    18    19    1
    47    18    59    1
    48    18    60    1
    49    19    20    1
    50    19    61    1
    51    19    62    1
    52    20    21    1
    53    20    63    1
    54    20    64    1
    55    21    22    1
    56    21    65    1
    57    21    66    1
    58    22    23    1
    59    23    24    1
    60    23    67    1
    61    23    68    1
    62    24    25    2
    63    24    26   am
    64    26    27    1
    65    26    32    1
    66    27    39    1
    67    27    28    1
    68    27    31    1
    69    28    29    2
    70    28    30   am
    71    30    69    1
    72    31    70    1
    73    31    71    1
    74    31    72    1
    75    32    73    1
    76    32    74    1
    77    32    75    1
    78    33    76    1
    79    33    77    1
    80    33    78    1
    81    34    79    1
