@<TRIPOS>MOLECULE
BACE_9.smi:1
 87 89 0 0 0
SMALL
GASTEIGER
****
Structure written by MMmdl.
@<TRIPOS>ATOM
      1 C          18.7891   46.7451   -6.6500 C.3     1  UNL1       -0.0624
      2 C          19.1080   45.3178   -7.1246 C.3     1  UNL1       -0.0421
      3 C          20.6196   45.0358   -6.9963 C.3     1  UNL1       -0.0504
      4 C          20.9827   43.5794   -7.3067 C.3     1  UNL1       -0.0528
      5 C          22.4722   43.2578   -7.1121 C.3     1  UNL1       -0.0530
      6 C          22.7940   41.8070   -7.4985 C.3     1  UNL1       -0.0530
      7 C          22.2856   40.7821   -6.4624 C.3     1  UNL1       -0.0516
      8 C          22.3831   39.3193   -6.9256 C.3     1  UNL1       -0.0375
      9 C          21.1449   38.8174   -7.6791 C.3     1  UNL1        0.0091
     10 N          20.9739   39.4760   -8.9634 N.pl3   1  UNL1       -0.3438
     11 C          19.6547   39.6856   -9.3768 C.ar    1  UNL1        0.0282
     12 C          18.6653   38.6938   -9.2115 C.ar    1  UNL1       -0.0355
     13 C          17.3461   38.9187   -9.6414 C.ar    1  UNL1       -0.0195
     14 C          17.0141   40.1492  -10.2547 C.ar    1  UNL1       -0.0442
     15 C          17.9881   41.1623  -10.3894 C.ar    1  UNL1        0.0388
     16 C          19.3111   40.9188   -9.9629 C.ar    1  UNL1       -0.0287
     17 C          17.6251   42.4802  -11.0096 C.2     1  UNL1        0.2444
     18 O          17.2637   42.5476  -12.1846 O.2     1  UNL1       -0.2702
     19 N          17.6889   43.5913  -10.2547 N.am    1  UNL1       -0.3060
     20 C          17.8344   43.7421   -8.8053 C.3     1  UNL1        0.0508
     21 C          18.5799   45.0835   -8.5629 C.3     1  UNL1       -0.0295
     22 C          16.4586   43.6731   -8.0753 C.3     1  UNL1        0.0859
     23 C          15.3947   44.7579   -8.4279 C.3     1  UNL1        0.0240
     24 N          14.1674   44.2386   -9.0581 N.3     1  UNL1       -0.3095
     25 C          14.2730   43.8154  -10.4573 C.3     1  UNL1        0.0213
     26 C          14.3316   44.9508  -11.4735 C.ar    1  UNL1       -0.0333
     27 C          13.2192   45.2092  -12.2955 C.ar    1  UNL1       -0.0573
     28 C          13.2585   46.2621  -13.2303 C.ar    1  UNL1       -0.0612
     29 C          14.4110   47.0616  -13.3576 C.ar    1  UNL1       -0.0583
     30 C          15.5417   46.7965  -12.5588 C.ar    1  UNL1       -0.0445
     31 C          15.4894   45.7467  -11.6209 C.ar    1  UNL1       -0.0539
     32 C          16.8044   47.6412  -12.7050 C.3     1  UNL1       -0.0215
     33 C          18.0788   46.7844  -12.8327 C.3     1  UNL1       -0.0586
     34 C          16.9264   48.6533  -11.5562 C.3     1  UNL1       -0.0586
     35 O          15.9056   42.3664   -8.1201 O.3     1  UNL1       -0.3887
     36 C          16.3246   37.8049   -9.4647 C.3     1  UNL1        0.0724
     37 O          14.9750   38.2116   -9.6397 O.3     1  UNL1       -0.3784
     38 C          14.4167   38.8250   -8.4874 C.3     1  UNL1        0.0369
     39 H          18.5980   44.6434   -6.4381 H       1  UNL1        0.0299
     40 H          18.4594   42.9372   -8.4180 H       1  UNL1        0.0524
     41 H          16.6852   43.8132   -7.0177 H       1  UNL1        0.0624
     42 H          19.2812   47.4897   -7.2742 H       1  UNL1        0.0232
     43 H          19.1206   46.9006   -5.6232 H       1  UNL1        0.0232
     44 H          17.7161   46.9409   -6.6813 H       1  UNL1        0.0232
     45 H          21.1838   45.7003   -7.6531 H       1  UNL1        0.0268
     46 H          20.9427   45.2657   -5.9797 H       1  UNL1        0.0268
     47 H          20.3703   42.9305   -6.6812 H       1  UNL1        0.0265
     48 H          20.7204   43.3497   -8.3394 H       1  UNL1        0.0265
     49 H          23.0602   43.9255   -7.7439 H       1  UNL1        0.0265
     50 H          22.7815   43.4553   -6.0855 H       1  UNL1        0.0265
     51 H          22.3672   41.6151   -8.4811 H       1  UNL1        0.0265
     52 H          23.8708   41.6887   -7.6309 H       1  UNL1        0.0265
     53 H          22.8606   40.9066   -5.5423 H       1  UNL1        0.0266
     54 H          21.2530   40.9807   -6.1819 H       1  UNL1        0.0266
     55 H          23.2920   39.1519   -7.5018 H       1  UNL1        0.0280
     56 H          22.4598   38.6996   -6.0322 H       1  UNL1        0.0280
     57 H          21.2397   37.7503   -7.8603 H       1  UNL1        0.0461
     58 H          20.2614   38.9551   -7.0525 H       1  UNL1        0.0461
     59 H          21.6301   40.2191   -9.1543 H       1  UNL1        0.1461
     60 H          18.9203   37.7429   -8.7629 H       1  UNL1        0.0639
     61 H          16.0045   40.3262  -10.5957 H       1  UNL1        0.0628
     62 H          20.0613   41.6886  -10.0816 H       1  UNL1        0.0643
     63 H          17.4934   44.4447  -10.7531 H       1  UNL1        0.1494
     64 H          17.9312   45.9080   -8.8545 H       1  UNL1        0.0286
     65 H          19.4166   45.1627   -9.2583 H       1  UNL1        0.0286
     66 H          15.1026   45.2216   -7.4839 H       1  UNL1        0.0450
     67 H          15.8108   45.5788   -9.0003 H       1  UNL1        0.0450
     68 H          13.9081   43.4106   -8.5239 H       1  UNL1        0.1223
     69 H          15.1154   43.1460  -10.5932 H       1  UNL1        0.0473
     70 H          13.3983   43.2084  -10.6932 H       1  UNL1        0.0473
     71 H          12.3344   44.5955  -12.2064 H       1  UNL1        0.0621
     72 H          12.4053   46.4492  -13.8661 H       1  UNL1        0.0618
     73 H          14.4306   47.8636  -14.0817 H       1  UNL1        0.0620
     74 H          16.3506   45.5695  -11.0051 H       1  UNL1        0.0623
     75 H          16.7115   48.2095  -13.6318 H       1  UNL1        0.0343
     76 H          17.9966   46.0593  -13.6397 H       1  UNL1        0.0235
     77 H          18.2993   46.2387  -11.9144 H       1  UNL1        0.0235
     78 H          18.9461   47.4107  -13.0454 H       1  UNL1        0.0235
     79 H          16.0606   49.3134  -11.5300 H       1  UNL1        0.0235
     80 H          17.8143   49.2753  -11.6742 H       1  UNL1        0.0235
     81 H          16.9995   48.1557  -10.5890 H       1  UNL1        0.0235
     82 H          16.1815   41.8766   -7.3487 H       1  UNL1        0.2099
     83 H          16.5392   37.0373  -10.2070 H       1  UNL1        0.0610
     84 H          16.4519   37.3260   -8.4909 H       1  UNL1        0.0610
     85 H          13.3806   39.0889   -8.6946 H       1  UNL1        0.0524
     86 H          14.9485   39.7351   -8.2170 H       1  UNL1        0.0524
     87 H          14.4281   38.1503   -7.6323 H       1  UNL1        0.0524
@<TRIPOS>BOND
     1     1     2    1
     2     1    42    1
     3     1    43    1
     4     1    44    1
     5     2    39    1
     6     2    21    1
     7     2     3    1
     8     3     4    1
     9     3    45    1
    10     3    46    1
    11     4     5    1
    12     4    47    1
    13     4    48    1
    14     5     6    1
    15     5    49    1
    16     5    50    1
    17     6     7    1
    18     6    51    1
    19     6    52    1
    20     7     8    1
    21     7    53    1
    22     7    54    1
    23     8     9    1
    24     8    55    1
    25     8    56    1
    26     9    10    1
    27     9    57    1
    28     9    58    1
    29    10    11    1
    30    10    59    1
    31    11    16   ar
    32    11    12   ar
    33    12    13   ar
    34    12    60    1
    35    13    14   ar
    36    13    36    1
    37    14    15   ar
    38    14    61    1
    39    15    16   ar
    40    15    17    1
    41    16    62    1
    42    17    18    2
    43    17    19   am
    44    19    20    1
    45    19    63    1
    46    20    40    1
    47    20    21    1
    48    20    22    1
    49    21    64    1
    50    21    65    1
    51    22    41    1
    52    22    23    1
    53    22    35    1
    54    23    24    1
    55    23    66    1
    56    23    67    1
    57    24    25    1
    58    24    68    1
    59    25    26    1
    60    25    69    1
    61    25    70    1
    62    26    31   ar
    63    26    27   ar
    64    27    28   ar
    65    27    71    1
    66    28    29   ar
    67    28    72    1
    68    29    30   ar
    69    29    73    1
    70    30    31   ar
    71    30    32    1
    72    31    74    1
    73    32    33    1
    74    32    34    1
    75    32    75    1
    76    33    76    1
    77    33    77    1
    78    33    78    1
    79    34    79    1
    80    34    80    1
    81    34    81    1
    82    35    82    1
    83    36    37    1
    84    36    83    1
    85    36    84    1
    86    37    38    1
    87    38    85    1
    88    38    86    1
    89    38    87    1
