@<TRIPOS>MOLECULE
BACE_8.smi:1
 78 80 0 0 0
SMALL
GASTEIGER
****
Structure written by MMmdl.
@<TRIPOS>ATOM
      1 C          19.5282   45.8798   -7.1267 C.3     1  UNL1       -0.0623
      2 C          19.4197   46.3736   -8.5822 C.3     1  UNL1       -0.0400
      3 C          19.7082   47.8913   -8.6832 C.3     1  UNL1       -0.0268
      4 C          21.1743   48.2819   -8.4214 C.3     1  UNL1        0.0479
      5 O          21.9917   47.7322   -9.4415 O.3     1  UNL1       -0.3797
      6 C          23.3831   47.8622   -9.1885 C.3     1  UNL1        0.0477
      7 C          24.1898   47.2597  -10.3517 C.3     1  UNL1       -0.0281
      8 C          24.1643   45.7202  -10.4313 C.3     1  UNL1       -0.0354
      9 C          22.7685   45.1550  -10.7190 C.3     1  UNL1        0.0105
     10 N          22.7675   43.7128  -10.8961 N.pl3   1  UNL1       -0.3290
     11 C          21.5807   43.0410  -11.2040 C.ar    1  UNL1        0.1211
     12 C          20.3187   43.6763  -11.2418 C.ar    1  UNL1       -0.0097
     13 C          19.1886   42.9191  -11.6223 C.ar    1  UNL1        0.0428
     14 C          19.3672   41.5609  -11.9384 C.ar    1  UNL1       -0.0126
     15 C          20.6561   41.0141  -11.8435 C.ar    1  UNL1        0.1320
     16 N          21.7349   41.7362  -11.4881 N.ar    1  UNL1       -0.2208
     17 CL         20.8601   39.3500  -12.1917 Cl      1  UNL1       -0.0619
     18 C          17.8369   43.5413  -11.7980 C.2     1  UNL1        0.2446
     19 O          17.2144   43.3501  -12.8401 O.2     1  UNL1       -0.2702
     20 N          17.3024   44.2698  -10.8053 N.am    1  UNL1       -0.3058
     21 C          17.7790   44.4897   -9.4398 C.3     1  UNL1        0.0545
     22 C          18.0756   46.0157   -9.2749 C.3     1  UNL1       -0.0292
     23 C          16.7002   43.9118   -8.4793 C.3     1  UNL1        0.1130
     24 C          16.8515   42.3963   -8.2268 C.3     1  UNL1       -0.0050
     25 N          15.6431   41.7487   -7.6400 N.4     1  UNL1        0.2321
     26 C          15.7989   40.3568   -7.1256 C.3     1  UNL1       -0.0076
     27 C          16.8254   39.5270   -7.8916 C.ar    1  UNL1       -0.0027
     28 C          16.4296   38.6247   -8.8993 C.ar    1  UNL1       -0.0535
     29 C          17.4079   37.9318   -9.6398 C.ar    1  UNL1       -0.0611
     30 C          18.7795   38.1625   -9.4112 C.ar    1  UNL1       -0.0583
     31 C          19.1839   39.0640   -8.4049 C.ar    1  UNL1       -0.0444
     32 C          18.1995   39.6920   -7.6211 C.ar    1  UNL1       -0.0501
     33 C          20.6552   39.4013   -8.1904 C.3     1  UNL1       -0.0215
     34 C          21.1829   38.8215   -6.8723 C.3     1  UNL1       -0.0586
     35 C          20.9019   40.9198   -8.2300 C.3     1  UNL1       -0.0586
     36 O          16.8597   44.5394   -7.2400 O.3     1  UNL1       -0.3847
     37 H          20.1975   45.8626   -9.1402 H       1  UNL1        0.0299
     38 H          18.7022   43.9449   -9.2489 H       1  UNL1        0.0526
     39 H          15.7004   44.1454   -8.8493 H       1  UNL1        0.0666
     40 H          18.7642   46.3303   -6.4928 H       1  UNL1        0.0232
     41 H          20.4979   46.1117   -6.6895 H       1  UNL1        0.0232
     42 H          19.4262   44.7962   -7.0671 H       1  UNL1        0.0232
     43 H          19.4443   48.2511   -9.6782 H       1  UNL1        0.0290
     44 H          19.0606   48.4286   -7.9904 H       1  UNL1        0.0290
     45 H          21.2758   49.3675   -8.4314 H       1  UNL1        0.0560
     46 H          21.4992   47.9446   -7.4380 H       1  UNL1        0.0560
     47 H          23.6293   48.9204   -9.0844 H       1  UNL1        0.0560
     48 H          23.6495   47.3724   -8.2511 H       1  UNL1        0.0560
     49 H          23.8499   47.6886  -11.2947 H       1  UNL1        0.0288
     50 H          25.2292   47.5715  -10.2408 H       1  UNL1        0.0288
     51 H          24.8476   45.4033  -11.2201 H       1  UNL1        0.0281
     52 H          24.5494   45.2980   -9.5025 H       1  UNL1        0.0281
     53 H          22.1204   45.3754   -9.8775 H       1  UNL1        0.0462
     54 H          22.3441   45.6305  -11.6040 H       1  UNL1        0.0462
     55 H          23.6403   43.2083  -10.9619 H       1  UNL1        0.1474
     56 H          20.2130   44.7323  -11.0498 H       1  UNL1        0.0659
     57 H          18.5360   40.9432  -12.2477 H       1  UNL1        0.0655
     58 H          16.4094   44.6841  -11.0204 H       1  UNL1        0.1494
     59 H          17.2478   46.5240   -8.7781 H       1  UNL1        0.0286
     60 H          18.1118   46.4692  -10.2667 H       1  UNL1        0.0286
     61 H          17.0801   41.8946   -9.1683 H       1  UNL1        0.0840
     62 H          17.7110   42.2550   -7.5724 H       1  UNL1        0.0840
     63 H          15.3036   42.2976   -6.8547 H       1  UNL1        0.2018
     64 H          16.0600   40.3854   -6.0683 H       1  UNL1        0.0866
     65 H          14.8263   39.8633   -7.1589 H       1  UNL1        0.0866
     66 H          15.3822   38.4628   -9.1093 H       1  UNL1        0.0622
     67 H          17.1051   37.2399  -10.4112 H       1  UNL1        0.0618
     68 H          19.5161   37.6555  -10.0178 H       1  UNL1        0.0620
     69 H          18.5103   40.3636   -6.8401 H       1  UNL1        0.0625
     70 H          21.2194   38.9501   -9.0098 H       1  UNL1        0.0343
     71 H          21.0276   37.7484   -6.8395 H       1  UNL1        0.0235
     72 H          20.6732   39.2539   -6.0100 H       1  UNL1        0.0235
     73 H          22.2523   39.0069   -6.7574 H       1  UNL1        0.0235
     74 H          20.4428   41.3704   -9.1074 H       1  UNL1        0.0235
     75 H          21.9684   41.1441   -8.2600 H       1  UNL1        0.0235
     76 H          20.4856   41.4231   -7.3564 H       1  UNL1        0.0235
     77 H          16.2299   44.1895   -6.6166 H       1  UNL1        0.2101
     78 H          14.9224   41.7241   -8.3462 H       1  UNL1        0.2018
@<TRIPOS>BOND
     1     1     2    1
     2     1    40    1
     3     1    41    1
     4     1    42    1
     5     2    37    1
     6     2    22    1
     7     2     3    1
     8     3     4    1
     9     3    43    1
    10     3    44    1
    11     4     5    1
    12     4    45    1
    13     4    46    1
    14     5     6    1
    15     6     7    1
    16     6    47    1
    17     6    48    1
    18     7     8    1
    19     7    49    1
    20     7    50    1
    21     8     9    1
    22     8    51    1
    23     8    52    1
    24     9    10    1
    25     9    53    1
    26     9    54    1
    27    10    11    1
    28    10    55    1
    29    11    16   ar
    30    11    12   ar
    31    12    13   ar
    32    12    56    1
    33    13    14   ar
    34    13    18    1
    35    14    15   ar
    36    14    57    1
    37    15    16   ar
    38    15    17    1
    39    18    19    2
    40    18    20   am
    41    20    21    1
    42    20    58    1
    43    21    38    1
    44    21    22    1
    45    21    23    1
    46    22    59    1
    47    22    60    1
    48    23    39    1
    49    23    24    1
    50    23    36    1
    51    24    25    1
    52    24    61    1
    53    24    62    1
    54    25    26    1
    55    25    63    1
    56    25    78    1
    57    26    27    1
    58    26    64    1
    59    26    65    1
    60    27    32   ar
    61    27    28   ar
    62    28    29   ar
    63    28    66    1
    64    29    30   ar
    65    29    67    1
    66    30    31   ar
    67    30    68    1
    68    31    32   ar
    69    31    33    1
    70    32    69    1
    71    33    34    1
    72    33    35    1
    73    33    70    1
    74    34    71    1
    75    34    72    1
    76    34    73    1
    77    35    74    1
    78    35    75    1
    79    35    76    1
    80    36    77    1
