@<TRIPOS>MOLECULE
BACE_1.smi:1
 87 88 0 0 0
SMALL
GASTEIGER
****
Structure written by MMmdl.
@<TRIPOS>ATOM
      1 C          31.0238   43.7950   -9.2645 C.3     1  UNL1       -0.0652
      2 C          30.1581   42.6805   -9.8590 C.3     1  UNL1       -0.0545
      3 C          29.7179   42.9544  -11.3000 C.3     1  UNL1       -0.0376
      4 C          28.8168   41.8423  -11.8688 C.3     1  UNL1        0.0116
      5 N          27.4153   41.7894  -11.4290 N.am    1  UNL1       -0.3151
      6 C          26.6769   42.6570  -10.7104 C.2     1  UNL1        0.2159
      7 O          27.1348   43.5266   -9.9743 O.2     1  UNL1       -0.2755
      8 C          25.1617   42.5676  -10.9432 C.3     1  UNL1        0.0351
      9 C          24.6651   43.8576  -11.6245 C.3     1  UNL1       -0.0540
     10 C          24.3189   42.1957   -9.6978 C.3     1  UNL1       -0.0143
     11 C          23.2375   41.1310  -10.0148 C.3     1  UNL1        0.0742
     12 C          22.2843   40.8210   -8.8413 C.3     1  UNL1        0.0496
     13 C          21.4084   39.5777   -9.1498 C.3     1  UNL1       -0.0295
     14 C          20.3364   39.2315   -8.0882 C.3     1  UNL1       -0.0421
     15 C          19.2711   38.2715   -8.6597 C.3     1  UNL1       -0.0504
     16 C          18.0751   37.9673   -7.7280 C.3     1  UNL1       -0.0528
     17 C          17.3497   39.2011   -7.1519 C.3     1  UNL1       -0.0516
     18 C          16.7963   40.1647   -8.2124 C.3     1  UNL1       -0.0371
     19 C          16.1523   41.4230   -7.5983 C.3     1  UNL1        0.0150
     20 N          15.8058   42.4177   -8.6283 N.am    1  UNL1       -0.2978
     21 C          16.4214   43.6210   -8.8039 C.2     1  UNL1        0.2467
     22 O          15.9663   44.4904   -9.5540 O.2     1  UNL1       -0.2700
     23 C          17.6742   43.9431   -8.0310 C.ar    1  UNL1        0.0411
     24 C          18.8253   43.1279   -8.1040 C.ar    1  UNL1       -0.0373
     25 C          19.9822   43.4377   -7.3505 C.ar    1  UNL1        0.0409
     26 C          19.9786   44.5727   -6.5117 C.ar    1  UNL1       -0.0078
     27 C          18.8576   45.4247   -6.4761 C.ar    1  UNL1        0.1219
     28 C          17.7196   45.1143   -7.2489 C.ar    1  UNL1       -0.0078
     29 O          18.8605   46.5131   -5.6428 O.3     1  UNL1       -0.4922
     30 C          19.2192   47.7400   -6.2644 C.3     1  UNL1        0.0868
     31 C          17.9869   48.4635   -6.8166 C.3     1  UNL1       -0.0307
     32 C          21.1781   42.5300   -7.3826 C.2     1  UNL1        0.2445
     33 O          21.8529   42.3243   -6.3750 O.2     1  UNL1       -0.2702
     34 N          21.4285   41.9752   -8.5769 N.am    1  UNL1       -0.3060
     35 C          14.5680   42.0992   -9.3589 C.3     1  UNL1        0.0121
     36 C          14.8336   41.7562  -10.8346 C.3     1  UNL1       -0.0493
     37 C          20.9810   38.6950   -6.8048 C.3     1  UNL1       -0.0624
     38 O          22.4596   41.5233  -11.1313 O.3     1  UNL1       -0.3899
     39 H          25.0410   41.7496  -11.6399 H       1  UNL1        0.0392
     40 H          23.7456   40.2084  -10.2943 H       1  UNL1        0.0612
     41 H          22.8989   40.6015   -7.9665 H       1  UNL1        0.0524
     42 H          19.8058   40.1421   -7.8305 H       1  UNL1        0.0299
     43 H          31.3278   43.5470   -8.2500 H       1  UNL1        0.0230
     44 H          30.4778   44.7360   -9.2280 H       1  UNL1        0.0230
     45 H          31.9230   43.9527   -9.8552 H       1  UNL1        0.0230
     46 H          30.7213   41.7509   -9.8452 H       1  UNL1        0.0263
     47 H          29.2759   42.5298   -9.2401 H       1  UNL1        0.0263
     48 H          29.2342   43.9280  -11.3819 H       1  UNL1        0.0280
     49 H          30.6096   43.0231  -11.9204 H       1  UNL1        0.0280
     50 H          28.7804   41.9585  -12.9553 H       1  UNL1        0.0462
     51 H          29.2743   40.8666  -11.6905 H       1  UNL1        0.0462
     52 H          26.8788   41.0743  -11.8972 H       1  UNL1        0.1487
     53 H          25.2682   44.0939  -12.5031 H       1  UNL1        0.0237
     54 H          24.7227   44.7107  -10.9490 H       1  UNL1        0.0237
     55 H          23.6309   43.7672  -11.9540 H       1  UNL1        0.0237
     56 H          24.9587   41.8020   -8.9070 H       1  UNL1        0.0298
     57 H          23.8622   43.0944   -9.2781 H       1  UNL1        0.0298
     58 H          20.9038   39.7355  -10.1022 H       1  UNL1        0.0286
     59 H          22.0523   38.7104   -9.3079 H       1  UNL1        0.0286
     60 H          18.8826   38.6833   -9.5901 H       1  UNL1        0.0268
     61 H          19.7510   37.3393   -8.9445 H       1  UNL1        0.0268
     62 H          17.3505   37.3546   -8.2681 H       1  UNL1        0.0265
     63 H          18.4118   37.3501   -6.8945 H       1  UNL1        0.0265
     64 H          16.5283   38.8646   -6.5159 H       1  UNL1        0.0266
     65 H          18.0243   39.7417   -6.4869 H       1  UNL1        0.0266
     66 H          17.5912   40.4617   -8.8942 H       1  UNL1        0.0280
     67 H          16.0589   39.6394   -8.8216 H       1  UNL1        0.0280
     68 H          15.2589   41.1449   -7.0333 H       1  UNL1        0.0464
     69 H          16.8081   41.8501   -6.8421 H       1  UNL1        0.0464
     70 H          18.8098   42.2475   -8.7273 H       1  UNL1        0.0633
     71 H          20.8387   44.7976   -5.8988 H       1  UNL1        0.0662
     72 H          16.8582   45.7666   -7.2398 H       1  UNL1        0.0662
     73 H          19.6862   48.3646   -5.5020 H       1  UNL1        0.0694
     74 H          19.9669   47.5894   -7.0472 H       1  UNL1        0.0694
     75 H          18.2463   49.4678   -7.1520 H       1  UNL1        0.0262
     76 H          17.2178   48.5532   -6.0518 H       1  UNL1        0.0262
     77 H          17.5603   47.9371   -7.6691 H       1  UNL1        0.0262
     78 H          20.8818   42.2921   -9.3636 H       1  UNL1        0.1494
     79 H          14.0600   41.2476   -8.9014 H       1  UNL1        0.0462
     80 H          13.8635   42.9298   -9.2851 H       1  UNL1        0.0462
     81 H          13.9041   41.4759  -11.3302 H       1  UNL1        0.0245
     82 H          15.5239   40.9180  -10.9268 H       1  UNL1        0.0245
     83 H          15.2575   42.6036  -11.3712 H       1  UNL1        0.0245
     84 H          21.4971   37.7509   -6.9785 H       1  UNL1        0.0232
     85 H          20.2269   38.5399   -6.0400 H       1  UNL1        0.0232
     86 H          21.7029   39.3951   -6.3890 H       1  UNL1        0.0232
     87 H          22.9734   41.3487  -11.9136 H       1  UNL1        0.2099
@<TRIPOS>BOND
     1     1     2    1
     2     1    43    1
     3     1    44    1
     4     1    45    1
     5     2     3    1
     6     2    46    1
     7     2    47    1
     8     3     4    1
     9     3    48    1
    10     3    49    1
    11     4     5    1
    12     4    50    1
    13     4    51    1
    14     5     6   am
    15     5    52    1
    16     6     7    2
    17     6     8    1
    18     8    39    1
    19     8     9    1
    20     8    10    1
    21     9    53    1
    22     9    54    1
    23     9    55    1
    24    10    11    1
    25    10    56    1
    26    10    57    1
    27    11    40    1
    28    11    12    1
    29    11    38    1
    30    12    41    1
    31    12    34    1
    32    12    13    1
    33    13    14    1
    34    13    58    1
    35    13    59    1
    36    14    42    1
    37    14    15    1
    38    14    37    1
    39    15    16    1
    40    15    60    1
    41    15    61    1
    42    16    17    1
    43    16    62    1
    44    16    63    1
    45    17    18    1
    46    17    64    1
    47    17    65    1
    48    18    19    1
    49    18    66    1
    50    18    67    1
    51    19    20    1
    52    19    68    1
    53    19    69    1
    54    20    21   am
    55    20    35    1
    56    21    22    2
    57    21    23    1
    58    23    28   ar
    59    23    24   ar
    60    24    25   ar
    61    24    70    1
    62    25    26   ar
    63    25    32    1
    64    26    27   ar
    65    26    71    1
    66    27    28   ar
    67    27    29    1
    68    28    72    1
    69    29    30    1
    70    30    31    1
    71    30    73    1
    72    30    74    1
    73    31    75    1
    74    31    76    1
    75    31    77    1
    76    32    33    2
    77    32    34   am
    78    34    78    1
    79    35    36    1
    80    35    79    1
    81    35    80    1
    82    36    81    1
    83    36    82    1
    84    36    83    1
    85    37    84    1
    86    37    85    1
    87    37    86    1
    88    38    87    1
