@<TRIPOS>MOLECULE
BACE_5.smi:1
 79 80 0 0 0
SMALL
GASTEIGER
****
Structure written by MMmdl.
@<TRIPOS>ATOM
      1 C          28.8702   44.4685  -14.1273 C.3     1  UNL1       -0.0649
      2 C          27.6110   45.1334  -13.5557 C.3     1  UNL1       -0.0504
      3 C          27.5002   45.0371  -12.0249 C.3     1  UNL1       -0.0089
      4 C          27.0760   43.6808  -11.5337 C.ar    1  UNL1        0.0631
      5 C          25.7922   43.3042  -11.0442 C.ar    1  UNL1       -0.0168
      6 C          25.9351   41.9927  -10.6839 C.ar    1  UNL1        0.0501
      7 N          27.2347   41.6541  -10.9833 N.ar    1  UNL1       -0.2801
      8 N          27.9445   42.6806  -11.4901 N.ar    1  UNL1       -0.1786
      9 C          24.9759   41.0191  -10.0777 C.3     1  UNL1        0.0380
     10 N          23.8405   41.6702   -9.4212 N.3     1  UNL1       -0.3081
     11 C          23.0668   40.7682   -8.5676 C.3     1  UNL1        0.0240
     12 C          22.1793   39.7635   -9.3519 C.3     1  UNL1        0.0859
     13 C          20.6645   40.0856   -9.2349 C.3     1  UNL1        0.0505
     14 C          19.7145   38.8706   -9.4329 C.3     1  UNL1       -0.0295
     15 C          18.2446   39.1252   -9.0147 C.3     1  UNL1       -0.0421
     16 C          17.3705   39.5839  -10.1981 C.3     1  UNL1       -0.0504
     17 C          16.0572   40.2605   -9.7744 C.3     1  UNL1       -0.0528
     18 C          15.3020   40.8392  -10.9806 C.3     1  UNL1       -0.0530
     19 C          14.0249   41.6228  -10.6238 C.3     1  UNL1       -0.0510
     20 C          14.2126   42.8517   -9.7105 C.3     1  UNL1       -0.0294
     21 C          15.3794   43.7755  -10.0855 C.3     1  UNL1        0.0483
     22 O          15.2918   44.1917  -11.4445 O.3     1  UNL1       -0.3706
     23 C          16.3863   44.9921  -11.8898 C.3     1  UNL1        0.1238
     24 C          17.6628   44.1355  -12.0407 C.2     1  UNL1        0.2417
     25 O          17.6959   43.3499  -12.9906 O.2     1  UNL1       -0.2731
     26 N          18.6677   44.2367  -11.1285 N.am    1  UNL1       -0.2914
     27 C          19.8307   43.3152  -11.1630 C.3     1  UNL1        0.0991
     28 C          19.8938   42.3551   -9.9576 C.2     1  UNL1        0.2336
     29 O          19.5711   42.7248   -8.8303 O.2     1  UNL1       -0.2738
     30 N          20.3699   41.1277  -10.2174 N.am    1  UNL1       -0.3084
     31 C          21.1494   44.1067  -11.2843 C.3     1  UNL1       -0.0379
     32 C          18.6370   45.2579  -10.0693 C.3     1  UNL1        0.0040
     33 C          17.6421   37.8759   -8.3441 C.3     1  UNL1       -0.0624
     34 O          22.4598   38.4831   -8.8402 O.3     1  UNL1       -0.3887
     35 H          27.6504   40.7371  -10.8459 H       1  UNL1        0.1886
     36 H          22.4619   39.7214  -10.4063 H       1  UNL1        0.0624
     37 H          20.4841   40.4460   -8.2195 H       1  UNL1        0.0524
     38 H          18.2406   39.9145   -8.2627 H       1  UNL1        0.0299
     39 H          19.7838   42.6860  -12.0512 H       1  UNL1        0.0594
     40 H          28.9499   44.6387  -15.2015 H       1  UNL1        0.0230
     41 H          28.8615   43.3901  -13.9682 H       1  UNL1        0.0230
     42 H          29.7725   44.8648  -13.6598 H       1  UNL1        0.0230
     43 H          26.7189   44.7200  -14.0264 H       1  UNL1        0.0266
     44 H          27.6394   46.1884  -13.8334 H       1  UNL1        0.0266
     45 H          26.7696   45.7715  -11.6872 H       1  UNL1        0.0329
     46 H          28.4432   45.3314  -11.5625 H       1  UNL1        0.0329
     47 H          24.9041   43.9085  -10.9534 H       1  UNL1        0.0654
     48 H          25.5232   40.4192   -9.3454 H       1  UNL1        0.0489
     49 H          24.6215   40.3282  -10.8404 H       1  UNL1        0.0489
     50 H          23.2221   42.0400  -10.1406 H       1  UNL1        0.1224
     51 H          22.4419   41.3678   -7.9058 H       1  UNL1        0.0450
     52 H          23.7479   40.2398   -7.8986 H       1  UNL1        0.0450
     53 H          19.7687   38.4950  -10.4552 H       1  UNL1        0.0286
     54 H          20.0763   38.0498   -8.8134 H       1  UNL1        0.0286
     55 H          17.9262   40.2856  -10.8187 H       1  UNL1        0.0268
     56 H          17.1560   38.7293  -10.8395 H       1  UNL1        0.0268
     57 H          16.2839   41.0554   -9.0650 H       1  UNL1        0.0265
     58 H          15.4146   39.5554   -9.2475 H       1  UNL1        0.0265
     59 H          15.9715   41.4747  -11.5621 H       1  UNL1        0.0265
     60 H          15.0261   40.0158  -11.6391 H       1  UNL1        0.0265
     61 H          13.3117   40.9519  -10.1419 H       1  UNL1        0.0266
     62 H          13.5529   41.9495  -11.5506 H       1  UNL1        0.0266
     63 H          13.2845   43.4269   -9.7056 H       1  UNL1        0.0287
     64 H          14.3563   42.5145   -8.6816 H       1  UNL1        0.0287
     65 H          16.3144   43.2547   -9.8864 H       1  UNL1        0.0560
     66 H          15.3706   44.6509   -9.4365 H       1  UNL1        0.0560
     67 H          16.5019   45.8664  -11.2524 H       1  UNL1        0.0657
     68 H          16.1330   45.3794  -12.8760 H       1  UNL1        0.0657
     69 H          20.5948   40.9097  -11.1749 H       1  UNL1        0.1491
     70 H          21.9700   43.4507  -11.5766 H       1  UNL1        0.0252
     71 H          21.4426   44.5822  -10.3474 H       1  UNL1        0.0252
     72 H          21.0782   44.8899  -12.0400 H       1  UNL1        0.0252
     73 H          19.5228   45.2419   -9.4337 H       1  UNL1        0.0429
     74 H          17.7858   45.1124   -9.4037 H       1  UNL1        0.0429
     75 H          18.5743   46.2616  -10.4980 H       1  UNL1        0.0429
     76 H          16.6247   38.0490   -7.9950 H       1  UNL1        0.0232
     77 H          18.2207   37.5785   -7.4690 H       1  UNL1        0.0232
     78 H          17.6201   37.0282   -9.0282 H       1  UNL1        0.0232
     79 H          23.3473   38.2543   -9.1177 H       1  UNL1        0.2099
@<TRIPOS>BOND
     1     1     2    1
     2     1    40    1
     3     1    41    1
     4     1    42    1
     5     2     3    1
     6     2    43    1
     7     2    44    1
     8     3    45    1
     9     3    46    1
    10     3     4    1
    11     4     8   ar
    12     4     5   ar
    13     5     6   ar
    14     5    47    1
    15     6     7   ar
    16     6     9    1
    17     7     8   ar
    18     7    35    1
    19     9    10    1
    20     9    48    1
    21     9    49    1
    22    10    11    1
    23    10    50    1
    24    11    12    1
    25    11    51    1
    26    11    52    1
    27    12    36    1
    28    12    13    1
    29    12    34    1
    30    13    37    1
    31    13    30    1
    32    13    14    1
    33    14    15    1
    34    14    53    1
    35    14    54    1
    36    15    38    1
    37    15    16    1
    38    15    33    1
    39    16    17    1
    40    16    55    1
    41    16    56    1
    42    17    18    1
    43    17    57    1
    44    17    58    1
    45    18    19    1
    46    18    59    1
    47    18    60    1
    48    19    20    1
    49    19    61    1
    50    19    62    1
    51    20    21    1
    52    20    63    1
    53    20    64    1
    54    21    22    1
    55    21    65    1
    56    21    66    1
    57    22    23    1
    58    23    24    1
    59    23    67    1
    60    23    68    1
    61    24    25    2
    62    24    26   am
    63    26    27    1
    64    26    32    1
    65    27    39    1
    66    27    28    1
    67    27    31    1
    68    28    29    2
    69    28    30   am
    70    30    69    1
    71    31    70    1
    72    31    71    1
    73    31    72    1
    74    32    73    1
    75    32    74    1
    76    32    75    1
    77    33    76    1
    78    33    77    1
    79    33    78    1
    80    34    79    1
