@<TRIPOS>MOLECULE
BACE_14.smi:1
 86 90 0 0 0
SMALL
GASTEIGER
****
Structure written by MMmdl.
@<TRIPOS>ATOM
      1 C          21.9836   39.7759  -10.2073 C.3     1  UNL1       -0.0586
      2 C          20.4921   40.1264  -10.3879 C.3     1  UNL1       -0.0215
      3 C          20.0380   39.6427  -11.7768 C.3     1  UNL1       -0.0586
      4 C          19.5842   39.6011   -9.2646 C.ar    1  UNL1       -0.0443
      5 C          20.1178   39.0535   -8.0745 C.ar    1  UNL1       -0.0583
      6 C          19.2662   38.5521   -7.0744 C.ar    1  UNL1       -0.0610
      7 C          17.8726   38.5730   -7.2499 C.ar    1  UNL1       -0.0529
      8 C          17.3134   39.1350   -8.4159 C.ar    1  UNL1        0.0034
      9 C          18.1758   39.6661   -9.4023 C.ar    1  UNL1       -0.0495
     10 C          15.8200   39.1557   -8.6007 C.3     1  UNL1        0.0145
     11 C          15.0654   37.9108   -8.9893 C.3     1  UNL1        0.0032
     12 C          15.1629   39.0555   -9.9640 C.3     1  UNL1        0.0032
     13 N          15.0761   39.9939   -7.6311 N.4     1  UNL1        0.2365
     14 C          15.5006   41.4112   -7.5631 C.3     1  UNL1       -0.0044
     15 C          15.4081   42.1657   -8.9201 C.3     1  UNL1        0.1133
     16 C          16.2685   43.4551   -9.0225 C.3     1  UNL1        0.0583
     17 C          16.2444   44.0066  -10.4722 C.3     1  UNL1       -0.0065
     18 C          17.2008   45.1581  -10.7311 C.ar    1  UNL1       -0.0421
     19 C          16.7867   46.4910  -10.5362 C.ar    1  UNL1       -0.0583
     20 C          17.6929   47.5453  -10.7535 C.ar    1  UNL1       -0.0580
     21 C          19.0213   47.2705  -11.1343 C.ar    1  UNL1       -0.0199
     22 C          19.4526   45.9325  -11.3153 C.ar    1  UNL1        0.1208
     23 C          18.5221   44.8903  -11.1453 C.ar    1  UNL1       -0.0167
     24 O          20.7403   45.5682  -11.6397 O.3     1  UNL1       -0.4920
     25 C          21.7624   46.5462  -11.5106 C.3     1  UNL1        0.0896
     26 C          23.1294   45.8529  -11.4335 C.3     1  UNL1       -0.0172
     27 C          23.3124   44.9961  -10.1661 C.3     1  UNL1       -0.0344
     28 C          22.8669   43.5341  -10.3398 C.3     1  UNL1        0.0092
     29 N          22.9477   42.7902   -9.0875 N.pl3   1  UNL1       -0.3438
     30 C          21.9584   42.9023   -8.0987 C.ar    1  UNL1        0.0285
     31 C          20.6436   43.3433   -8.3763 C.ar    1  UNL1       -0.0287
     32 C          19.6916   43.4511   -7.3431 C.ar    1  UNL1        0.0391
     33 C          20.0604   43.1394   -6.0196 C.ar    1  UNL1       -0.0390
     34 C          21.3610   42.6685   -5.7233 C.ar    1  UNL1        0.0196
     35 C          22.2954   42.5494   -6.7753 C.ar    1  UNL1       -0.0303
     36 C          21.7546   42.2894   -4.3361 C.2     1  UNL1        0.1602
     37 O          22.8668   41.8527   -4.0398 O.2     1  UNL1       -0.2924
     38 C          20.7162   42.4559   -3.2277 C.3     1  UNL1       -0.0014
     39 C          18.2998   43.9188   -7.6348 C.2     1  UNL1        0.2445
     40 O          17.8123   44.8564   -7.0060 O.2     1  UNL1       -0.2702
     41 N          17.6498   43.2214   -8.5816 N.am    1  UNL1       -0.3055
     42 O          14.0619   42.5466   -9.1534 O.3     1  UNL1       -0.3847
     43 H          15.7250   41.5112   -9.7297 H       1  UNL1        0.0666
     44 H          15.8178   44.2091   -8.3710 H       1  UNL1        0.0529
     45 H          22.5790   40.1607  -11.0344 H       1  UNL1        0.0235
     46 H          22.1434   38.6981  -10.1641 H       1  UNL1        0.0235
     47 H          22.3972   40.2065   -9.2967 H       1  UNL1        0.0235
     48 H          20.4082   41.2119  -10.3676 H       1  UNL1        0.0343
     49 H          20.6958   40.0258  -12.5575 H       1  UNL1        0.0235
     50 H          19.0334   39.9785  -12.0311 H       1  UNL1        0.0235
     51 H          20.0568   38.5551  -11.8389 H       1  UNL1        0.0235
     52 H          21.1820   38.9941   -7.9027 H       1  UNL1        0.0620
     53 H          19.6848   38.1395   -6.1687 H       1  UNL1        0.0618
     54 H          17.2392   38.1549   -6.4799 H       1  UNL1        0.0622
     55 H          17.7430   40.1035  -10.2860 H       1  UNL1        0.0625
     56 H          15.6429   37.0122   -9.2047 H       1  UNL1        0.0329
     57 H          14.0774   37.7557   -8.5635 H       1  UNL1        0.0329
     58 H          14.2416   39.6036  -10.1541 H       1  UNL1        0.0329
     59 H          15.7954   38.9026  -10.8340 H       1  UNL1        0.0329
     60 H          15.1971   39.5919   -6.7089 H       1  UNL1        0.2023
     61 H          16.5065   41.4383   -7.1461 H       1  UNL1        0.0840
     62 H          14.8587   41.8916   -6.8404 H       1  UNL1        0.0840
     63 H          16.4922   43.2071  -11.1719 H       1  UNL1        0.0332
     64 H          15.2339   44.3266  -10.7372 H       1  UNL1        0.0332
     65 H          15.7775   46.7083  -10.2204 H       1  UNL1        0.0620
     66 H          17.3757   48.5678  -10.6122 H       1  UNL1        0.0619
     67 H          19.6936   48.1034  -11.2822 H       1  UNL1        0.0654
     68 H          18.8458   43.8703  -11.2850 H       1  UNL1        0.0657
     69 H          21.7317   47.2147  -12.3718 H       1  UNL1        0.0696
     70 H          21.6288   47.1500  -10.6113 H       1  UNL1        0.0696
     71 H          23.3045   45.2547  -12.3299 H       1  UNL1        0.0298
     72 H          23.8946   46.6301  -11.4353 H       1  UNL1        0.0298
     73 H          24.3664   45.0044   -9.8849 H       1  UNL1        0.0281
     74 H          22.7804   45.4577   -9.3324 H       1  UNL1        0.0281
     75 H          21.8696   43.4692  -10.7687 H       1  UNL1        0.0461
     76 H          23.5192   43.0432  -11.0658 H       1  UNL1        0.0461
     77 H          23.8627   42.4599   -8.8111 H       1  UNL1        0.1461
     78 H          20.3511   43.6116   -9.3778 H       1  UNL1        0.0643
     79 H          19.3172   43.2333   -5.2422 H       1  UNL1        0.0632
     80 H          23.2927   42.1929   -6.5659 H       1  UNL1        0.0643
     81 H          19.8740   41.7832   -3.3926 H       1  UNL1        0.0309
     82 H          20.3484   43.4818   -3.1960 H       1  UNL1        0.0309
     83 H          21.1553   42.2227   -2.2575 H       1  UNL1        0.0309
     84 H          18.1553   42.4609   -9.0109 H       1  UNL1        0.1494
     85 H          13.4738   41.8093   -9.0372 H       1  UNL1        0.2101
     86 H          14.0886   39.9533   -7.8416 H       1  UNL1        0.2023
@<TRIPOS>BOND
     1     1     2    1
     2     1    45    1
     3     1    46    1
     4     1    47    1
     5     2     3    1
     6     2     4    1
     7     2    48    1
     8     3    49    1
     9     3    50    1
    10     3    51    1
    11     4     9   ar
    12     4     5   ar
    13     5     6   ar
    14     5    52    1
    15     6     7   ar
    16     6    53    1
    17     7     8   ar
    18     7    54    1
    19     8     9   ar
    20     8    10    1
    21     9    55    1
    22    10    12    1
    23    10    11    1
    24    10    13    1
    25    11    12    1
    26    11    56    1
    27    11    57    1
    28    12    58    1
    29    12    59    1
    30    13    14    1
    31    13    60    1
    32    13    86    1
    33    14    15    1
    34    14    61    1
    35    14    62    1
    36    15    43    1
    37    15    16    1
    38    15    42    1
    39    16    44    1
    40    16    41    1
    41    16    17    1
    42    17    18    1
    43    17    63    1
    44    17    64    1
    45    18    23   ar
    46    18    19   ar
    47    19    20   ar
    48    19    65    1
    49    20    21   ar
    50    20    66    1
    51    21    22   ar
    52    21    67    1
    53    22    23   ar
    54    22    24    1
    55    23    68    1
    56    24    25    1
    57    25    26    1
    58    25    69    1
    59    25    70    1
    60    26    27    1
    61    26    71    1
    62    26    72    1
    63    27    28    1
    64    27    73    1
    65    27    74    1
    66    28    29    1
    67    28    75    1
    68    28    76    1
    69    29    30    1
    70    29    77    1
    71    30    35   ar
    72    30    31   ar
    73    31    32   ar
    74    31    78    1
    75    32    33   ar
    76    32    39    1
    77    33    34   ar
    78    33    79    1
    79    34    35   ar
    80    34    36    1
    81    35    80    1
    82    36    37    2
    83    36    38    1
    84    38    81    1
    85    38    82    1
    86    38    83    1
    87    39    40    2
    88    39    41   am
    89    41    84    1
    90    42    85    1
