@<TRIPOS>MOLECULE
BACE_10.smi:1
 85 87 0 0 0
SMALL
GASTEIGER
****
Structure written by MMmdl.
@<TRIPOS>ATOM
      1 C          22.5908   40.9523   -9.5060 C.3     1  UNL1       -0.0623
      2 C          21.1593   41.3735   -9.8938 C.3     1  UNL1       -0.0400
      3 C          20.6315   40.5134  -11.0674 C.3     1  UNL1       -0.0268
      4 C          20.3805   39.0394  -10.7170 C.3     1  UNL1        0.0479
      5 O          19.4171   38.9619   -9.6791 O.3     1  UNL1       -0.3797
      6 C          18.9226   37.6480   -9.4666 C.3     1  UNL1        0.0477
      7 C          17.9132   37.6280   -8.3088 C.3     1  UNL1       -0.0281
      8 C          16.7039   38.5565   -8.5185 C.3     1  UNL1       -0.0354
      9 C          16.9134   39.9519   -7.9163 C.3     1  UNL1        0.0092
     10 N          15.7776   40.8248   -8.1801 N.pl3   1  UNL1       -0.3438
     11 C          15.7587   41.7716   -9.2165 C.ar    1  UNL1        0.0282
     12 C          14.6036   42.5660   -9.3484 C.ar    1  UNL1       -0.0355
     13 C          14.5098   43.5366  -10.3628 C.ar    1  UNL1       -0.0195
     14 C          15.6032   43.7584  -11.2191 C.ar    1  UNL1       -0.0442
     15 C          16.7808   42.9943  -11.0856 C.ar    1  UNL1        0.0388
     16 C          16.8295   41.9616  -10.1208 C.ar    1  UNL1       -0.0287
     17 C          17.9102   43.2395  -12.0430 C.2     1  UNL1        0.2444
     18 O          17.6610   43.3498  -13.2400 O.2     1  UNL1       -0.2702
     19 N          19.1672   43.3889  -11.5963 N.am    1  UNL1       -0.3060
     20 C          19.6981   43.5287  -10.2383 C.3     1  UNL1        0.0508
     21 C          21.1167   42.8967  -10.1852 C.3     1  UNL1       -0.0294
     22 C          19.6252   45.0286   -9.8230 C.3     1  UNL1        0.0859
     23 C          20.1263   45.4269   -8.4088 C.3     1  UNL1        0.0240
     24 N          19.3127   44.9465   -7.2810 N.3     1  UNL1       -0.3095
     25 C          19.5325   43.5783   -6.7918 C.3     1  UNL1        0.0213
     26 C          20.7089   43.3825   -5.8469 C.ar    1  UNL1       -0.0333
     27 C          22.0432   43.5095   -6.2914 C.ar    1  UNL1       -0.0573
     28 C          23.1153   43.2326   -5.4245 C.ar    1  UNL1       -0.0612
     29 C          22.8559   42.7746   -4.1225 C.ar    1  UNL1       -0.0583
     30 C          21.5332   42.6120   -3.6694 C.ar    1  UNL1       -0.0445
     31 C          20.4647   42.9593   -4.5219 C.ar    1  UNL1       -0.0539
     32 C          21.3008   42.0186   -2.2890 C.3     1  UNL1       -0.0215
     33 C          20.2318   40.9260   -2.2766 C.3     1  UNL1       -0.0586
     34 C          21.0201   43.0899   -1.2292 C.3     1  UNL1       -0.0586
     35 O          20.4043   45.7713  -10.7430 O.3     1  UNL1       -0.3887
     36 C          13.2318   44.3341  -10.5416 C.3     1  UNL1        0.0724
     37 O          12.3893   43.8435  -11.5751 O.3     1  UNL1       -0.3784
     38 C          11.8608   42.5492  -11.3261 C.3     1  UNL1        0.0369
     39 H          20.5277   41.1887   -9.0233 H       1  UNL1        0.0299
     40 H          19.0630   42.9829   -9.5533 H       1  UNL1        0.0524
     41 H          18.5960   45.3744   -9.9281 H       1  UNL1        0.0624
     42 H          23.2812   41.0755  -10.3415 H       1  UNL1        0.0232
     43 H          22.6341   39.9108   -9.1906 H       1  UNL1        0.0232
     44 H          22.9715   41.5437   -8.6716 H       1  UNL1        0.0232
     45 H          19.6845   40.9031  -11.4269 H       1  UNL1        0.0290
     46 H          21.3254   40.5734  -11.9086 H       1  UNL1        0.0290
     47 H          20.0073   38.5382  -11.6100 H       1  UNL1        0.0560
     48 H          21.2988   38.5304  -10.4240 H       1  UNL1        0.0560
     49 H          18.4415   37.2871  -10.3760 H       1  UNL1        0.0560
     50 H          19.7417   36.9631   -9.2402 H       1  UNL1        0.0560
     51 H          17.5477   36.6037   -8.1924 H       1  UNL1        0.0288
     52 H          18.4108   37.8618   -7.3668 H       1  UNL1        0.0288
     53 H          16.4575   38.6226   -9.5766 H       1  UNL1        0.0281
     54 H          15.8357   38.1098   -8.0353 H       1  UNL1        0.0281
     55 H          17.0092   39.8572   -6.8341 H       1  UNL1        0.0461
     56 H          17.8533   40.3911   -8.2400 H       1  UNL1        0.0461
     57 H          15.0163   40.7943   -7.5138 H       1  UNL1        0.1461
     58 H          13.7681   42.4138   -8.6816 H       1  UNL1        0.0639
     59 H          15.5343   44.5153  -11.9873 H       1  UNL1        0.0628
     60 H          17.7039   41.3331  -10.0788 H       1  UNL1        0.0643
     61 H          19.8465   43.5584  -12.3215 H       1  UNL1        0.1494
     62 H          21.6806   43.3855   -9.3968 H       1  UNL1        0.0286
     63 H          21.6703   43.1211  -11.0997 H       1  UNL1        0.0286
     64 H          21.1756   45.1899   -8.2775 H       1  UNL1        0.0450
     65 H          20.0989   46.5153   -8.3699 H       1  UNL1        0.0450
     66 H          18.3249   45.0783   -7.4756 H       1  UNL1        0.1223
     67 H          18.6435   43.2799   -6.2361 H       1  UNL1        0.0473
     68 H          19.6188   42.8567   -7.5985 H       1  UNL1        0.0473
     69 H          22.2755   43.7942   -7.3011 H       1  UNL1        0.0621
     70 H          24.1351   43.3360   -5.7676 H       1  UNL1        0.0618
     71 H          23.6757   42.5281   -3.4695 H       1  UNL1        0.0620
     72 H          19.4491   42.8591   -4.1725 H       1  UNL1        0.0623
     73 H          22.2333   41.5225   -2.0398 H       1  UNL1        0.0343
     74 H          20.4246   40.1660   -3.0361 H       1  UNL1        0.0235
     75 H          19.2580   41.3572   -2.4634 H       1  UNL1        0.0235
     76 H          20.1746   40.4326   -1.3075 H       1  UNL1        0.0235
     77 H          21.8642   43.7732   -1.1413 H       1  UNL1        0.0235
     78 H          20.8537   42.6383   -0.2517 H       1  UNL1        0.0235
     79 H          20.1342   43.6772   -1.4780 H       1  UNL1        0.0235
     80 H          21.2981   45.4632  -10.6915 H       1  UNL1        0.2099
     81 H          12.6818   44.3918   -9.6013 H       1  UNL1        0.0610
     82 H          13.5086   45.3472  -10.8290 H       1  UNL1        0.0610
     83 H          11.2119   42.2596  -12.1481 H       1  UNL1        0.0524
     84 H          11.2727   42.5236  -10.4102 H       1  UNL1        0.0524
     85 H          12.6483   41.8016  -11.2624 H       1  UNL1        0.0524
@<TRIPOS>BOND
     1     1     2    1
     2     1    42    1
     3     1    43    1
     4     1    44    1
     5     2    39    1
     6     2    21    1
     7     2     3    1
     8     3     4    1
     9     3    45    1
    10     3    46    1
    11     4     5    1
    12     4    47    1
    13     4    48    1
    14     5     6    1
    15     6     7    1
    16     6    49    1
    17     6    50    1
    18     7     8    1
    19     7    51    1
    20     7    52    1
    21     8     9    1
    22     8    53    1
    23     8    54    1
    24     9    10    1
    25     9    55    1
    26     9    56    1
    27    10    11    1
    28    10    57    1
    29    11    16   ar
    30    11    12   ar
    31    12    13   ar
    32    12    58    1
    33    13    14   ar
    34    13    36    1
    35    14    15   ar
    36    14    59    1
    37    15    16   ar
    38    15    17    1
    39    16    60    1
    40    17    18    2
    41    17    19   am
    42    19    20    1
    43    19    61    1
    44    20    40    1
    45    20    21    1
    46    20    22    1
    47    21    62    1
    48    21    63    1
    49    22    41    1
    50    22    23    1
    51    22    35    1
    52    23    24    1
    53    23    64    1
    54    23    65    1
    55    24    25    1
    56    24    66    1
    57    25    26    1
    58    25    67    1
    59    25    68    1
    60    26    31   ar
    61    26    27   ar
    62    27    28   ar
    63    27    69    1
    64    28    29   ar
    65    28    70    1
    66    29    30   ar
    67    29    71    1
    68    30    31   ar
    69    30    32    1
    70    31    72    1
    71    32    33    1
    72    32    34    1
    73    32    73    1
    74    33    74    1
    75    33    75    1
    76    33    76    1
    77    34    77    1
    78    34    78    1
    79    34    79    1
    80    35    80    1
    81    36    37    1
    82    36    81    1
    83    36    82    1
    84    37    38    1
    85    38    83    1
    86    38    84    1
    87    38    85    1
