@<TRIPOS>MOLECULE
BACE_14.smi:1
 86 90 0 0 0
SMALL
GASTEIGER
****
Structure written by MMmdl.
@<TRIPOS>ATOM
      1 C          28.3011   46.2635   -8.6040 C.3     1  UNL1       -0.0586
      2 C          28.3043   44.8054   -8.1246 C.3     1  UNL1       -0.0215
      3 C          27.5540   44.6465   -6.7912 C.3     1  UNL1       -0.0586
      4 C          27.7787   43.8660   -9.2056 C.ar    1  UNL1       -0.0443
      5 C          28.6771   43.0231   -9.8952 C.ar    1  UNL1       -0.0583
      6 C          28.2070   42.1521  -10.8976 C.ar    1  UNL1       -0.0610
      7 C          26.8396   42.1276  -11.2169 C.ar    1  UNL1       -0.0529
      8 C          25.9307   42.9713  -10.5430 C.ar    1  UNL1        0.0034
      9 C          26.4082   43.8358   -9.5356 C.ar    1  UNL1       -0.0495
     10 C          24.4804   42.9411  -10.9055 C.3     1  UNL1        0.0145
     11 C          24.0143   43.3498  -12.2854 C.3     1  UNL1        0.0032
     12 C          23.6304   44.1860  -11.0879 C.3     1  UNL1        0.0032
     13 N          23.7602   41.7642  -10.3718 N.4     1  UNL1        0.2365
     14 C          23.2568   41.9247   -8.9877 C.3     1  UNL1       -0.0044
     15 C          22.5095   40.6643   -8.4964 C.3     1  UNL1        0.1133
     16 C          21.5174   40.9179   -7.3228 C.3     1  UNL1        0.0583
     17 C          20.7513   39.6467   -6.8715 C.3     1  UNL1       -0.0065
     18 C          19.6839   39.1662   -7.8480 C.ar    1  UNL1       -0.0421
     19 C          20.0387   38.3596   -8.9458 C.ar    1  UNL1       -0.0583
     20 C          19.0515   37.9403   -9.8556 C.ar    1  UNL1       -0.0580
     21 C          17.7029   38.2829   -9.6540 C.ar    1  UNL1       -0.0199
     22 C          17.3295   39.0880   -8.5533 C.ar    1  UNL1        0.1208
     23 C          18.3295   39.5221   -7.6609 C.ar    1  UNL1       -0.0167
     24 O          16.0367   39.4886   -8.2941 O.3     1  UNL1       -0.4920
     25 C          15.1054   39.5657   -9.3706 C.3     1  UNL1        0.0896
     26 C          15.5093   40.6655  -10.3732 C.3     1  UNL1       -0.0172
     27 C          15.6052   42.0557   -9.7202 C.3     1  UNL1       -0.0344
     28 C          16.3772   43.0635  -10.5884 C.3     1  UNL1        0.0092
     29 N          16.5017   44.3724   -9.9592 N.pl3   1  UNL1       -0.3438
     30 C          17.4049   44.6289   -8.9134 C.ar    1  UNL1        0.0285
     31 C          18.3193   43.6609   -8.4271 C.ar    1  UNL1       -0.0287
     32 C          19.1937   43.9681   -7.3567 C.ar    1  UNL1        0.0391
     33 C          19.1334   45.2500   -6.7698 C.ar    1  UNL1       -0.0390
     34 C          18.2457   46.2350   -7.2575 C.ar    1  UNL1        0.0196
     35 C          17.3841   45.9120   -8.3271 C.ar    1  UNL1       -0.0303
     36 C          18.1863   47.5632   -6.5920 C.2     1  UNL1        0.1602
     37 O          18.4578   47.7414   -5.4057 O.2     1  UNL1       -0.2924
     38 C          17.7759   48.7617   -7.4437 C.3     1  UNL1       -0.0014
     39 C          20.1539   42.9449   -6.8050 C.2     1  UNL1        0.2445
     40 O          20.5842   43.0533   -5.6566 O.2     1  UNL1       -0.2702
     41 N          20.5611   41.9820   -7.6519 N.am    1  UNL1       -0.3055
     42 O          23.4932   39.7502   -8.0388 O.3     1  UNL1       -0.3847
     43 H          21.9679   40.2212   -9.3313 H       1  UNL1        0.0666
     44 H          22.1289   41.2393   -6.4769 H       1  UNL1        0.0529
     45 H          28.7374   46.9202   -7.8519 H       1  UNL1        0.0235
     46 H          27.2913   46.6172   -8.8086 H       1  UNL1        0.0235
     47 H          28.8861   46.3760   -9.5167 H       1  UNL1        0.0235
     48 H          29.3447   44.5344   -7.9340 H       1  UNL1        0.0343
     49 H          28.0116   45.2620   -6.0173 H       1  UNL1        0.0235
     50 H          27.5765   43.6152   -6.4412 H       1  UNL1        0.0235
     51 H          26.5097   44.9468   -6.8718 H       1  UNL1        0.0235
     52 H          29.7326   43.0369   -9.6594 H       1  UNL1        0.0620
     53 H          28.8953   41.5055  -11.4192 H       1  UNL1        0.0618
     54 H          26.4912   41.4554  -11.9876 H       1  UNL1        0.0622
     55 H          25.7184   44.4858   -9.0216 H       1  UNL1        0.0625
     56 H          24.7582   43.7759  -12.9599 H       1  UNL1        0.0329
     57 H          23.2195   42.7877  -12.7657 H       1  UNL1        0.0329
     58 H          22.5768   44.1666  -10.8187 H       1  UNL1        0.0329
     59 H          24.1174   45.1539  -10.9858 H       1  UNL1        0.0329
     60 H          24.3990   40.9820  -10.4007 H       1  UNL1        0.2023
     61 H          22.5868   42.7820   -8.9798 H       1  UNL1        0.0840
     62 H          24.0733   42.1755   -8.3105 H       1  UNL1        0.0840
     63 H          21.4430   38.8263   -6.6689 H       1  UNL1        0.0332
     64 H          20.2664   39.8531   -5.9167 H       1  UNL1        0.0332
     65 H          21.0654   38.0615   -9.0955 H       1  UNL1        0.0620
     66 H          19.3284   37.3505  -10.7151 H       1  UNL1        0.0619
     67 H          16.9748   37.9239  -10.3618 H       1  UNL1        0.0654
     68 H          18.0436   40.1512   -6.8341 H       1  UNL1        0.0657
     69 H          14.9760   38.6003   -9.8601 H       1  UNL1        0.0696
     70 H          14.1312   39.8076   -8.9450 H       1  UNL1        0.0696
     71 H          16.4638   40.4102  -10.8312 H       1  UNL1        0.0298
     72 H          14.7873   40.6930  -11.1886 H       1  UNL1        0.0298
     73 H          14.6010   42.4264   -9.5075 H       1  UNL1        0.0281
     74 H          16.0987   41.9683   -8.7514 H       1  UNL1        0.0281
     75 H          17.3670   42.6798  -10.8392 H       1  UNL1        0.0461
     76 H          15.8567   43.1952  -11.5373 H       1  UNL1        0.0461
     77 H          15.8229   45.0793  -10.2004 H       1  UNL1        0.1461
     78 H          18.3406   42.6722   -8.8575 H       1  UNL1        0.0643
     79 H          19.7831   45.4880   -5.9380 H       1  UNL1        0.0632
     80 H          16.6871   46.6502   -8.6959 H       1  UNL1        0.0643
     81 H          16.7137   48.7214   -7.6853 H       1  UNL1        0.0309
     82 H          18.3481   48.7832   -8.3738 H       1  UNL1        0.0309
     83 H          17.9704   49.6894   -6.9031 H       1  UNL1        0.0309
     84 H          20.1227   41.9455   -8.5578 H       1  UNL1        0.1494
     85 H          23.8558   39.2483   -8.7626 H       1  UNL1        0.2101
     86 H          22.9872   41.5592  -10.9899 H       1  UNL1        0.2023
@<TRIPOS>BOND
     1     1     2    1
     2     1    45    1
     3     1    46    1
     4     1    47    1
     5     2     3    1
     6     2     4    1
     7     2    48    1
     8     3    49    1
     9     3    50    1
    10     3    51    1
    11     4     9   ar
    12     4     5   ar
    13     5     6   ar
    14     5    52    1
    15     6     7   ar
    16     6    53    1
    17     7     8   ar
    18     7    54    1
    19     8     9   ar
    20     8    10    1
    21     9    55    1
    22    10    12    1
    23    10    11    1
    24    10    13    1
    25    11    12    1
    26    11    56    1
    27    11    57    1
    28    12    58    1
    29    12    59    1
    30    13    14    1
    31    13    60    1
    32    13    86    1
    33    14    15    1
    34    14    61    1
    35    14    62    1
    36    15    43    1
    37    15    16    1
    38    15    42    1
    39    16    44    1
    40    16    41    1
    41    16    17    1
    42    17    18    1
    43    17    63    1
    44    17    64    1
    45    18    23   ar
    46    18    19   ar
    47    19    20   ar
    48    19    65    1
    49    20    21   ar
    50    20    66    1
    51    21    22   ar
    52    21    67    1
    53    22    23   ar
    54    22    24    1
    55    23    68    1
    56    24    25    1
    57    25    26    1
    58    25    69    1
    59    25    70    1
    60    26    27    1
    61    26    71    1
    62    26    72    1
    63    27    28    1
    64    27    73    1
    65    27    74    1
    66    28    29    1
    67    28    75    1
    68    28    76    1
    69    29    30    1
    70    29    77    1
    71    30    35   ar
    72    30    31   ar
    73    31    32   ar
    74    31    78    1
    75    32    33   ar
    76    32    39    1
    77    33    34   ar
    78    33    79    1
    79    34    35   ar
    80    34    36    1
    81    35    80    1
    82    36    37    2
    83    36    38    1
    84    38    81    1
    85    38    82    1
    86    38    83    1
    87    39    40    2
    88    39    41   am
    89    41    84    1
    90    42    85    1
