@<TRIPOS>MOLECULE
BACE_7.smi:1
 99 103 0 0 0
SMALL
GASTEIGER
****
Structure written by MMmdl.
@<TRIPOS>ATOM
      1 C          18.2972   38.4388   -6.2777 C.3     1  UNL1       -0.0624
      2 C          18.3813   38.7328   -7.7841 C.3     1  UNL1       -0.0421
      3 C          17.4977   37.7629   -8.6061 C.3     1  UNL1       -0.0504
      4 C          16.0162   38.1917   -8.6528 C.3     1  UNL1       -0.0528
      5 C          15.7599   39.3810   -9.5983 C.3     1  UNL1       -0.0516
      6 C          14.4598   40.1377   -9.2810 C.3     1  UNL1       -0.0371
      7 C          14.2234   41.3633  -10.1862 C.3     1  UNL1        0.0156
      8 N          15.2661   42.4021  -10.0206 N.am    1  UNL1       -0.2907
      9 C          15.2000   43.2436   -8.9577 C.2     1  UNL1        0.2471
     10 O          14.1405   43.5949   -8.4383 O.2     1  UNL1       -0.2700
     11 C          16.5016   43.7436   -8.4028 C.ar    1  UNL1        0.0384
     12 C          16.7004   45.1203   -8.1847 C.ar    1  UNL1       -0.0373
     13 C          17.9178   45.5831   -7.6403 C.ar    1  UNL1        0.0383
     14 C          18.9494   44.6647   -7.3400 C.ar    1  UNL1       -0.0373
     15 C          18.7646   43.2820   -7.5594 C.ar    1  UNL1        0.0381
     16 C          17.5148   42.8321   -8.0418 C.ar    1  UNL1       -0.0375
     17 C          19.8615   42.3012   -7.2400 C.2     1  UNL1        0.2444
     18 O          20.6556   42.5113   -6.3260 O.2     1  UNL1       -0.2702
     19 N          19.9185   41.2254   -8.0455 N.am    1  UNL1       -0.3058
     20 C          20.6763   39.9955   -7.8033 C.3     1  UNL1        0.0545
     21 C          19.8412   38.7915   -8.3114 C.3     1  UNL1       -0.0293
     22 C          22.1018   40.0277   -8.4431 C.3     1  UNL1        0.1130
     23 C          22.2267   40.8227   -9.7724 C.3     1  UNL1       -0.0050
     24 N          23.6004   40.8402  -10.3433 N.4     1  UNL1        0.2321
     25 C          24.5234   41.8143   -9.7245 C.3     1  UNL1       -0.0076
     26 C          25.5176   42.3657  -10.7277 C.ar    1  UNL1       -0.0027
     27 C          25.1622   43.4788  -11.5151 C.ar    1  UNL1       -0.0535
     28 C          26.0930   44.0388  -12.4082 C.ar    1  UNL1       -0.0611
     29 C          27.3822   43.4843  -12.5178 C.ar    1  UNL1       -0.0583
     30 C          27.7461   42.3524  -11.7519 C.ar    1  UNL1       -0.0444
     31 C          26.8039   41.7993  -10.8550 C.ar    1  UNL1       -0.0501
     32 C          29.1432   41.7455  -11.8479 C.3     1  UNL1       -0.0215
     33 C          30.0673   42.3306  -10.7706 C.3     1  UNL1       -0.0586
     34 C          29.7689   41.8545  -13.2504 C.3     1  UNL1       -0.0586
     35 O          22.9791   40.5418   -7.4651 O.3     1  UNL1       -0.3847
     36 C          18.1128   47.0090   -7.4188 C.ar    1  UNL1        0.2271
     37 N          19.0035   47.6116   -6.6302 N.ar    1  UNL1       -0.2175
     38 C          18.7873   48.9685   -6.8161 C.ar    1  UNL1        0.0663
     39 C          17.7466   49.1198   -7.6935 C.ar    1  UNL1        0.1125
     40 O          17.3076   47.8857   -8.0815 O.2     1  UNL1       -0.4436
     41 C          16.0192   42.7804  -11.2410 C.3     1  UNL1        0.0487
     42 C          17.5331   42.4715  -11.2070 C.3     1  UNL1       -0.0422
     43 C          15.6483   44.1803  -11.7591 C.ar    1  UNL1       -0.0273
     44 C          14.2923   44.4827  -12.0250 C.ar    1  UNL1       -0.0568
     45 C          13.9141   45.7497  -12.5061 C.ar    1  UNL1       -0.0614
     46 C          14.8926   46.7362  -12.7288 C.ar    1  UNL1       -0.0617
     47 C          16.2437   46.4572  -12.4501 C.ar    1  UNL1       -0.0614
     48 C          16.6218   45.1866  -11.9713 C.ar    1  UNL1       -0.0568
     49 H          17.9479   39.7165   -7.9057 H       1  UNL1        0.0299
     50 H          20.7843   39.8587   -6.7246 H       1  UNL1        0.0526
     51 H          22.4313   39.0021   -8.6151 H       1  UNL1        0.0666
     52 H          15.6819   42.1119  -12.0184 H       1  UNL1        0.0548
     53 H          18.6555   37.4386   -6.0410 H       1  UNL1        0.0232
     54 H          17.2655   38.5074   -5.9317 H       1  UNL1        0.0232
     55 H          18.8670   39.1557   -5.6873 H       1  UNL1        0.0232
     56 H          17.8604   37.6819   -9.6305 H       1  UNL1        0.0268
     57 H          17.5752   36.7597   -8.1849 H       1  UNL1        0.0268
     58 H          15.4019   37.3514   -8.9777 H       1  UNL1        0.0265
     59 H          15.6778   38.4286   -7.6433 H       1  UNL1        0.0265
     60 H          16.5855   40.0823   -9.5345 H       1  UNL1        0.0266
     61 H          15.7486   39.0315  -10.6317 H       1  UNL1        0.0266
     62 H          13.6138   39.4559   -9.3763 H       1  UNL1        0.0280
     63 H          14.4656   40.4532   -8.2365 H       1  UNL1        0.0280
     64 H          14.1349   41.0127  -11.2135 H       1  UNL1        0.0465
     65 H          13.2423   41.7819   -9.9614 H       1  UNL1        0.0465
     66 H          15.9130   45.8186   -8.4283 H       1  UNL1        0.0633
     67 H          19.8895   45.0226   -6.9454 H       1  UNL1        0.0633
     68 H          17.3224   41.7777   -8.1573 H       1  UNL1        0.0633
     69 H          19.2344   41.1848   -8.7874 H       1  UNL1        0.1494
     70 H          20.3472   37.8578   -8.0688 H       1  UNL1        0.0286
     71 H          19.8166   38.8374   -9.4004 H       1  UNL1        0.0286
     72 H          21.5740   40.3521  -10.5080 H       1  UNL1        0.0840
     73 H          21.8694   41.8476   -9.6675 H       1  UNL1        0.0840
     74 H          24.0108   39.9154  -10.2726 H       1  UNL1        0.2018
     75 H          23.9731   42.6516   -9.2938 H       1  UNL1        0.0866
     76 H          25.0564   41.3368   -8.9020 H       1  UNL1        0.0866
     77 H          24.1802   43.9207  -11.4236 H       1  UNL1        0.0622
     78 H          25.8257   44.9005  -13.0007 H       1  UNL1        0.0618
     79 H          28.0833   43.9429  -13.1963 H       1  UNL1        0.0620
     80 H          27.0815   40.9499  -10.2480 H       1  UNL1        0.0625
     81 H          29.0467   40.6794  -11.6473 H       1  UNL1        0.0343
     82 H          29.6666   42.1557   -9.7721 H       1  UNL1        0.0235
     83 H          30.1848   43.4073  -10.8958 H       1  UNL1        0.0235
     84 H          31.0593   41.8809  -10.8134 H       1  UNL1        0.0235
     85 H          29.1270   41.3933  -14.0015 H       1  UNL1        0.0235
     86 H          30.7313   41.3480  -13.2920 H       1  UNL1        0.0235
     87 H          29.9508   42.8859  -13.5470 H       1  UNL1        0.0235
     88 H          23.8692   40.4147   -7.7400 H       1  UNL1        0.2101
     89 H          19.3808   49.7128   -6.3082 H       1  UNL1        0.0862
     90 H          17.2431   49.9719   -8.1249 H       1  UNL1        0.1046
     91 H          17.9672   42.5614  -12.2034 H       1  UNL1        0.0251
     92 H          17.7304   41.4524  -10.8772 H       1  UNL1        0.0251
     93 H          18.0917   43.1470  -10.5627 H       1  UNL1        0.0251
     94 H          13.5308   43.7327  -11.8663 H       1  UNL1        0.0621
     95 H          12.8755   45.9581  -12.7248 H       1  UNL1        0.0618
     96 H          14.6123   47.7046  -13.1160 H       1  UNL1        0.0618
     97 H          16.9949   47.2154  -12.6135 H       1  UNL1        0.0618
     98 H          17.6663   45.0085  -11.7697 H       1  UNL1        0.0621
     99 H          23.5403   41.0713  -11.3301 H       1  UNL1        0.2018
@<TRIPOS>BOND
     1     1     2    1
     2     1    53    1
     3     1    54    1
     4     1    55    1
     5     2    49    1
     6     2    21    1
     7     2     3    1
     8     3     4    1
     9     3    56    1
    10     3    57    1
    11     4     5    1
    12     4    58    1
    13     4    59    1
    14     5     6    1
    15     5    60    1
    16     5    61    1
    17     6     7    1
    18     6    62    1
    19     6    63    1
    20     7     8    1
    21     7    64    1
    22     7    65    1
    23     8     9   am
    24     8    41    1
    25     9    10    2
    26     9    11    1
    27    11    16   ar
    28    11    12   ar
    29    12    13   ar
    30    12    66    1
    31    13    14   ar
    32    13    36    1
    33    14    15   ar
    34    14    67    1
    35    15    16   ar
    36    15    17    1
    37    16    68    1
    38    17    18    2
    39    17    19   am
    40    19    20    1
    41    19    69    1
    42    20    50    1
    43    20    21    1
    44    20    22    1
    45    21    70    1
    46    21    71    1
    47    22    51    1
    48    22    23    1
    49    22    35    1
    50    23    24    1
    51    23    72    1
    52    23    73    1
    53    24    25    1
    54    24    74    1
    55    24    99    1
    56    25    26    1
    57    25    75    1
    58    25    76    1
    59    26    31   ar
    60    26    27   ar
    61    27    28   ar
    62    27    77    1
    63    28    29   ar
    64    28    78    1
    65    29    30   ar
    66    29    79    1
    67    30    31   ar
    68    30    32    1
    69    31    80    1
    70    32    33    1
    71    32    34    1
    72    32    81    1
    73    33    82    1
    74    33    83    1
    75    33    84    1
    76    34    85    1
    77    34    86    1
    78    34    87    1
    79    35    88    1
    80    36    40   ar
    81    36    37   ar
    82    37    38   ar
    83    38    39   ar
    84    38    89    1
    85    39    40   ar
    86    39    90    1
    87    41    52    1
    88    41    42    1
    89    41    43    1
    90    42    91    1
    91    42    92    1
    92    42    93    1
    93    43    48   ar
    94    43    44   ar
    95    44    45   ar
    96    44    94    1
    97    45    46   ar
    98    45    95    1
    99    46    47   ar
   100    46    96    1
   101    47    48   ar
   102    47    97    1
   103    48    98    1
