@<TRIPOS>MOLECULE
BACE_11.smi:1
 80 82 0 0 0
SMALL
GASTEIGER
****
Structure written by MMmdl.
@<TRIPOS>ATOM
      1 C          28.5221   44.3498  -13.2554 C.3     1  UNL1       -0.0379
      2 C          27.9206   44.1596  -11.8492 C.3     1  UNL1        0.0991
      3 C          26.3744   44.0847  -11.7952 C.2     1  UNL1        0.2336
      4 O          25.7044   44.8086  -12.5327 O.2     1  UNL1       -0.2738
      5 N          25.8092   43.2773  -10.8787 N.am    1  UNL1       -0.3081
      6 C          24.4083   43.2628  -10.4474 C.3     1  UNL1        0.0542
      7 C          24.0856   44.4953   -9.5592 C.3     1  UNL1       -0.0066
      8 C          24.9399   44.5565   -8.3071 C.ar    1  UNL1       -0.0421
      9 C          24.4167   44.1010   -7.0854 C.ar    1  UNL1       -0.0583
     10 C          25.2249   44.1116   -5.9375 C.ar    1  UNL1       -0.0580
     11 C          26.5630   44.5401   -6.0038 C.ar    1  UNL1       -0.0199
     12 C          27.1030   44.9944   -7.2321 C.ar    1  UNL1        0.1208
     13 C          26.2679   45.0340   -8.3620 C.ar    1  UNL1       -0.0167
     14 O          28.4069   45.3994   -7.4057 O.3     1  UNL1       -0.4920
     15 C          29.3230   45.2049   -6.3405 C.3     1  UNL1        0.0896
     16 C          30.7277   45.6394   -6.7858 C.3     1  UNL1       -0.0186
     17 C          31.4467   44.6551   -7.7335 C.3     1  UNL1       -0.0495
     18 C          31.4965   45.0642   -9.2253 C.3     1  UNL1       -0.0447
     19 C          30.2045   44.8872  -10.0585 C.3     1  UNL1        0.0242
     20 C          29.7744   43.4261  -10.3011 C.2     1  UNL1        0.2159
     21 O          30.4367   42.5304   -9.7733 O.2     1  UNL1       -0.2756
     22 N          28.6977   43.1503  -11.0870 N.am    1  UNL1       -0.2932
     23 C          28.3506   41.7424  -11.3199 C.3     1  UNL1        0.0039
     24 C          23.4039   42.9962  -11.6040 C.3     1  UNL1        0.0862
     25 C          22.2524   42.0451  -11.2079 C.3     1  UNL1        0.0240
     26 N          21.6585   41.4245  -12.3998 N.3     1  UNL1       -0.3095
     27 C          20.9714   40.1545  -12.1572 C.3     1  UNL1        0.0213
     28 C          19.8004   40.2097  -11.1912 C.ar    1  UNL1       -0.0333
     29 C          18.7977   41.1952  -11.3094 C.ar    1  UNL1       -0.0573
     30 C          17.7029   41.1993  -10.4229 C.ar    1  UNL1       -0.0612
     31 C          17.6024   40.2155   -9.4193 C.ar    1  UNL1       -0.0583
     32 C          18.6010   39.2234   -9.2919 C.ar    1  UNL1       -0.0445
     33 C          19.6923   39.2261  -10.1865 C.ar    1  UNL1       -0.0539
     34 C          18.5102   38.1299   -8.2332 C.3     1  UNL1       -0.0215
     35 C          17.6131   36.9799   -8.7120 C.3     1  UNL1       -0.0586
     36 C          18.0750   38.6510   -6.8509 C.3     1  UNL1       -0.0586
     37 O          22.8603   44.2234  -12.0400 O.3     1  UNL1       -0.3887
     38 H          28.0589   45.1235  -11.3675 H       1  UNL1        0.0594
     39 H          24.3703   42.3941   -9.7907 H       1  UNL1        0.0527
     40 H          23.9500   42.5673  -12.4395 H       1  UNL1        0.0624
     41 H          27.9513   45.0612  -13.8563 H       1  UNL1        0.0252
     42 H          28.5517   43.4038  -13.7955 H       1  UNL1        0.0252
     43 H          29.5449   44.7199  -13.2003 H       1  UNL1        0.0252
     44 H          26.4449   42.7153  -10.3325 H       1  UNL1        0.1491
     45 H          24.2245   45.4217  -10.1199 H       1  UNL1        0.0332
     46 H          23.0337   44.4727   -9.2696 H       1  UNL1        0.0332
     47 H          23.4006   43.7364   -7.0245 H       1  UNL1        0.0620
     48 H          24.8176   43.7498   -5.0031 H       1  UNL1        0.0619
     49 H          27.1540   44.5024   -5.1028 H       1  UNL1        0.0654
     50 H          26.6711   45.3982   -9.2938 H       1  UNL1        0.0657
     51 H          29.0155   45.8145   -5.4902 H       1  UNL1        0.0696
     52 H          29.3336   44.1614   -6.0188 H       1  UNL1        0.0696
     53 H          30.7012   46.6424   -7.2095 H       1  UNL1        0.0298
     54 H          31.3325   45.7258   -5.8823 H       1  UNL1        0.0298
     55 H          32.4839   44.5976   -7.3992 H       1  UNL1        0.0266
     56 H          31.0662   43.6424   -7.5976 H       1  UNL1        0.0266
     57 H          31.8178   46.1020   -9.2947 H       1  UNL1        0.0270
     58 H          32.2890   44.4913   -9.7064 H       1  UNL1        0.0270
     59 H          29.3868   45.4423   -9.6036 H       1  UNL1        0.0358
     60 H          30.3793   45.3436  -11.0327 H       1  UNL1        0.0358
     61 H          27.8388   41.3425  -10.4428 H       1  UNL1        0.0429
     62 H          29.2320   41.1243  -11.5133 H       1  UNL1        0.0429
     63 H          27.6920   41.6138  -12.1785 H       1  UNL1        0.0429
     64 H          22.6554   41.2552  -10.5710 H       1  UNL1        0.0450
     65 H          21.4950   42.5636  -10.6103 H       1  UNL1        0.0450
     66 H          22.4398   41.2269  -13.0271 H       1  UNL1        0.1223
     67 H          20.6000   39.7634  -13.1019 H       1  UNL1        0.0473
     68 H          21.6834   39.4150  -11.7903 H       1  UNL1        0.0473
     69 H          18.8738   41.9494  -12.0797 H       1  UNL1        0.0621
     70 H          16.9380   41.9550  -10.5121 H       1  UNL1        0.0618
     71 H          16.7532   40.2241   -8.7543 H       1  UNL1        0.0620
     72 H          20.4533   38.4636  -10.1020 H       1  UNL1        0.0623
     73 H          19.5167   37.7310   -8.1050 H       1  UNL1        0.0343
     74 H          17.9531   36.5886   -9.6709 H       1  UNL1        0.0235
     75 H          16.5798   37.3076   -8.8266 H       1  UNL1        0.0235
     76 H          17.6215   36.1546   -8.0018 H       1  UNL1        0.0235
     77 H          18.7237   39.4599   -6.5101 H       1  UNL1        0.0235
     78 H          18.1229   37.8543   -6.1076 H       1  UNL1        0.0235
     79 H          17.0496   39.0204   -6.8530 H       1  UNL1        0.0235
     80 H          23.5902   44.7524  -12.3386 H       1  UNL1        0.2099
@<TRIPOS>BOND
     1     1     2    1
     2     1    41    1
     3     1    42    1
     4     1    43    1
     5     2    38    1
     6     2    22    1
     7     2     3    1
     8     3     4    2
     9     3     5   am
    10     5     6    1
    11     5    44    1
    12     6    39    1
    13     6     7    1
    14     6    24    1
    15     7     8    1
    16     7    45    1
    17     7    46    1
    18     8    13   ar
    19     8     9   ar
    20     9    10   ar
    21     9    47    1
    22    10    11   ar
    23    10    48    1
    24    11    12   ar
    25    11    49    1
    26    12    13   ar
    27    12    14    1
    28    13    50    1
    29    14    15    1
    30    15    16    1
    31    15    51    1
    32    15    52    1
    33    16    17    1
    34    16    53    1
    35    16    54    1
    36    17    18    1
    37    17    55    1
    38    17    56    1
    39    18    19    1
    40    18    57    1
    41    18    58    1
    42    19    20    1
    43    19    59    1
    44    19    60    1
    45    20    21    2
    46    20    22   am
    47    22    23    1
    48    23    61    1
    49    23    62    1
    50    23    63    1
    51    24    40    1
    52    24    25    1
    53    24    37    1
    54    25    26    1
    55    25    64    1
    56    25    65    1
    57    26    27    1
    58    26    66    1
    59    27    28    1
    60    27    67    1
    61    27    68    1
    62    28    33   ar
    63    28    29   ar
    64    29    30   ar
    65    29    69    1
    66    30    31   ar
    67    30    70    1
    68    31    32   ar
    69    31    71    1
    70    32    33   ar
    71    32    34    1
    72    33    72    1
    73    34    35    1
    74    34    36    1
    75    34    73    1
    76    35    74    1
    77    35    75    1
    78    35    76    1
    79    36    77    1
    80    36    78    1
    81    36    79    1
    82    37    80    1
