@<TRIPOS>MOLECULE
BACE_5.smi:1
 79 80 0 0 0
SMALL
GASTEIGER
****
Structure written by MMmdl.
@<TRIPOS>ATOM
      1 C          30.8600   41.7512  -11.3359 C.3     1  UNL1       -0.0649
      2 C          29.5075   42.4522  -11.1576 C.3     1  UNL1       -0.0504
      3 C          28.4019   41.8496  -12.0413 C.3     1  UNL1       -0.0089
      4 C          27.0463   42.4362  -11.7494 C.ar    1  UNL1        0.0631
      5 C          26.0582   41.9538  -10.8399 C.ar    1  UNL1       -0.0168
      6 C          25.0238   42.8405  -10.9582 C.ar    1  UNL1        0.0501
      7 N          25.4233   43.7702  -11.8911 N.ar    1  UNL1       -0.2801
      8 N          26.6547   43.5343  -12.3816 N.ar    1  UNL1       -0.1786
      9 C          23.6933   42.9079  -10.2824 C.3     1  UNL1        0.0380
     10 N          22.8672   41.7401  -10.5746 N.3     1  UNL1       -0.3081
     11 C          23.0251   40.6579   -9.6044 C.3     1  UNL1        0.0240
     12 C          21.9216   39.5872   -9.7489 C.3     1  UNL1        0.0859
     13 C          20.5058   40.0952   -9.4917 C.3     1  UNL1        0.0505
     14 C          19.5197   38.9248   -9.7063 C.3     1  UNL1       -0.0295
     15 C          18.0597   39.1893   -9.2705 C.3     1  UNL1       -0.0421
     16 C          17.1663   39.7728  -10.3810 C.3     1  UNL1       -0.0504
     17 C          15.7899   40.2289   -9.8652 C.3     1  UNL1       -0.0528
     18 C          14.9649   40.9333  -10.9598 C.3     1  UNL1       -0.0530
     19 C          13.7071   41.6737  -10.4538 C.3     1  UNL1       -0.0510
     20 C          13.9484   42.7943   -9.4112 C.3     1  UNL1       -0.0294
     21 C          15.1237   43.7523   -9.7046 C.3     1  UNL1        0.0483
     22 O          15.0017   44.5452  -11.0247 O.3     1  UNL1       -0.3706
     23 C          16.3039   45.2832  -11.4251 C.3     1  UNL1        0.1238
     24 C          17.4475   44.3453  -11.8335 C.2     1  UNL1        0.2417
     25 O          17.3134   43.6249  -12.8089 O.2     1  UNL1       -0.2731
     26 N          18.5485   44.3741  -11.0688 N.am    1  UNL1       -0.2914
     27 C          19.6770   43.4341  -11.2499 C.3     1  UNL1        0.0991
     28 C          19.7563   42.4132  -10.0918 C.2     1  UNL1        0.2336
     29 O          19.4192   42.7047   -8.9561 O.2     1  UNL1       -0.2738
     30 N          20.2651   41.2136  -10.4078 N.am    1  UNL1       -0.3084
     31 C          20.9788   44.2302  -11.2449 C.3     1  UNL1       -0.0379
     32 C          18.5468   45.2665   -9.9272 C.3     1  UNL1        0.0040
     33 C          17.4342   37.8783   -8.8029 C.3     1  UNL1       -0.0624
     34 O          22.2395   38.5466   -8.8438 O.3     1  UNL1       -0.3887
     35 H          24.8731   44.5595  -12.1982 H       1  UNL1        0.1886
     36 H          21.9940   39.1671  -10.7530 H       1  UNL1        0.0624
     37 H          20.4964   40.4037   -8.4463 H       1  UNL1        0.0524
     38 H          18.0545   39.8413   -8.3970 H       1  UNL1        0.0299
     39 H          19.6504   42.9145  -12.2077 H       1  UNL1        0.0594
     40 H          31.6172   42.2031  -10.6948 H       1  UNL1        0.0230
     41 H          31.2116   41.8246  -12.3654 H       1  UNL1        0.0230
     42 H          30.7957   40.6940  -11.0768 H       1  UNL1        0.0230
     43 H          29.6263   43.5126  -11.3833 H       1  UNL1        0.0266
     44 H          29.2125   42.3909  -10.1093 H       1  UNL1        0.0266
     45 H          28.3697   40.7692  -11.8952 H       1  UNL1        0.0329
     46 H          28.6512   42.0007  -13.0926 H       1  UNL1        0.0329
     47 H          26.1037   41.0869  -10.1972 H       1  UNL1        0.0654
     48 H          23.1744   43.8157  -10.5932 H       1  UNL1        0.0489
     49 H          23.8443   42.9954   -9.2060 H       1  UNL1        0.0489
     50 H          23.0955   41.3903  -11.4997 H       1  UNL1        0.1224
     51 H          23.0475   41.0564   -8.5902 H       1  UNL1        0.0450
     52 H          23.9948   40.1835   -9.7632 H       1  UNL1        0.0450
     53 H          19.5608   38.5717  -10.7367 H       1  UNL1        0.0286
     54 H          19.8930   38.0902   -9.1129 H       1  UNL1        0.0286
     55 H          17.6643   40.6257  -10.8422 H       1  UNL1        0.0268
     56 H          17.0403   39.0383  -11.1764 H       1  UNL1        0.0268
     57 H          15.9455   40.9070   -9.0261 H       1  UNL1        0.0265
     58 H          15.2330   39.3808   -9.4670 H       1  UNL1        0.0265
     59 H          15.5977   41.6427  -11.4932 H       1  UNL1        0.0265
     60 H          14.6695   40.1988  -11.7091 H       1  UNL1        0.0265
     61 H          13.0042   40.9507  -10.0401 H       1  UNL1        0.0266
     62 H          13.1968   42.1031  -11.3159 H       1  UNL1        0.0266
     63 H          13.0315   43.3712   -9.2907 H       1  UNL1        0.0287
     64 H          14.1221   42.3331   -8.4390 H       1  UNL1        0.0287
     65 H          16.0506   43.1788   -9.6960 H       1  UNL1        0.0560
     66 H          15.2227   44.4563   -8.8784 H       1  UNL1        0.0560
     67 H          16.6174   45.9492  -10.6212 H       1  UNL1        0.0657
     68 H          16.1103   45.9348  -12.2772 H       1  UNL1        0.0657
     69 H          20.5327   41.0732  -11.3715 H       1  UNL1        0.1491
     70 H          21.8403   43.5809  -11.4062 H       1  UNL1        0.0252
     71 H          21.1353   44.7548  -10.3017 H       1  UNL1        0.0252
     72 H          20.9879   44.9767  -12.0399 H       1  UNL1        0.0252
     73 H          19.5207   45.3632   -9.4513 H       1  UNL1        0.0429
     74 H          17.8465   44.9268   -9.1631 H       1  UNL1        0.0429
     75 H          18.2801   46.2822  -10.2223 H       1  UNL1        0.0429
     76 H          16.3980   38.0155   -8.4945 H       1  UNL1        0.0232
     77 H          17.9609   37.4606   -7.9455 H       1  UNL1        0.0232
     78 H          17.4429   37.1261   -9.5925 H       1  UNL1        0.0232
     79 H          23.0987   38.2160   -9.0569 H       1  UNL1        0.2099
@<TRIPOS>BOND
     1     1     2    1
     2     1    40    1
     3     1    41    1
     4     1    42    1
     5     2     3    1
     6     2    43    1
     7     2    44    1
     8     3    45    1
     9     3    46    1
    10     3     4    1
    11     4     8   ar
    12     4     5   ar
    13     5     6   ar
    14     5    47    1
    15     6     7   ar
    16     6     9    1
    17     7     8   ar
    18     7    35    1
    19     9    10    1
    20     9    48    1
    21     9    49    1
    22    10    11    1
    23    10    50    1
    24    11    12    1
    25    11    51    1
    26    11    52    1
    27    12    36    1
    28    12    13    1
    29    12    34    1
    30    13    37    1
    31    13    30    1
    32    13    14    1
    33    14    15    1
    34    14    53    1
    35    14    54    1
    36    15    38    1
    37    15    16    1
    38    15    33    1
    39    16    17    1
    40    16    55    1
    41    16    56    1
    42    17    18    1
    43    17    57    1
    44    17    58    1
    45    18    19    1
    46    18    59    1
    47    18    60    1
    48    19    20    1
    49    19    61    1
    50    19    62    1
    51    20    21    1
    52    20    63    1
    53    20    64    1
    54    21    22    1
    55    21    65    1
    56    21    66    1
    57    22    23    1
    58    23    24    1
    59    23    67    1
    60    23    68    1
    61    24    25    2
    62    24    26   am
    63    26    27    1
    64    26    32    1
    65    27    39    1
    66    27    28    1
    67    27    31    1
    68    28    29    2
    69    28    30   am
    70    30    69    1
    71    31    70    1
    72    31    71    1
    73    31    72    1
    74    32    73    1
    75    32    74    1
    76    32    75    1
    77    33    76    1
    78    33    77    1
    79    33    78    1
    80    34    79    1
