@<TRIPOS>MOLECULE
BACE_13.smi:1
 77 80 0 0 0
SMALL
GASTEIGER
****
Structure written by MMmdl.
@<TRIPOS>ATOM
      1 C          23.5559   42.3776   -4.2118 C.3     1  UNL1        0.0369
      2 O          22.4979   42.8772   -3.4080 O.3     1  UNL1       -0.3784
      3 C          21.3434   42.0533   -3.4252 C.3     1  UNL1        0.0724
      4 C          20.8611   41.7670   -4.8337 C.ar    1  UNL1       -0.0195
      5 C          20.1004   42.7272   -5.5297 C.ar    1  UNL1       -0.0442
      6 C          19.6610   42.4568   -6.8412 C.ar    1  UNL1        0.0388
      7 C          20.0850   41.2656   -7.4835 C.ar    1  UNL1       -0.0287
      8 C          20.8641   40.3037   -6.7940 C.ar    1  UNL1        0.0282
      9 C          21.2285   40.5581   -5.4598 C.ar    1  UNL1       -0.0355
     10 N          21.2937   39.0970   -7.3724 N.pl3   1  UNL1       -0.3438
     11 C          20.6798   38.6081   -8.5979 C.3     1  UNL1        0.0092
     12 C          21.3487   39.1654   -9.8598 C.3     1  UNL1       -0.0344
     13 C          20.3663   39.1603  -11.0405 C.3     1  UNL1       -0.0172
     14 C          20.9179   39.8197  -12.3199 C.3     1  UNL1        0.0896
     15 O          21.5966   41.0428  -12.0636 O.3     1  UNL1       -0.4920
     16 C          20.9022   42.1511  -11.6383 C.ar    1  UNL1        0.1208
     17 C          21.6818   43.2577  -11.2448 C.ar    1  UNL1       -0.0199
     18 C          21.0771   44.4546  -10.8208 C.ar    1  UNL1       -0.0580
     19 C          19.6764   44.5390  -10.7440 C.ar    1  UNL1       -0.0583
     20 C          18.8809   43.4257  -11.0807 C.ar    1  UNL1       -0.0421
     21 C          19.4901   42.2495  -11.5687 C.ar    1  UNL1       -0.0167
     22 C          17.3804   43.4688  -10.8244 C.3     1  UNL1       -0.0064
     23 C          17.0253   43.6363   -9.3214 C.3     1  UNL1        0.0586
     24 N          17.9686   42.8921   -8.4864 N.am    1  UNL1       -0.3055
     25 C          18.7220   43.4175   -7.5077 C.2     1  UNL1        0.2444
     26 O          18.6081   44.5785   -7.1115 O.2     1  UNL1       -0.2702
     27 C          15.5476   43.2939   -8.9806 C.3     1  UNL1        0.1182
     28 C          15.1506   41.8359   -8.5813 C.3     1  UNL1        0.0296
     29 C          15.5626   40.7501   -9.5991 C.3     1  UNL1        0.0935
     30 O          15.0822   39.4727   -9.1875 O.3     1  UNL1       -0.3634
     31 C          15.5262   39.0360   -7.8981 C.3     1  UNL1        0.1216
     32 C          15.1417   40.0908   -6.8480 C.3     1  UNL1       -0.0041
     33 N          15.6178   41.4361   -7.2352 N.4     1  UNL1        0.2346
     34 C          17.0332   38.7147   -7.8847 C.3     1  UNL1        0.0785
     35 O          17.4055   37.8967   -8.9862 O.3     1  UNL1       -0.3802
     36 C          17.1375   36.5206   -8.7849 C.3     1  UNL1        0.0366
     37 O          15.0662   44.2443   -8.0414 O.3     1  UNL1       -0.3843
     38 H          17.1711   44.7024   -9.1360 H       1  UNL1        0.0529
     39 H          14.9728   43.5198   -9.8797 H       1  UNL1        0.0670
     40 H          14.0600   41.8224   -8.5407 H       1  UNL1        0.0900
     41 H          14.9810   38.1205   -7.6686 H       1  UNL1        0.0673
     42 H          24.4598   42.9467   -4.0403 H       1  UNL1        0.0524
     43 H          23.3341   42.4793   -5.2744 H       1  UNL1        0.0524
     44 H          23.7664   41.3271   -3.9984 H       1  UNL1        0.0524
     45 H          20.5535   42.5523   -2.8628 H       1  UNL1        0.0610
     46 H          21.5528   41.1191   -2.9014 H       1  UNL1        0.0610
     47 H          19.8174   43.6411   -5.0261 H       1  UNL1        0.0628
     48 H          19.7976   41.0809   -8.5083 H       1  UNL1        0.0643
     49 H          21.8242   39.8369   -4.9182 H       1  UNL1        0.0639
     50 H          21.7617   38.4196   -6.7857 H       1  UNL1        0.1461
     51 H          19.6266   38.8716   -8.5815 H       1  UNL1        0.0461
     52 H          20.7074   37.5204   -8.6255 H       1  UNL1        0.0461
     53 H          22.2507   38.5973  -10.0938 H       1  UNL1        0.0281
     54 H          21.6766   40.1890   -9.6760 H       1  UNL1        0.0281
     55 H          19.4522   39.6628  -10.7301 H       1  UNL1        0.0298
     56 H          20.0589   38.1396  -11.2641 H       1  UNL1        0.0298
     57 H          20.1322   39.9608  -13.0632 H       1  UNL1        0.0696
     58 H          21.6470   39.1504  -12.7792 H       1  UNL1        0.0696
     59 H          22.7594   43.1897  -11.2901 H       1  UNL1        0.0654
     60 H          21.6886   45.2984  -10.5353 H       1  UNL1        0.0619
     61 H          19.2198   45.4464  -10.3760 H       1  UNL1        0.0620
     62 H          18.8595   41.4215  -11.8551 H       1  UNL1        0.0657
     63 H          16.9370   42.5563  -11.2202 H       1  UNL1        0.0332
     64 H          16.9484   44.2847  -11.4023 H       1  UNL1        0.0332
     65 H          18.1694   41.9389   -8.7523 H       1  UNL1        0.1494
     66 H          16.6421   40.7145   -9.7384 H       1  UNL1        0.0617
     67 H          15.1296   40.9731  -10.5749 H       1  UNL1        0.0617
     68 H          15.5238   39.8247   -5.8615 H       1  UNL1        0.0840
     69 H          14.0598   40.1334   -6.7557 H       1  UNL1        0.0840
     70 H          16.6258   41.4589   -7.1739 H       1  UNL1        0.2019
     71 H          17.6043   39.6385   -7.9533 H       1  UNL1        0.0587
     72 H          17.3278   38.2583   -6.9380 H       1  UNL1        0.0587
     73 H          17.4919   35.9489   -9.6396 H       1  UNL1        0.0524
     74 H          16.0712   36.3294   -8.6687 H       1  UNL1        0.0524
     75 H          17.6595   36.1483   -7.9039 H       1  UNL1        0.0524
     76 H          15.5057   44.1296   -7.2013 H       1  UNL1        0.2101
     77 H          15.2503   42.0817   -6.5376 H       1  UNL1        0.2019
@<TRIPOS>BOND
     1     1     2    1
     2     1    42    1
     3     1    43    1
     4     1    44    1
     5     2     3    1
     6     3     4    1
     7     3    45    1
     8     3    46    1
     9     4     9   ar
    10     4     5   ar
    11     5     6   ar
    12     5    47    1
    13     6    25    1
    14     6     7   ar
    15     7     8   ar
    16     7    48    1
    17     8     9   ar
    18     8    10    1
    19     9    49    1
    20    10    11    1
    21    10    50    1
    22    11    12    1
    23    11    51    1
    24    11    52    1
    25    12    13    1
    26    12    53    1
    27    12    54    1
    28    13    14    1
    29    13    55    1
    30    13    56    1
    31    14    15    1
    32    14    57    1
    33    14    58    1
    34    15    16    1
    35    16    21   ar
    36    16    17   ar
    37    17    18   ar
    38    17    59    1
    39    18    19   ar
    40    18    60    1
    41    19    20   ar
    42    19    61    1
    43    20    21   ar
    44    20    22    1
    45    21    62    1
    46    22    23    1
    47    22    63    1
    48    22    64    1
    49    23    38    1
    50    23    24    1
    51    23    27    1
    52    24    25   am
    53    24    65    1
    54    25    26    2
    55    27    39    1
    56    27    28    1
    57    27    37    1
    58    28    40    1
    59    28    33    1
    60    28    29    1
    61    29    30    1
    62    29    66    1
    63    29    67    1
    64    30    31    1
    65    31    41    1
    66    31    32    1
    67    31    34    1
    68    32    33    1
    69    32    68    1
    70    32    69    1
    71    33    70    1
    72    33    77    1
    73    34    35    1
    74    34    71    1
    75    34    72    1
    76    35    36    1
    77    36    73    1
    78    36    74    1
    79    36    75    1
    80    37    76    1
