@<TRIPOS>MOLECULE
BACE_9.smi:1
 87 89 0 0 0
SMALL
GASTEIGER
****
Structure written by MMmdl.
@<TRIPOS>ATOM
      1 C          20.3942   46.3099   -6.6565 C.3     1  UNL1       -0.0624
      2 C          20.3373   44.9865   -7.4365 C.3     1  UNL1       -0.0421
      3 C          21.7513   44.3678   -7.5287 C.3     1  UNL1       -0.0504
      4 C          21.7766   42.9633   -8.1472 C.3     1  UNL1       -0.0528
      5 C          23.1359   42.2563   -8.0399 C.3     1  UNL1       -0.0530
      6 C          23.0849   40.8294   -8.6067 C.3     1  UNL1       -0.0530
      7 C          22.3769   39.8350   -7.6692 C.3     1  UNL1       -0.0516
      8 C          22.0598   38.4727   -8.3061 C.3     1  UNL1       -0.0375
      9 C          20.6849   38.3863   -8.9902 C.3     1  UNL1        0.0091
     10 N          20.6084   39.1672  -10.2176 N.pl3   1  UNL1       -0.3438
     11 C          19.3867   39.8043  -10.4715 C.ar    1  UNL1        0.0282
     12 C          18.1470   39.1814  -10.2040 C.ar    1  UNL1       -0.0355
     13 C          16.9314   39.8751  -10.4049 C.ar    1  UNL1       -0.0195
     14 C          16.9650   41.1863  -10.9173 C.ar    1  UNL1       -0.0442
     15 C          18.1981   41.8178  -11.1833 C.ar    1  UNL1        0.0388
     16 C          19.4053   41.1201  -10.9739 C.ar    1  UNL1       -0.0287
     17 C          18.2204   43.2392  -11.6452 C.2     1  UNL1        0.2444
     18 O          17.9213   43.5156  -12.8064 O.2     1  UNL1       -0.2702
     19 N          18.5575   44.1820  -10.7449 N.am    1  UNL1       -0.3060
     20 C          18.7594   44.0327   -9.2912 C.3     1  UNL1        0.0508
     21 C          19.6740   45.1922   -8.8246 C.3     1  UNL1       -0.0295
     22 C          17.4170   43.9949   -8.4869 C.3     1  UNL1        0.0859
     23 C          16.2347   44.6886   -9.1949 C.3     1  UNL1        0.0240
     24 N          14.9563   44.5597   -8.4915 N.3     1  UNL1       -0.3095
     25 C          14.1023   43.4848   -9.0268 C.3     1  UNL1        0.0213
     26 C          13.5573   43.6795  -10.4480 C.ar    1  UNL1       -0.0333
     27 C          12.7806   42.6484  -11.0093 C.ar    1  UNL1       -0.0573
     28 C          12.2493   42.7833  -12.3066 C.ar    1  UNL1       -0.0612
     29 C          12.4781   43.9530  -13.0527 C.ar    1  UNL1       -0.0583
     30 C          13.2318   45.0179  -12.5047 C.ar    1  UNL1       -0.0445
     31 C          13.7857   44.8486  -11.2158 C.ar    1  UNL1       -0.0539
     32 C          13.4037   46.3653  -13.2253 C.3     1  UNL1       -0.0215
     33 C          12.8000   46.4439  -14.6445 C.3     1  UNL1       -0.0586
     34 C          14.8626   46.8713  -13.2136 C.3     1  UNL1       -0.0586
     35 O          17.1153   42.6461   -8.1843 O.3     1  UNL1       -0.3887
     36 C          15.5827   39.2603  -10.0489 C.3     1  UNL1        0.0724
     37 O          15.6274   37.8653   -9.7934 O.3     1  UNL1       -0.3784
     38 C          15.9003   37.5230   -8.4418 C.3     1  UNL1        0.0369
     39 H          19.7212   44.3083   -6.8464 H       1  UNL1        0.0299
     40 H          19.2973   43.1058   -9.1138 H       1  UNL1        0.0524
     41 H          17.5610   44.4743   -7.5187 H       1  UNL1        0.0624
     42 H          20.9978   47.0522   -7.1795 H       1  UNL1        0.0232
     43 H          20.8298   46.1624   -5.6680 H       1  UNL1        0.0232
     44 H          19.3971   46.7270   -6.5136 H       1  UNL1        0.0232
     45 H          22.4164   45.0264   -8.0909 H       1  UNL1        0.0268
     46 H          22.1689   44.3052   -6.5214 H       1  UNL1        0.0268
     47 H          21.0080   42.3605   -7.6632 H       1  UNL1        0.0265
     48 H          21.5105   43.0242   -9.2016 H       1  UNL1        0.0265
     49 H          23.8803   42.8328   -8.5866 H       1  UNL1        0.0265
     50 H          23.4701   42.2310   -7.0028 H       1  UNL1        0.0265
     51 H          22.6051   40.8533   -9.5844 H       1  UNL1        0.0265
     52 H          24.1009   40.4734   -8.7870 H       1  UNL1        0.0265
     53 H          23.0248   39.6758   -6.8075 H       1  UNL1        0.0266
     54 H          21.4558   40.2521   -7.2633 H       1  UNL1        0.0266
     55 H          22.8580   38.1587   -8.9769 H       1  UNL1        0.0280
     56 H          22.0507   37.7504   -7.4934 H       1  UNL1        0.0280
     57 H          20.4716   37.3481   -9.2417 H       1  UNL1        0.0461
     58 H          19.9159   38.6990   -8.2814 H       1  UNL1        0.0461
     59 H          21.4395   39.6956  -10.4398 H       1  UNL1        0.1461
     60 H          18.1325   38.1674   -9.8350 H       1  UNL1        0.0639
     61 H          16.0427   41.7296  -11.0559 H       1  UNL1        0.0628
     62 H          20.3473   41.6102  -11.1674 H       1  UNL1        0.0643
     63 H          18.5967   45.1279  -11.0964 H       1  UNL1        0.1494
     64 H          19.0775   46.1050   -8.8218 H       1  UNL1        0.0286
     65 H          20.4588   45.3705   -9.5611 H       1  UNL1        0.0286
     66 H          16.4782   45.7464   -9.2963 H       1  UNL1        0.0450
     67 H          16.1334   44.3066  -10.2064 H       1  UNL1        0.0450
     68 H          15.1484   44.3552   -7.5136 H       1  UNL1        0.1223
     69 H          14.6270   42.5307   -8.9893 H       1  UNL1        0.0473
     70 H          13.2390   43.3657   -8.3730 H       1  UNL1        0.0473
     71 H          12.5904   41.7501  -10.4347 H       1  UNL1        0.0621
     72 H          11.6567   41.9904  -12.7343 H       1  UNL1        0.0618
     73 H          12.0515   44.0213  -14.0408 H       1  UNL1        0.0620
     74 H          14.3750   45.6456  -10.7974 H       1  UNL1        0.0623
     75 H          12.8263   47.0741  -12.6322 H       1  UNL1        0.0343
     76 H          11.7315   46.2393  -14.6456 H       1  UNL1        0.0235
     77 H          13.2599   45.7500  -15.3442 H       1  UNL1        0.0235
     78 H          12.9249   47.4436  -15.0622 H       1  UNL1        0.0235
     79 H          15.2124   47.0883  -12.2043 H       1  UNL1        0.0235
     80 H          14.9608   47.7954  -13.7829 H       1  UNL1        0.0235
     81 H          15.5568   46.1503  -13.6399 H       1  UNL1        0.0235
     82 H          16.5476   42.6059   -7.4282 H       1  UNL1        0.2099
     83 H          15.1344   39.7980   -9.2129 H       1  UNL1        0.0610
     84 H          14.9187   39.4072  -10.9013 H       1  UNL1        0.0610
     85 H          16.0656   36.4473   -8.4146 H       1  UNL1        0.0524
     86 H          15.0571   37.7609   -7.7901 H       1  UNL1        0.0524
     87 H          16.7922   38.0165   -8.0532 H       1  UNL1        0.0524
@<TRIPOS>BOND
     1     1     2    1
     2     1    42    1
     3     1    43    1
     4     1    44    1
     5     2    39    1
     6     2    21    1
     7     2     3    1
     8     3     4    1
     9     3    45    1
    10     3    46    1
    11     4     5    1
    12     4    47    1
    13     4    48    1
    14     5     6    1
    15     5    49    1
    16     5    50    1
    17     6     7    1
    18     6    51    1
    19     6    52    1
    20     7     8    1
    21     7    53    1
    22     7    54    1
    23     8     9    1
    24     8    55    1
    25     8    56    1
    26     9    10    1
    27     9    57    1
    28     9    58    1
    29    10    11    1
    30    10    59    1
    31    11    16   ar
    32    11    12   ar
    33    12    13   ar
    34    12    60    1
    35    13    14   ar
    36    13    36    1
    37    14    15   ar
    38    14    61    1
    39    15    16   ar
    40    15    17    1
    41    16    62    1
    42    17    18    2
    43    17    19   am
    44    19    20    1
    45    19    63    1
    46    20    40    1
    47    20    21    1
    48    20    22    1
    49    21    64    1
    50    21    65    1
    51    22    41    1
    52    22    23    1
    53    22    35    1
    54    23    24    1
    55    23    66    1
    56    23    67    1
    57    24    25    1
    58    24    68    1
    59    25    26    1
    60    25    69    1
    61    25    70    1
    62    26    31   ar
    63    26    27   ar
    64    27    28   ar
    65    27    71    1
    66    28    29   ar
    67    28    72    1
    68    29    30   ar
    69    29    73    1
    70    30    31   ar
    71    30    32    1
    72    31    74    1
    73    32    33    1
    74    32    34    1
    75    32    75    1
    76    33    76    1
    77    33    77    1
    78    33    78    1
    79    34    79    1
    80    34    80    1
    81    34    81    1
    82    35    82    1
    83    36    37    1
    84    36    83    1
    85    36    84    1
    86    37    38    1
    87    38    85    1
    88    38    86    1
    89    38    87    1
