@<TRIPOS>MOLECULE
BACE_12.smi:1
 78 81 0 0 0
SMALL
GASTEIGER
****
Structure written by MMmdl.
@<TRIPOS>ATOM
      1 C          30.5173   42.3313  -11.0691 C.3     1  UNL1       -0.0586
      2 C          29.3297   41.8833  -11.9322 C.3     1  UNL1       -0.0215
      3 C          29.6873   41.9158  -13.4300 C.3     1  UNL1       -0.0586
      4 C          28.0855   42.6948  -11.5807 C.ar    1  UNL1       -0.0445
      5 C          27.8950   43.9935  -12.1063 C.ar    1  UNL1       -0.0583
      6 C          26.7782   44.7583  -11.7211 C.ar    1  UNL1       -0.0612
      7 C          25.8514   44.2399  -10.7986 C.ar    1  UNL1       -0.0573
      8 C          26.0284   42.9439  -10.2681 C.ar    1  UNL1       -0.0333
      9 C          27.1394   42.1730  -10.6714 C.ar    1  UNL1       -0.0539
     10 C          25.0370   42.3854   -9.2595 C.3     1  UNL1        0.0213
     11 N          23.6402   42.5609   -9.6521 N.3     1  UNL1       -0.3095
     12 C          23.2865   41.7909  -10.8407 C.3     1  UNL1        0.0240
     13 C          21.8259   42.0036  -11.2841 C.3     1  UNL1        0.0862
     14 C          20.7781   41.4570  -10.2789 C.3     1  UNL1        0.0545
     15 C          20.7114   39.9101  -10.2102 C.3     1  UNL1       -0.0067
     16 C          19.6747   39.4020   -9.2230 C.ar    1  UNL1       -0.0453
     17 C          19.8904   39.5692   -7.8397 C.ar    1  UNL1       -0.0585
     18 C          18.9200   39.1449   -6.9159 C.ar    1  UNL1       -0.0612
     19 C          17.7299   38.5496   -7.3722 C.ar    1  UNL1       -0.0586
     20 C          17.5125   38.3541   -8.7518 C.ar    1  UNL1       -0.0471
     21 C          18.4891   38.7811   -9.6777 C.ar    1  UNL1       -0.0553
     22 C          16.2284   37.6870   -9.2168 C.3     1  UNL1       -0.0276
     23 C          15.0158   38.6386   -9.1874 C.3     1  UNL1       -0.0476
     24 C          15.0332   39.7209  -10.2854 C.3     1  UNL1       -0.0371
     25 C          14.2917   40.9899   -9.8384 C.3     1  UNL1        0.0104
     26 N          14.2703   42.0411  -10.8437 N.pl3   1  UNL1       -0.3289
     27 C          15.3329   42.9428  -10.9671 C.ar    1  UNL1        0.1232
     28 C          16.6336   42.6662  -10.5032 C.ar    1  UNL1       -0.0095
     29 C          17.6659   43.5868  -10.7683 C.ar    1  UNL1        0.0450
     30 C          17.3416   44.7884  -11.4298 C.ar    1  UNL1        0.0122
     31 C          15.9983   44.9990  -11.8306 C.ar    1  UNL1        0.2168
     32 N          15.0291   44.0855  -11.6185 N.ar    1  UNL1       -0.1981
     33 O          15.5435   46.1281  -12.4802 O.3     1  UNL1       -0.4796
     34 C          16.4837   47.1561  -12.7450 C.3     1  UNL1        0.0804
     35 C          19.0770   43.2965  -10.3572 C.2     1  UNL1        0.2446
     36 O          19.8238   44.1922   -9.9661 O.2     1  UNL1       -0.2702
     37 N          19.4538   42.0207  -10.5366 N.am    1  UNL1       -0.3057
     38 O          21.6598   41.3490  -12.5275 O.3     1  UNL1       -0.3887
     39 H          21.6876   43.0705  -11.4570 H       1  UNL1        0.0624
     40 H          21.0531   41.8143   -9.2869 H       1  UNL1        0.0527
     41 H          30.2970   42.2141  -10.0086 H       1  UNL1        0.0235
     42 H          30.7569   43.3794  -11.2445 H       1  UNL1        0.0235
     43 H          31.4085   41.7495  -11.2920 H       1  UNL1        0.0235
     44 H          29.1190   40.8419  -11.6863 H       1  UNL1        0.0343
     45 H          28.8600   41.5701  -14.0482 H       1  UNL1        0.0235
     46 H          30.5371   41.2652  -13.6416 H       1  UNL1        0.0235
     47 H          29.9628   42.9140  -13.7665 H       1  UNL1        0.0235
     48 H          28.6090   44.4197  -12.7940 H       1  UNL1        0.0620
     49 H          26.6372   45.7486  -12.1257 H       1  UNL1        0.0618
     50 H          25.0032   44.8364  -10.4964 H       1  UNL1        0.0621
     51 H          27.2734   41.1805  -10.2625 H       1  UNL1        0.0623
     52 H          25.2446   41.3285   -9.0893 H       1  UNL1        0.0473
     53 H          25.2151   42.8926   -8.3107 H       1  UNL1        0.0473
     54 H          23.0338   42.3135   -8.8752 H       1  UNL1        0.1223
     55 H          23.9351   42.1338  -11.6443 H       1  UNL1        0.0450
     56 H          23.5035   40.7344  -10.6878 H       1  UNL1        0.0450
     57 H          20.4838   39.4907  -11.1916 H       1  UNL1        0.0332
     58 H          21.6809   39.5016   -9.9258 H       1  UNL1        0.0332
     59 H          20.7953   40.0369   -7.4824 H       1  UNL1        0.0620
     60 H          19.0742   39.2916   -5.8575 H       1  UNL1        0.0618
     61 H          16.9827   38.2326   -6.6584 H       1  UNL1        0.0620
     62 H          18.3203   38.6424  -10.7367 H       1  UNL1        0.0623
     63 H          16.3617   37.2620  -10.2105 H       1  UNL1        0.0313
     64 H          16.0428   36.8461   -8.5486 H       1  UNL1        0.0313
     65 H          14.0927   38.0661   -9.2807 H       1  UNL1        0.0269
     66 H          14.9661   39.1002   -8.1986 H       1  UNL1        0.0269
     67 H          16.0612   39.9430  -10.5616 H       1  UNL1        0.0280
     68 H          14.5696   39.3500  -11.1973 H       1  UNL1        0.0280
     69 H          13.2590   40.7183   -9.6388 H       1  UNL1        0.0461
     70 H          14.7034   41.3749   -8.9040 H       1  UNL1        0.0461
     71 H          13.3570   42.3996  -11.0775 H       1  UNL1        0.1475
     72 H          16.8568   41.7688   -9.9494 H       1  UNL1        0.0659
     73 H          18.1225   45.5091  -11.6210 H       1  UNL1        0.0678
     74 H          15.9850   47.9734  -13.2683 H       1  UNL1        0.0660
     75 H          17.2938   46.8020  -13.3837 H       1  UNL1        0.0660
     76 H          16.8983   47.5569  -11.8193 H       1  UNL1        0.0660
     77 H          18.7541   41.3771  -10.8757 H       1  UNL1        0.1494
     78 H          22.5301   41.1048  -12.8410 H       1  UNL1        0.2099
@<TRIPOS>BOND
     1     1     2    1
     2     1    41    1
     3     1    42    1
     4     1    43    1
     5     2     3    1
     6     2     4    1
     7     2    44    1
     8     3    45    1
     9     3    46    1
    10     3    47    1
    11     4     9   ar
    12     4     5   ar
    13     5     6   ar
    14     5    48    1
    15     6     7   ar
    16     6    49    1
    17     7     8   ar
    18     7    50    1
    19     8     9   ar
    20     8    10    1
    21     9    51    1
    22    10    11    1
    23    10    52    1
    24    10    53    1
    25    11    12    1
    26    11    54    1
    27    12    13    1
    28    12    55    1
    29    12    56    1
    30    13    39    1
    31    13    14    1
    32    13    38    1
    33    14    40    1
    34    14    37    1
    35    14    15    1
    36    15    16    1
    37    15    57    1
    38    15    58    1
    39    16    21   ar
    40    16    17   ar
    41    17    18   ar
    42    17    59    1
    43    18    19   ar
    44    18    60    1
    45    19    20   ar
    46    19    61    1
    47    20    21   ar
    48    20    22    1
    49    21    62    1
    50    22    23    1
    51    22    63    1
    52    22    64    1
    53    23    24    1
    54    23    65    1
    55    23    66    1
    56    24    25    1
    57    24    67    1
    58    24    68    1
    59    25    26    1
    60    25    69    1
    61    25    70    1
    62    26    27    1
    63    26    71    1
    64    27    32   ar
    65    27    28   ar
    66    28    29   ar
    67    28    72    1
    68    29    30   ar
    69    29    35    1
    70    30    31   ar
    71    30    73    1
    72    31    32   ar
    73    31    33    1
    74    33    34    1
    75    34    74    1
    76    34    75    1
    77    34    76    1
    78    35    36    2
    79    35    37   am
    80    37    77    1
    81    38    78    1
