@<TRIPOS>MOLECULE
BACE_10.smi:1
 86 88 0 0 0
SMALL
GASTEIGER
****
Structure written by MMmdl.
@<TRIPOS>ATOM
      1 C          21.2547   38.4987   -7.5065 C.3     1  UNL1       -0.0623
      2 C          20.4838   39.4066   -8.4794 C.3     1  UNL1       -0.0400
      3 C          19.7377   38.5580   -9.5401 C.3     1  UNL1       -0.0268
      4 C          18.4464   37.9164   -9.0170 C.3     1  UNL1        0.0479
      5 O          17.6119   38.9526   -8.5334 O.3     1  UNL1       -0.3797
      6 C          16.3172   38.5209   -8.1632 C.3     1  UNL1        0.0477
      7 C          15.6883   39.5451   -7.2085 C.3     1  UNL1       -0.0281
      8 C          15.8091   41.0007   -7.6851 C.3     1  UNL1       -0.0354
      9 C          15.1521   41.2524   -9.0478 C.3     1  UNL1        0.0092
     10 N          15.3482   42.6242   -9.4892 N.pl3   1  UNL1       -0.3438
     11 C          16.3927   42.9966  -10.3496 C.ar    1  UNL1        0.0282
     12 C          16.3130   44.2805  -10.9245 C.ar    1  UNL1       -0.0355
     13 C          17.2847   44.7191  -11.8449 C.ar    1  UNL1       -0.0195
     14 C          18.3601   43.8696  -12.1706 C.ar    1  UNL1       -0.0442
     15 C          18.4731   42.5872  -11.5957 C.ar    1  UNL1        0.0388
     16 C          17.4854   42.1524  -10.6790 C.ar    1  UNL1       -0.0287
     17 C          19.5811   41.6771  -12.0529 C.2     1  UNL1        0.2444
     18 O          19.6600   41.3503  -13.2349 O.2     1  UNL1       -0.2702
     19 N          20.5095   41.2397  -11.1924 N.am    1  UNL1       -0.3058
     20 C          20.7794   41.6495   -9.8184 C.3     1  UNL1        0.0545
     21 C          21.4459   40.4627   -9.0681 C.3     1  UNL1       -0.0292
     22 C          21.6850   42.9203   -9.7833 C.3     1  UNL1        0.1130
     23 C          22.7982   43.0265  -10.8597 C.3     1  UNL1       -0.0050
     24 N          23.7579   41.8989  -10.8291 N.4     1  UNL1        0.2321
     25 C          24.7784   41.9084   -9.7638 C.3     1  UNL1       -0.0076
     26 C          25.9349   42.8446  -10.0708 C.ar    1  UNL1       -0.0027
     27 C          25.9083   44.1763   -9.6069 C.ar    1  UNL1       -0.0535
     28 C          26.9939   45.0330   -9.8624 C.ar    1  UNL1       -0.0611
     29 C          28.1071   44.5640  -10.5839 C.ar    1  UNL1       -0.0583
     30 C          28.1466   43.2369  -11.0619 C.ar    1  UNL1       -0.0444
     31 C          27.0555   42.3762  -10.7937 C.ar    1  UNL1       -0.0501
     32 C          29.3829   42.7703  -11.8313 C.3     1  UNL1       -0.0215
     33 C          29.0667   41.7965  -12.9754 C.3     1  UNL1       -0.0586
     34 C          30.4338   42.1763  -10.8895 C.3     1  UNL1       -0.0586
     35 O          20.8605   44.0609   -9.8950 O.3     1  UNL1       -0.3847
     36 C          17.1794   46.1009  -12.4684 C.3     1  UNL1        0.0724
     37 O          15.8435   46.4241  -12.8280 O.3     1  UNL1       -0.3784
     38 C          15.7348   47.7013  -13.4344 C.3     1  UNL1        0.0369
     39 H          19.7511   39.9572   -7.8888 H       1  UNL1        0.0299
     40 H          19.8458   41.8674   -9.2965 H       1  UNL1        0.0526
     41 H          22.1372   43.0109   -8.7964 H       1  UNL1        0.0666
     42 H          22.0117   37.9140   -8.0321 H       1  UNL1        0.0232
     43 H          20.5877   37.8038   -6.9963 H       1  UNL1        0.0232
     44 H          21.7633   39.0756   -6.7329 H       1  UNL1        0.0232
     45 H          19.4409   39.1602  -10.3919 H       1  UNL1        0.0290
     46 H          20.3984   37.7882   -9.9399 H       1  UNL1        0.0290
     47 H          17.9476   37.3775   -9.8245 H       1  UNL1        0.0560
     48 H          18.6533   37.2008   -8.2222 H       1  UNL1        0.0560
     49 H          15.7085   38.3747   -9.0540 H       1  UNL1        0.0560
     50 H          16.3743   37.5648   -7.6567 H       1  UNL1        0.0560
     51 H          14.6405   39.2921   -7.0382 H       1  UNL1        0.0288
     52 H          16.1722   39.4597   -6.2338 H       1  UNL1        0.0288
     53 H          15.3538   41.6507   -6.9358 H       1  UNL1        0.0281
     54 H          16.8619   41.2808   -7.7226 H       1  UNL1        0.0281
     55 H          15.5204   40.5599   -9.8034 H       1  UNL1        0.0461
     56 H          14.0792   41.0672   -8.9739 H       1  UNL1        0.0461
     57 H          14.6196   43.2865   -9.2675 H       1  UNL1        0.1461
     58 H          15.4865   44.9313  -10.6728 H       1  UNL1        0.0639
     59 H          19.1067   44.2118  -12.8676 H       1  UNL1        0.0628
     60 H          17.5633   41.1619  -10.2550 H       1  UNL1        0.0643
     61 H          21.1578   40.5779  -11.5922 H       1  UNL1        0.1494
     62 H          22.0029   40.8730   -8.2238 H       1  UNL1        0.0286
     63 H          22.1922   39.9688   -9.6920 H       1  UNL1        0.0286
     64 H          22.3483   43.0585  -11.8544 H       1  UNL1        0.0840
     65 H          23.3376   43.9688  -10.7553 H       1  UNL1        0.0840
     66 H          23.2247   41.0483  -10.7473 H       1  UNL1        0.2018
     67 H          24.3283   42.1574   -8.8011 H       1  UNL1        0.0866
     68 H          25.1666   40.8937   -9.6646 H       1  UNL1        0.0866
     69 H          25.0625   44.5497   -9.0477 H       1  UNL1        0.0622
     70 H          26.9784   46.0502   -9.5002 H       1  UNL1        0.0618
     71 H          28.9386   45.2316  -10.7633 H       1  UNL1        0.0620
     72 H          27.0764   41.3504  -11.1293 H       1  UNL1        0.0625
     73 H          29.8218   43.6572  -12.2943 H       1  UNL1        0.0343
     74 H          28.3356   42.2391  -13.6456 H       1  UNL1        0.0235
     75 H          28.6720   40.8457  -12.6166 H       1  UNL1        0.0235
     76 H          29.9596   41.5685  -13.5596 H       1  UNL1        0.0235
     77 H          30.7014   42.8816  -10.1022 H       1  UNL1        0.0235
     78 H          31.3436   41.9187  -11.4318 H       1  UNL1        0.0235
     79 H          30.0550   41.2670  -10.4306 H       1  UNL1        0.0235
     80 H          20.1630   43.9996   -9.2588 H       1  UNL1        0.2101
     81 H          17.5617   46.8334  -11.7560 H       1  UNL1        0.0610
     82 H          17.8192   46.1451  -13.3495 H       1  UNL1        0.0610
     83 H          14.6856   47.9180  -13.6406 H       1  UNL1        0.0524
     84 H          16.2773   47.7418  -14.3800 H       1  UNL1        0.0524
     85 H          16.1166   48.4867  -12.7786 H       1  UNL1        0.0524
     86 H          24.2290   41.8501  -11.7270 H       1  UNL1        0.2018
@<TRIPOS>BOND
     1     1     2    1
     2     1    42    1
     3     1    43    1
     4     1    44    1
     5     2    39    1
     6     2    21    1
     7     2     3    1
     8     3     4    1
     9     3    45    1
    10     3    46    1
    11     4     5    1
    12     4    47    1
    13     4    48    1
    14     5     6    1
    15     6     7    1
    16     6    49    1
    17     6    50    1
    18     7     8    1
    19     7    51    1
    20     7    52    1
    21     8     9    1
    22     8    53    1
    23     8    54    1
    24     9    10    1
    25     9    55    1
    26     9    56    1
    27    10    11    1
    28    10    57    1
    29    11    16   ar
    30    11    12   ar
    31    12    13   ar
    32    12    58    1
    33    13    14   ar
    34    13    36    1
    35    14    15   ar
    36    14    59    1
    37    15    16   ar
    38    15    17    1
    39    16    60    1
    40    17    18    2
    41    17    19   am
    42    19    20    1
    43    19    61    1
    44    20    40    1
    45    20    21    1
    46    20    22    1
    47    21    62    1
    48    21    63    1
    49    22    41    1
    50    22    23    1
    51    22    35    1
    52    23    24    1
    53    23    64    1
    54    23    65    1
    55    24    25    1
    56    24    66    1
    57    24    86    1
    58    25    26    1
    59    25    67    1
    60    25    68    1
    61    26    31   ar
    62    26    27   ar
    63    27    28   ar
    64    27    69    1
    65    28    29   ar
    66    28    70    1
    67    29    30   ar
    68    29    71    1
    69    30    31   ar
    70    30    32    1
    71    31    72    1
    72    32    33    1
    73    32    34    1
    74    32    73    1
    75    33    74    1
    76    33    75    1
    77    33    76    1
    78    34    77    1
    79    34    78    1
    80    34    79    1
    81    35    80    1
    82    36    37    1
    83    36    81    1
    84    36    82    1
    85    37    38    1
    86    38    83    1
    87    38    84    1
    88    38    85    1
