@<TRIPOS>MOLECULE
BACE_12.smi:1
 78 81 0 0 0
SMALL
GASTEIGER
****
Structure written by MMmdl.
@<TRIPOS>ATOM
      1 C          30.3306   45.7914   -9.1817 C.3     1  UNL1       -0.0586
      2 C          29.9238   44.3587   -8.8075 C.3     1  UNL1       -0.0215
      3 C          31.1439   43.4241   -8.7775 C.3     1  UNL1       -0.0586
      4 C          28.8051   43.8590   -9.7167 C.ar    1  UNL1       -0.0445
      5 C          29.0762   43.4405  -11.0387 C.ar    1  UNL1       -0.0583
      6 C          28.0244   43.0407  -11.8868 C.ar    1  UNL1       -0.0612
      7 C          26.6931   43.0705  -11.4281 C.ar    1  UNL1       -0.0573
      8 C          26.4088   43.4701  -10.1032 C.ar    1  UNL1       -0.0333
      9 C          27.4691   43.8580   -9.2541 C.ar    1  UNL1       -0.0539
     10 C          24.9743   43.5193   -9.5966 C.3     1  UNL1        0.0213
     11 N          24.4280   42.1999   -9.2592 N.3     1  UNL1       -0.3095
     12 C          23.8229   41.4687  -10.3757 C.3     1  UNL1        0.0240
     13 C          22.3834   41.9392  -10.7080 C.3     1  UNL1        0.0862
     14 C          21.3010   41.3389   -9.7714 C.3     1  UNL1        0.0545
     15 C          21.2516   39.7865   -9.7728 C.3     1  UNL1       -0.0067
     16 C          20.1361   39.2318   -8.9088 C.ar    1  UNL1       -0.0453
     17 C          20.2113   39.4048   -7.5119 C.ar    1  UNL1       -0.0585
     18 C          19.1686   38.9498   -6.6904 C.ar    1  UNL1       -0.0612
     19 C          18.0593   38.3069   -7.2607 C.ar    1  UNL1       -0.0586
     20 C          17.9757   38.1144   -8.6535 C.ar    1  UNL1       -0.0471
     21 C          19.0229   38.5764   -9.4809 C.ar    1  UNL1       -0.0553
     22 C          16.7514   37.4270   -9.2398 C.3     1  UNL1       -0.0276
     23 C          15.5024   38.3254   -9.2215 C.3     1  UNL1       -0.0476
     24 C          15.5281   39.4574  -10.2647 C.3     1  UNL1       -0.0371
     25 C          14.7762   40.7081   -9.7747 C.3     1  UNL1        0.0104
     26 N          14.7823   41.7925  -10.7467 N.pl3   1  UNL1       -0.3289
     27 C          15.8621   42.6827  -10.8404 C.ar    1  UNL1        0.1232
     28 C          17.1269   42.4348  -10.2671 C.ar    1  UNL1       -0.0095
     29 C          18.1616   43.3722  -10.4674 C.ar    1  UNL1        0.0450
     30 C          17.8732   44.5506  -11.1847 C.ar    1  UNL1        0.0122
     31 C          16.5717   44.7221  -11.7132 C.ar    1  UNL1        0.2168
     32 N          15.6008   43.7956  -11.5592 N.ar    1  UNL1       -0.1981
     33 O          16.1621   45.8179  -12.4409 O.3     1  UNL1       -0.4796
     34 C          17.1098   46.8545  -12.6710 C.3     1  UNL1        0.0804
     35 C          19.5398   43.1258   -9.9276 C.2     1  UNL1        0.2446
     36 O          20.2244   44.0403   -9.4703 O.2     1  UNL1       -0.2702
     37 N          19.9712   41.8674  -10.0858 N.am    1  UNL1       -0.3057
     38 O          22.0599   41.5845  -12.0371 O.3     1  UNL1       -0.3887
     39 H          22.3517   43.0277  -10.6713 H       1  UNL1        0.0624
     40 H          21.5326   41.6587   -8.7539 H       1  UNL1        0.0527
     41 H          29.4732   46.4643   -9.1396 H       1  UNL1        0.0235
     42 H          30.7408   45.8365  -10.1912 H       1  UNL1        0.0235
     43 H          31.0875   46.1764   -8.4971 H       1  UNL1        0.0235
     44 H          29.5286   44.3901   -7.7922 H       1  UNL1        0.0343
     45 H          30.8590   42.4225   -8.4663 H       1  UNL1        0.0235
     46 H          31.8904   43.7817   -8.0682 H       1  UNL1        0.0235
     47 H          31.6318   43.3513   -9.7497 H       1  UNL1        0.0235
     48 H          30.0875   43.4377  -11.4191 H       1  UNL1        0.0620
     49 H          28.2379   42.7253  -12.8982 H       1  UNL1        0.0618
     50 H          25.9001   42.7923  -12.1027 H       1  UNL1        0.0621
     51 H          27.2524   44.1793   -8.2445 H       1  UNL1        0.0623
     52 H          24.9633   44.1440   -8.7035 H       1  UNL1        0.0473
     53 H          24.3481   44.0358  -10.3244 H       1  UNL1        0.0473
     54 H          23.7825   42.2742   -8.4807 H       1  UNL1        0.1223
     55 H          24.4624   41.5715  -11.2397 H       1  UNL1        0.0450
     56 H          23.8355   40.4025  -10.1641 H       1  UNL1        0.0450
     57 H          21.1394   39.4073  -10.7903 H       1  UNL1        0.0332
     58 H          22.1797   39.3598   -9.3903 H       1  UNL1        0.0332
     59 H          21.0595   39.9042   -7.0641 H       1  UNL1        0.0620
     60 H          19.2103   39.1027   -5.6244 H       1  UNL1        0.0618
     61 H          17.2618   37.9752   -6.6153 H       1  UNL1        0.0620
     62 H          18.9589   38.4444  -10.5522 H       1  UNL1        0.0623
     63 H          16.9594   37.0779  -10.2506 H       1  UNL1        0.0313
     64 H          16.5562   36.5335   -8.6435 H       1  UNL1        0.0313
     65 H          14.6106   37.7257   -9.4027 H       1  UNL1        0.0269
     66 H          15.3775   38.7314   -8.2163 H       1  UNL1        0.0269
     67 H          16.5582   39.7100  -10.5057 H       1  UNL1        0.0280
     68 H          15.0922   39.1040  -11.1993 H       1  UNL1        0.0280
     69 H          13.7364   40.4470   -9.5756 H       1  UNL1        0.0461
     70 H          15.1893   41.0573   -8.8276 H       1  UNL1        0.0461
     71 H          13.8769   42.1656  -10.9899 H       1  UNL1        0.1475
     72 H          17.3134   41.5471   -9.6808 H       1  UNL1        0.0659
     73 H          18.6546   45.2818  -11.3281 H       1  UNL1        0.0678
     74 H          16.6424   47.6497  -13.2543 H       1  UNL1        0.0660
     75 H          17.9698   46.4909  -13.2375 H       1  UNL1        0.0660
     76 H          17.4533   47.2923  -11.7314 H       1  UNL1        0.0660
     77 H          19.3238   41.2138  -10.4960 H       1  UNL1        0.1494
     78 H          22.8424   41.2541  -12.4728 H       1  UNL1        0.2099
@<TRIPOS>BOND
     1     1     2    1
     2     1    41    1
     3     1    42    1
     4     1    43    1
     5     2     3    1
     6     2     4    1
     7     2    44    1
     8     3    45    1
     9     3    46    1
    10     3    47    1
    11     4     9   ar
    12     4     5   ar
    13     5     6   ar
    14     5    48    1
    15     6     7   ar
    16     6    49    1
    17     7     8   ar
    18     7    50    1
    19     8     9   ar
    20     8    10    1
    21     9    51    1
    22    10    11    1
    23    10    52    1
    24    10    53    1
    25    11    12    1
    26    11    54    1
    27    12    13    1
    28    12    55    1
    29    12    56    1
    30    13    39    1
    31    13    14    1
    32    13    38    1
    33    14    40    1
    34    14    37    1
    35    14    15    1
    36    15    16    1
    37    15    57    1
    38    15    58    1
    39    16    21   ar
    40    16    17   ar
    41    17    18   ar
    42    17    59    1
    43    18    19   ar
    44    18    60    1
    45    19    20   ar
    46    19    61    1
    47    20    21   ar
    48    20    22    1
    49    21    62    1
    50    22    23    1
    51    22    63    1
    52    22    64    1
    53    23    24    1
    54    23    65    1
    55    23    66    1
    56    24    25    1
    57    24    67    1
    58    24    68    1
    59    25    26    1
    60    25    69    1
    61    25    70    1
    62    26    27    1
    63    26    71    1
    64    27    32   ar
    65    27    28   ar
    66    28    29   ar
    67    28    72    1
    68    29    30   ar
    69    29    35    1
    70    30    31   ar
    71    30    73    1
    72    31    32   ar
    73    31    33    1
    74    33    34    1
    75    34    74    1
    76    34    75    1
    77    34    76    1
    78    35    36    2
    79    35    37   am
    80    37    77    1
    81    38    78    1
