@<TRIPOS>MOLECULE
BACE_4.smi:1
 89 91 0 0 0
SMALL
GASTEIGER
****
Structure written by MMmdl.
@<TRIPOS>ATOM
      1 C          21.8904   44.5385   -4.8425 C.3     1  UNL1       -0.0624
      2 C          22.9314   43.5305   -5.3370 C.3     1  UNL1       -0.0421
      3 C          23.6846   43.8716   -6.6536 C.3     1  UNL1       -0.0504
      4 C          23.5152   45.2891   -7.2479 C.3     1  UNL1       -0.0528
      5 C          24.2387   46.4165   -6.4874 C.3     1  UNL1       -0.0530
      6 C          24.0817   47.8128   -7.1288 C.3     1  UNL1       -0.0510
      7 C          22.6328   48.2612   -7.4206 C.3     1  UNL1       -0.0294
      8 C          21.7084   48.2838   -6.1864 C.3     1  UNL1        0.0483
      9 O          20.4260   48.8563   -6.4589 O.3     1  UNL1       -0.3706
     10 C          19.5738   48.1655   -7.3809 C.3     1  UNL1        0.1238
     11 C          19.1421   46.7836   -6.8336 C.2     1  UNL1        0.2417
     12 O          18.8542   46.7085   -5.6393 O.2     1  UNL1       -0.2731
     13 N          19.1138   45.7010   -7.6592 N.am    1  UNL1       -0.2914
     14 C          18.8632   44.3349   -7.1329 C.3     1  UNL1        0.0991
     15 C          19.9771   43.3164   -7.4384 C.2     1  UNL1        0.2336
     16 O          20.5794   43.3154   -8.5113 O.2     1  UNL1       -0.2738
     17 N          20.2624   42.4601   -6.4449 N.am    1  UNL1       -0.3084
     18 C          21.4275   41.5817   -6.3860 C.3     1  UNL1        0.0505
     19 C          22.3927   42.0726   -5.2669 C.3     1  UNL1       -0.0295
     20 C          20.9641   40.1111   -6.1962 C.3     1  UNL1        0.0859
     21 C          20.4939   39.4310   -7.4951 C.3     1  UNL1        0.0245
     22 N          19.2402   40.0085   -7.9711 N.3     1  UNL1       -0.3042
     23 C          18.7368   39.5613   -9.2747 C.3     1  UNL1        0.0447
     24 C          19.3763   38.4078  -10.0256 C.3     1  UNL1       -0.0285
     25 C          19.5770   39.8319  -10.5031 C.3     1  UNL1       -0.0285
     26 C          17.2516   39.7472   -9.3361 C.ar    1  UNL1       -0.0271
     27 C          16.3949   38.7305   -8.8720 C.ar    1  UNL1       -0.0568
     28 C          15.0021   38.9079   -8.9147 C.ar    1  UNL1       -0.0612
     29 C          14.4622   40.0985   -9.4296 C.ar    1  UNL1       -0.0580
     30 C          15.2951   41.1455   -9.8853 C.ar    1  UNL1       -0.0417
     31 C          16.6988   40.9537   -9.8188 C.ar    1  UNL1       -0.0531
     32 C          14.6718   42.4541  -10.4139 C.3     1  UNL1       -0.0127
     33 C          15.6661   43.2790  -11.2602 C.3     1  UNL1       -0.0560
     34 C          13.4481   42.1491  -11.2987 C.3     1  UNL1       -0.0560
     35 C          14.1998   43.3178   -9.2334 C.3     1  UNL1       -0.0560
     36 O          22.0598   39.3529   -5.7336 O.3     1  UNL1       -0.3887
     37 C          17.4685   43.8389   -7.5387 C.3     1  UNL1       -0.0379
     38 C          19.2887   45.8492   -9.1141 C.3     1  UNL1        0.0040
     39 H          23.6939   43.5675   -4.5622 H       1  UNL1        0.0299
     40 H          18.8366   44.3759   -6.0416 H       1  UNL1        0.0594
     41 H          21.9668   41.6019   -7.3330 H       1  UNL1        0.0524
     42 H          20.1813   40.0417   -5.4353 H       1  UNL1        0.0624
     43 H          22.3746   45.4175   -4.4385 H       1  UNL1        0.0232
     44 H          21.2890   44.1010   -4.0427 H       1  UNL1        0.0232
     45 H          21.2048   44.8716   -5.6101 H       1  UNL1        0.0232
     46 H          24.7484   43.6607   -6.5191 H       1  UNL1        0.0268
     47 H          23.3725   43.1883   -7.4422 H       1  UNL1        0.0268
     48 H          22.4539   45.5037   -7.3572 H       1  UNL1        0.0265
     49 H          23.9026   45.2748   -8.2704 H       1  UNL1        0.0265
     50 H          23.9197   46.4618   -5.4490 H       1  UNL1        0.0265
     51 H          25.3024   46.1810   -6.4378 H       1  UNL1        0.0265
     52 H          24.6439   47.8376   -8.0653 H       1  UNL1        0.0266
     53 H          24.5640   48.5470   -6.4786 H       1  UNL1        0.0266
     54 H          22.6663   49.2614   -7.8540 H       1  UNL1        0.0287
     55 H          22.2202   47.6159   -8.1984 H       1  UNL1        0.0287
     56 H          22.1630   48.8955   -5.4062 H       1  UNL1        0.0560
     57 H          21.6046   47.2904   -5.7500 H       1  UNL1        0.0560
     58 H          20.0555   48.1338   -8.3571 H       1  UNL1        0.0657
     59 H          18.6713   48.7588   -7.5149 H       1  UNL1        0.0657
     60 H          19.6507   42.4525   -5.6386 H       1  UNL1        0.1491
     61 H          21.9117   41.9218   -4.3013 H       1  UNL1        0.0286
     62 H          23.2599   41.4229   -5.2386 H       1  UNL1        0.0286
     63 H          20.3532   38.3602   -7.3224 H       1  UNL1        0.0450
     64 H          21.2737   39.5276   -8.2515 H       1  UNL1        0.0450
     65 H          19.3851   41.0087   -8.0171 H       1  UNL1        0.1229
     66 H          20.2604   37.9046   -9.6362 H       1  UNL1        0.0287
     67 H          18.7269   37.7799  -10.6274 H       1  UNL1        0.0287
     68 H          19.0656   40.1126  -11.4216 H       1  UNL1        0.0287
     69 H          20.5648   40.2711  -10.3638 H       1  UNL1        0.0287
     70 H          16.8061   37.8180   -8.4620 H       1  UNL1        0.0621
     71 H          14.3389   38.1397   -8.5439 H       1  UNL1        0.0618
     72 H          13.3884   40.1857   -9.4415 H       1  UNL1        0.0620
     73 H          17.3831   41.7231  -10.1314 H       1  UNL1        0.0624
     74 H          16.4763   43.6882  -10.6613 H       1  UNL1        0.0238
     75 H          15.1823   44.1274  -11.7469 H       1  UNL1        0.0238
     76 H          16.1205   42.6677  -12.0395 H       1  UNL1        0.0238
     77 H          12.6128   41.7558  -10.7173 H       1  UNL1        0.0238
     78 H          13.6849   41.3967  -12.0405 H       1  UNL1        0.0238
     79 H          13.0769   43.0395  -11.8095 H       1  UNL1        0.0238
     80 H          13.4561   42.8037   -8.6281 H       1  UNL1        0.0238
     81 H          13.7472   44.2465   -9.5760 H       1  UNL1        0.0238
     82 H          15.0226   43.5695   -8.5723 H       1  UNL1        0.0238
     83 H          22.2659   39.6295   -4.8559 H       1  UNL1        0.2099
     84 H          17.2274   42.8871   -7.0622 H       1  UNL1        0.0252
     85 H          17.4095   43.6883   -8.6189 H       1  UNL1        0.0252
     86 H          16.6945   44.5552   -7.2473 H       1  UNL1        0.0252
     87 H          18.9745   44.9649   -9.6715 H       1  UNL1        0.0429
     88 H          20.3409   46.0212   -9.3559 H       1  UNL1        0.0429
     89 H          18.6925   46.6766   -9.5081 H       1  UNL1        0.0429
@<TRIPOS>BOND
     1     1     2    1
     2     1    43    1
     3     1    44    1
     4     1    45    1
     5     2    39    1
     6     2    19    1
     7     2     3    1
     8     3     4    1
     9     3    46    1
    10     3    47    1
    11     4     5    1
    12     4    48    1
    13     4    49    1
    14     5     6    1
    15     5    50    1
    16     5    51    1
    17     6     7    1
    18     6    52    1
    19     6    53    1
    20     7     8    1
    21     7    54    1
    22     7    55    1
    23     8     9    1
    24     8    56    1
    25     8    57    1
    26     9    10    1
    27    10    11    1
    28    10    58    1
    29    10    59    1
    30    11    12    2
    31    11    13   am
    32    13    14    1
    33    13    38    1
    34    14    40    1
    35    14    15    1
    36    14    37    1
    37    15    16    2
    38    15    17   am
    39    17    18    1
    40    17    60    1
    41    18    41    1
    42    18    19    1
    43    18    20    1
    44    19    61    1
    45    19    62    1
    46    20    42    1
    47    20    21    1
    48    20    36    1
    49    21    22    1
    50    21    63    1
    51    21    64    1
    52    22    23    1
    53    22    65    1
    54    23    25    1
    55    23    24    1
    56    23    26    1
    57    24    25    1
    58    24    66    1
    59    24    67    1
    60    25    68    1
    61    25    69    1
    62    26    31   ar
    63    26    27   ar
    64    27    28   ar
    65    27    70    1
    66    28    29   ar
    67    28    71    1
    68    29    30   ar
    69    29    72    1
    70    30    31   ar
    71    30    32    1
    72    31    73    1
    73    32    33    1
    74    32    34    1
    75    32    35    1
    76    33    74    1
    77    33    75    1
    78    33    76    1
    79    34    77    1
    80    34    78    1
    81    34    79    1
    82    35    80    1
    83    35    81    1
    84    35    82    1
    85    36    83    1
    86    37    84    1
    87    37    85    1
    88    37    86    1
    89    38    87    1
    90    38    88    1
    91    38    89    1
