@<TRIPOS>MOLECULE
BACE_15.smi:1
 83 86 0 0 0
SMALL
GASTEIGER
****
Structure written by MMmdl.
@<TRIPOS>ATOM
      1 C          20.2362   38.4653   -7.3875 C.3     1  UNL1       -0.0586
      2 C          19.5999   38.0333   -8.7173 C.3     1  UNL1       -0.0215
      3 C          20.1828   38.7922   -9.9151 C.3     1  UNL1       -0.0586
      4 C          18.0825   38.1417   -8.6890 C.ar    1  UNL1       -0.0444
      5 C          17.3214   37.4304   -9.6369 C.ar    1  UNL1       -0.0583
      6 C          15.9181   37.5055   -9.6267 C.ar    1  UNL1       -0.0611
      7 C          15.2607   38.3082   -8.6761 C.ar    1  UNL1       -0.0535
      8 C          16.0112   39.0413   -7.7336 C.ar    1  UNL1       -0.0027
      9 C          17.4198   38.9521   -7.7396 C.ar    1  UNL1       -0.0501
     10 C          15.3143   39.9535   -6.7462 C.3     1  UNL1       -0.0076
     11 N          15.2616   41.3535   -7.2246 N.4     1  UNL1        0.2321
     12 C          16.5637   41.8839   -7.6976 C.3     1  UNL1       -0.0049
     13 C          16.4320   43.2476   -8.4349 C.3     1  UNL1        0.1133
     14 C          17.1970   44.4337   -7.7823 C.3     1  UNL1        0.0583
     15 C          17.3150   45.6679   -8.7225 C.3     1  UNL1       -0.0065
     16 C          18.2854   46.7371   -8.2331 C.ar    1  UNL1       -0.0421
     17 C          17.9912   47.4647   -7.0623 C.ar    1  UNL1       -0.0583
     18 C          18.8979   48.4231   -6.5765 C.ar    1  UNL1       -0.0580
     19 C          20.1073   48.6488   -7.2565 C.ar    1  UNL1       -0.0199
     20 C          20.4305   47.9189   -8.4179 C.ar    1  UNL1        0.1208
     21 C          19.4992   46.9741   -8.9169 C.ar    1  UNL1       -0.0167
     22 O          21.6555   48.1872   -8.9858 O.3     1  UNL1       -0.4920
     23 C          22.2145   47.2772   -9.9294 C.3     1  UNL1        0.0897
     24 C          23.7397   47.3334   -9.7544 C.3     1  UNL1       -0.0156
     25 C          24.2055   46.6290   -8.4676 C.3     1  UNL1       -0.0156
     26 C          24.5312   45.1384   -8.6773 C.3     1  UNL1        0.0897
     27 O          24.4853   44.4182   -7.4490 O.3     1  UNL1       -0.4919
     28 C          23.2654   44.0119   -6.9443 C.ar    1  UNL1        0.1215
     29 C          23.2495   43.5404   -5.6163 C.ar    1  UNL1       -0.0145
     30 C          22.0513   43.1099   -5.0108 C.ar    1  UNL1       -0.0178
     31 C          20.8513   43.1241   -5.7482 C.ar    1  UNL1       -0.0440
     32 C          20.8428   43.5939   -7.0779 C.ar    1  UNL1        0.0405
     33 C          22.0483   44.0274   -7.6683 C.ar    1  UNL1       -0.0078
     34 C          19.5770   43.6205   -7.8785 C.2     1  UNL1        0.2445
     35 O          19.5778   43.3450   -9.0775 O.2     1  UNL1       -0.2702
     36 N          18.4979   44.0593   -7.2111 N.am    1  UNL1       -0.3055
     37 C          22.0639   42.5994   -3.5825 C.3     1  UNL1        0.0725
     38 O          22.2387   41.1905   -3.5174 O.3     1  UNL1       -0.3784
     39 C          21.1376   40.4846   -4.0593 C.3     1  UNL1        0.0369
     40 O          15.0580   43.6020   -8.4585 O.3     1  UNL1       -0.3847
     41 H          16.7696   43.1512   -9.4677 H       1  UNL1        0.0666
     42 H          16.6210   44.7537   -6.9128 H       1  UNL1        0.0529
     43 H          19.8159   37.8977   -6.5555 H       1  UNL1        0.0235
     44 H          20.0769   39.5248   -7.1852 H       1  UNL1        0.0235
     45 H          21.3128   38.2906   -7.3975 H       1  UNL1        0.0235
     46 H          19.8490   36.9795   -8.8553 H       1  UNL1        0.0343
     47 H          19.7577   38.4178  -10.8472 H       1  UNL1        0.0235
     48 H          21.2636   38.6670   -9.9734 H       1  UNL1        0.0235
     49 H          19.9717   39.8603   -9.8588 H       1  UNL1        0.0235
     50 H          17.8157   36.8202  -10.3753 H       1  UNL1        0.0620
     51 H          15.3504   36.9520  -10.3577 H       1  UNL1        0.0618
     52 H          14.1812   38.3678   -8.6856 H       1  UNL1        0.0622
     53 H          17.9983   39.5194   -7.0247 H       1  UNL1        0.0625
     54 H          14.3061   39.5746   -6.5775 H       1  UNL1        0.0866
     55 H          15.8369   39.9016   -5.7928 H       1  UNL1        0.0866
     56 H          14.5730   41.4304   -7.9587 H       1  UNL1        0.2018
     57 H          17.2325   41.9754   -6.8400 H       1  UNL1        0.0840
     58 H          17.0233   41.1220   -8.3269 H       1  UNL1        0.0840
     59 H          17.6324   45.3390   -9.7141 H       1  UNL1        0.0332
     60 H          16.3356   46.1242   -8.8648 H       1  UNL1        0.0332
     61 H          17.0750   47.2774   -6.5258 H       1  UNL1        0.0620
     62 H          18.6774   48.9764   -5.6755 H       1  UNL1        0.0619
     63 H          20.8081   49.3745   -6.8731 H       1  UNL1        0.0654
     64 H          19.7093   46.4084   -9.8106 H       1  UNL1        0.0657
     65 H          21.8785   46.2530   -9.7875 H       1  UNL1        0.0696
     66 H          21.9323   47.5671  -10.9406 H       1  UNL1        0.0696
     67 H          24.2338   46.8884  -10.6190 H       1  UNL1        0.0299
     68 H          24.0499   48.3791   -9.7343 H       1  UNL1        0.0299
     69 H          25.0964   47.1209   -8.0773 H       1  UNL1        0.0299
     70 H          23.4473   46.7454   -7.6918 H       1  UNL1        0.0299
     71 H          23.9043   44.6916   -9.4450 H       1  UNL1        0.0696
     72 H          25.5431   45.0535   -9.0711 H       1  UNL1        0.0696
     73 H          24.1721   43.5204   -5.0545 H       1  UNL1        0.0657
     74 H          19.9398   42.7705   -5.2875 H       1  UNL1        0.0628
     75 H          22.0077   44.3596   -8.6908 H       1  UNL1        0.0662
     76 H          18.6424   44.2914   -6.2390 H       1  UNL1        0.1494
     77 H          22.8735   43.1020   -3.0485 H       1  UNL1        0.0610
     78 H          21.1286   42.8765   -3.0934 H       1  UNL1        0.0610
     79 H          21.3236   39.4137   -3.9952 H       1  UNL1        0.0524
     80 H          20.9831   40.7385   -5.1093 H       1  UNL1        0.0524
     81 H          20.2206   40.7009   -3.5082 H       1  UNL1        0.0524
     82 H          14.6644   43.4282   -7.6047 H       1  UNL1        0.2101
     83 H          14.9547   41.9252   -6.4490 H       1  UNL1        0.2018
@<TRIPOS>BOND
     1     1     2    1
     2     1    43    1
     3     1    44    1
     4     1    45    1
     5     2     3    1
     6     2     4    1
     7     2    46    1
     8     3    47    1
     9     3    48    1
    10     3    49    1
    11     4     9   ar
    12     4     5   ar
    13     5     6   ar
    14     5    50    1
    15     6     7   ar
    16     6    51    1
    17     7     8   ar
    18     7    52    1
    19     8     9   ar
    20     8    10    1
    21     9    53    1
    22    10    11    1
    23    10    54    1
    24    10    55    1
    25    11    12    1
    26    11    56    1
    27    11    83    1
    28    12    13    1
    29    12    57    1
    30    12    58    1
    31    13    41    1
    32    13    14    1
    33    13    40    1
    34    14    42    1
    35    14    36    1
    36    14    15    1
    37    15    16    1
    38    15    59    1
    39    15    60    1
    40    16    21   ar
    41    16    17   ar
    42    17    18   ar
    43    17    61    1
    44    18    19   ar
    45    18    62    1
    46    19    20   ar
    47    19    63    1
    48    20    21   ar
    49    20    22    1
    50    21    64    1
    51    22    23    1
    52    23    24    1
    53    23    65    1
    54    23    66    1
    55    24    25    1
    56    24    67    1
    57    24    68    1
    58    25    26    1
    59    25    69    1
    60    25    70    1
    61    26    27    1
    62    26    71    1
    63    26    72    1
    64    27    28    1
    65    28    33   ar
    66    28    29   ar
    67    29    30   ar
    68    29    73    1
    69    30    31   ar
    70    30    37    1
    71    31    32   ar
    72    31    74    1
    73    32    33   ar
    74    32    34    1
    75    33    75    1
    76    34    35    2
    77    34    36   am
    78    36    76    1
    79    37    38    1
    80    37    77    1
    81    37    78    1
    82    38    39    1
    83    39    79    1
    84    39    80    1
    85    39    81    1
    86    40    82    1
