@<TRIPOS>MOLECULE
BACE_2.smi:1
 96 98 0 0 0
SMALL
GASTEIGER
****
Structure written by MMmdl.
@<TRIPOS>ATOM
      1 C          19.6636   39.2560   -7.9177 C.ar    1  UNL1       -0.0192
      2 C          19.8443   39.5011   -6.5426 C.ar    1  UNL1       -0.0548
      3 C          20.8544   40.3816   -6.1113 C.ar    1  UNL1       -0.0441
      4 C          21.0504   40.6470   -4.6255 C.3     1  UNL1       -0.0215
      5 C          22.3548   40.0267   -4.0941 C.3     1  UNL1       -0.0586
      6 C          20.9480   42.1449   -4.2869 C.3     1  UNL1       -0.0586
      7 C          21.6866   41.0127   -7.0554 C.ar    1  UNL1       -0.0463
      8 C          21.5090   40.7677   -8.4328 C.ar    1  UNL1        0.0420
      9 C          20.4837   39.8915   -8.8710 C.ar    1  UNL1        0.1298
     10 C          22.4229   41.4429   -9.4393 C.3     1  UNL1        0.0105
     11 C          22.3096   40.7957  -10.8220 C.3     1  UNL1        0.0341
     12 C          20.8386   40.5160  -11.1468 C.3     1  UNL1        0.1105
     13 O          20.2725   39.6093  -10.2025 O.3     1  UNL1       -0.4855
     14 C          20.0326   41.8118  -11.1581 C.3     1  UNL1       -0.0250
     15 C          20.7160   39.9076  -12.5409 C.3     1  UNL1       -0.0250
     16 N          23.8163   41.4032   -8.9694 N.4     1  UNL1        0.2345
     17 C          24.4983   42.7063   -8.7734 C.3     1  UNL1       -0.0047
     18 C          23.7323   43.6670   -7.8302 C.3     1  UNL1        0.1130
     19 O          23.2803   42.9409   -6.7016 O.3     1  UNL1       -0.3847
     20 C          24.5890   44.8834   -7.3637 C.3     1  UNL1        0.0543
     21 N          23.7517   45.8655   -6.6628 N.am    1  UNL1       -0.3083
     22 C          23.8671   47.1930   -6.6737 C.2     1  UNL1        0.2336
     23 O          24.7766   47.7791   -7.2373 O.2     1  UNL1       -0.2738
     24 C          22.7499   47.9671   -5.9383 C.3     1  UNL1        0.0991
     25 C          21.7984   48.6375   -6.9253 C.3     1  UNL1       -0.0379
     26 C          25.8234   44.5062   -6.4921 C.3     1  UNL1       -0.0293
     27 C          27.1145   45.2576   -6.8793 C.3     1  UNL1       -0.0421
     28 C          27.4755   44.8875   -8.3151 C.3     1  UNL1       -0.0624
     29 C          28.3281   44.9454   -5.9771 C.3     1  UNL1       -0.0504
     30 C          28.2380   45.4784   -4.5301 C.3     1  UNL1       -0.0528
     31 C          28.0964   47.0099   -4.4405 C.3     1  UNL1       -0.0530
     32 C          28.1719   47.5507   -2.9995 C.3     1  UNL1       -0.0531
     33 C          28.0380   49.0875   -2.9063 C.3     1  UNL1       -0.0530
     34 C          26.6530   49.6474   -3.2964 C.3     1  UNL1       -0.0526
     35 C          25.5504   49.3748   -2.2515 C.3     1  UNL1       -0.0448
     36 C          24.1222   49.6704   -2.7693 C.3     1  UNL1        0.0242
     37 C          23.5610   48.5794   -3.6886 C.2     1  UNL1        0.2159
     38 O          23.3710   47.4605   -3.2410 O.2     1  UNL1       -0.2756
     39 N          23.2929   48.9299   -4.9556 N.am    1  UNL1       -0.2932
     40 C          23.5843   50.2904   -5.3605 C.3     1  UNL1        0.0039
     41 H          22.1385   42.4933   -9.5000 H       1  UNL1        0.0906
     42 H          22.8563   44.0363   -8.3653 H       1  UNL1        0.0666
     43 H          24.9619   45.3688   -8.2656 H       1  UNL1        0.0526
     44 H          22.1460   47.2322   -5.4060 H       1  UNL1        0.0594
     45 H          26.9368   46.3327   -6.9023 H       1  UNL1        0.0299
     46 H          18.8876   38.5784   -8.2419 H       1  UNL1        0.0654
     47 H          19.2080   39.0128   -5.8195 H       1  UNL1        0.0622
     48 H          20.2350   40.1539   -4.0946 H       1  UNL1        0.0343
     49 H          22.3851   38.9534   -4.2853 H       1  UNL1        0.0235
     50 H          22.4439   40.1663   -3.0163 H       1  UNL1        0.0235
     51 H          23.2373   40.4716   -4.5546 H       1  UNL1        0.0235
     52 H          19.9922   42.5563   -4.6133 H       1  UNL1        0.0235
     53 H          21.7395   42.7269   -4.7596 H       1  UNL1        0.0235
     54 H          21.0207   42.3088   -3.2112 H       1  UNL1        0.0235
     55 H          22.4638   41.6827   -6.7187 H       1  UNL1        0.0626
     56 H          22.7649   41.4336  -11.5796 H       1  UNL1        0.0362
     57 H          22.8586   39.8542  -10.8342 H       1  UNL1        0.0362
     58 H          20.4222   42.5131  -11.8970 H       1  UNL1        0.0268
     59 H          20.0379   42.3204  -10.1945 H       1  UNL1        0.0268
     60 H          18.9883   41.6223  -11.4090 H       1  UNL1        0.0268
     61 H          21.1401   40.5630  -13.3026 H       1  UNL1        0.0268
     62 H          19.6734   39.7278  -12.8059 H       1  UNL1        0.0268
     63 H          21.2335   38.9497  -12.6061 H       1  UNL1        0.0268
     64 H          23.8024   40.9413   -8.0714 H       1  UNL1        0.2021
     65 H          25.5374   42.5671   -8.4716 H       1  UNL1        0.0840
     66 H          24.5358   43.1517   -9.7678 H       1  UNL1        0.0840
     67 H          22.7791   43.5233   -6.1515 H       1  UNL1        0.2101
     68 H          22.9619   45.4935   -6.1551 H       1  UNL1        0.1491
     69 H          21.3823   47.9145   -7.6282 H       1  UNL1        0.0252
     70 H          22.2944   49.4146   -7.5078 H       1  UNL1        0.0252
     71 H          20.9572   49.1019   -6.4096 H       1  UNL1        0.0252
     72 H          25.5931   44.6475   -5.4362 H       1  UNL1        0.0286
     73 H          26.0105   43.4379   -6.6004 H       1  UNL1        0.0286
     74 H          28.3938   45.3766   -8.6388 H       1  UNL1        0.0232
     75 H          26.7013   45.1892   -9.0195 H       1  UNL1        0.0232
     76 H          27.6219   43.8126   -8.4268 H       1  UNL1        0.0232
     77 H          28.4624   43.8643   -5.9386 H       1  UNL1        0.0268
     78 H          29.2337   45.3301   -6.4462 H       1  UNL1        0.0268
     79 H          29.1069   45.1552   -3.9567 H       1  UNL1        0.0265
     80 H          27.3794   45.0122   -4.0468 H       1  UNL1        0.0265
     81 H          28.8709   47.4838   -5.0435 H       1  UNL1        0.0265
     82 H          27.1435   47.2973   -4.8849 H       1  UNL1        0.0265
     83 H          29.1296   47.2609   -2.5672 H       1  UNL1        0.0265
     84 H          27.4158   47.0665   -2.3814 H       1  UNL1        0.0265
     85 H          28.2819   49.4109   -1.8944 H       1  UNL1        0.0265
     86 H          28.7964   49.5429   -3.5430 H       1  UNL1        0.0265
     87 H          26.3586   49.2628   -4.2729 H       1  UNL1        0.0265
     88 H          26.7355   50.7256   -3.4340 H       1  UNL1        0.0265
     89 H          25.6026   48.3485   -1.8881 H       1  UNL1        0.0270
     90 H          25.7472   49.9940   -1.3763 H       1  UNL1        0.0270
     91 H          24.0869   50.6460   -3.2541 H       1  UNL1        0.0358
     92 H          23.4359   49.7451   -1.9258 H       1  UNL1        0.0358
     93 H          23.2192   50.5359   -6.3559 H       1  UNL1        0.0429
     94 H          24.6580   50.4814   -5.3559 H       1  UNL1        0.0429
     95 H          23.0962   51.0088   -4.7006 H       1  UNL1        0.0429
     96 H          24.3642   40.8379   -9.6021 H       1  UNL1        0.2021
@<TRIPOS>BOND
     1     1     9   ar
     2     1     2   ar
     3     1    46    1
     4     2     3   ar
     5     2    47    1
     6     3     4    1
     7     3     7   ar
     8     4     5    1
     9     4     6    1
    10     4    48    1
    11     5    49    1
    12     5    50    1
    13     5    51    1
    14     6    52    1
    15     6    53    1
    16     6    54    1
    17     7     8   ar
    18     7    55    1
    19     8     9   ar
    20     8    10    1
    21     9    13    1
    22    10    41    1
    23    10    11    1
    24    10    16    1
    25    11    12    1
    26    11    56    1
    27    11    57    1
    28    12    13    1
    29    12    14    1
    30    12    15    1
    31    14    58    1
    32    14    59    1
    33    14    60    1
    34    15    61    1
    35    15    62    1
    36    15    63    1
    37    16    17    1
    38    16    64    1
    39    16    96    1
    40    17    18    1
    41    17    65    1
    42    17    66    1
    43    18    42    1
    44    18    19    1
    45    18    20    1
    46    19    67    1
    47    20    43    1
    48    20    21    1
    49    20    26    1
    50    21    22   am
    51    21    68    1
    52    22    23    2
    53    22    24    1
    54    24    44    1
    55    24    39    1
    56    24    25    1
    57    25    69    1
    58    25    70    1
    59    25    71    1
    60    26    27    1
    61    26    72    1
    62    26    73    1
    63    27    45    1
    64    27    28    1
    65    27    29    1
    66    28    74    1
    67    28    75    1
    68    28    76    1
    69    29    30    1
    70    29    77    1
    71    29    78    1
    72    30    31    1
    73    30    79    1
    74    30    80    1
    75    31    32    1
    76    31    81    1
    77    31    82    1
    78    32    33    1
    79    32    83    1
    80    32    84    1
    81    33    34    1
    82    33    85    1
    83    33    86    1
    84    34    35    1
    85    34    87    1
    86    34    88    1
    87    35    36    1
    88    35    89    1
    89    35    90    1
    90    36    37    1
    91    36    91    1
    92    36    92    1
    93    37    38    2
    94    37    39   am
    95    39    40    1
    96    40    93    1
    97    40    94    1
    98    40    95    1
