@<TRIPOS>MOLECULE
BACE_3.smi:1
 86 87 0 0 0
SMALL
GASTEIGER
****
Structure written by MMmdl.
@<TRIPOS>ATOM
      1 C          25.8786   43.9564  -10.8352 C.ar    1  UNL1       -0.0535
      2 C          26.8785   44.9238  -11.0494 C.ar    1  UNL1       -0.0611
      3 C          28.1735   44.5282  -11.4364 C.ar    1  UNL1       -0.0583
      4 C          28.4808   43.1605  -11.6133 C.ar    1  UNL1       -0.0444
      5 C          29.8893   42.7447  -12.0339 C.3     1  UNL1       -0.0215
      6 C          30.8235   43.9561  -12.2030 C.3     1  UNL1       -0.0586
      7 C          30.4868   41.6876  -11.0883 C.3     1  UNL1       -0.0586
      8 C          27.4703   42.1947  -11.3961 C.ar    1  UNL1       -0.0501
      9 C          26.1709   42.5873  -11.0073 C.ar    1  UNL1       -0.0027
     10 C          25.0941   41.5423  -10.7757 C.3     1  UNL1       -0.0075
     11 N          24.8602   41.3376   -9.3315 N.4     1  UNL1        0.2341
     12 C          23.5651   41.8634   -8.8408 C.3     1  UNL1        0.0236
     13 C          22.4102   40.8368   -8.9863 C.3     1  UNL1        0.2249
     14 O          22.8421   39.6064   -8.4311 O.3     1  UNL1       -0.3594
     15 O          22.1374   40.7405  -10.3742 O.3     1  UNL1       -0.3594
     16 C          21.1223   41.2738   -8.2943 C.3     1  UNL1        0.0822
     17 N          20.4357   42.2621   -9.1304 N.am    1  UNL1       -0.3056
     18 C          19.4844   43.1143   -8.7260 C.2     1  UNL1        0.2337
     19 O          19.1177   43.1846   -7.5645 O.2     1  UNL1       -0.2738
     20 C          18.8968   44.0469   -9.8079 C.3     1  UNL1        0.0991
     21 C          19.4310   45.4515   -9.5422 C.3     1  UNL1       -0.0379
     22 C          20.2429   40.0367   -8.0108 C.3     1  UNL1       -0.0267
     23 C          19.8758   39.2085   -9.2621 C.3     1  UNL1       -0.0420
     24 C          19.0951   40.0662  -10.2538 C.3     1  UNL1       -0.0624
     25 C          19.0936   37.9157   -8.9445 C.3     1  UNL1       -0.0504
     26 C          17.6368   38.1232   -8.4765 C.3     1  UNL1       -0.0528
     27 C          16.6846   38.5882   -9.5971 C.3     1  UNL1       -0.0530
     28 C          15.2047   38.6891   -9.1680 C.3     1  UNL1       -0.0531
     29 C          14.8872   39.7579   -8.0963 C.3     1  UNL1       -0.0530
     30 C          15.3295   41.1966   -8.4369 C.3     1  UNL1       -0.0526
     31 C          14.6747   41.7813   -9.7097 C.3     1  UNL1       -0.0448
     32 C          15.1646   43.2046  -10.0762 C.3     1  UNL1        0.0242
     33 C          16.6473   43.2677  -10.4593 C.2     1  UNL1        0.2159
     34 O          17.0608   42.5887  -11.3847 O.2     1  UNL1       -0.2756
     35 N          17.4218   44.0724   -9.7176 N.am    1  UNL1       -0.2932
     36 C          16.7867   44.8092   -8.6436 C.3     1  UNL1        0.0039
     37 H          21.4342   41.7281   -7.3538 H       1  UNL1        0.0553
     38 H          19.2549   43.7758  -10.8010 H       1  UNL1        0.0594
     39 H          20.7962   38.9332   -9.7771 H       1  UNL1        0.0299
     40 H          24.8883   44.2709  -10.5393 H       1  UNL1        0.0622
     41 H          26.6520   45.9715  -10.9169 H       1  UNL1        0.0618
     42 H          28.9274   45.2853  -11.5961 H       1  UNL1        0.0620
     43 H          29.8125   42.2741  -13.0149 H       1  UNL1        0.0343
     44 H          30.4173   44.6671  -12.9233 H       1  UNL1        0.0235
     45 H          31.8027   43.6469  -12.5702 H       1  UNL1        0.0235
     46 H          30.9801   44.4869  -11.2637 H       1  UNL1        0.0235
     47 H          29.8445   40.8083  -11.0271 H       1  UNL1        0.0235
     48 H          30.6216   42.0720  -10.0770 H       1  UNL1        0.0235
     49 H          31.4620   41.3521  -11.4425 H       1  UNL1        0.0235
     50 H          27.6888   41.1450  -11.5279 H       1  UNL1        0.0625
     51 H          25.3922   40.6007  -11.2391 H       1  UNL1        0.0866
     52 H          24.1685   41.8565  -11.2602 H       1  UNL1        0.0866
     53 H          25.6038   41.7912   -8.8203 H       1  UNL1        0.2019
     54 H          23.3266   42.7744   -9.3923 H       1  UNL1        0.0868
     55 H          23.7028   42.1478   -7.7977 H       1  UNL1        0.0868
     56 H          23.5116   39.2434   -8.9905 H       1  UNL1        0.2130
     57 H          22.9399   40.5240  -10.8237 H       1  UNL1        0.2130
     58 H          20.6909   42.2898  -10.1073 H       1  UNL1        0.1492
     59 H          20.5170   45.4858   -9.6389 H       1  UNL1        0.0252
     60 H          19.1809   45.8045   -8.5413 H       1  UNL1        0.0252
     61 H          19.0235   46.1697  -10.2545 H       1  UNL1        0.0252
     62 H          20.7768   39.3968   -7.3083 H       1  UNL1        0.0287
     63 H          19.3402   40.3507   -7.4867 H       1  UNL1        0.0287
     64 H          18.8437   39.5124  -11.1578 H       1  UNL1        0.0232
     65 H          19.6669   40.9358  -10.5755 H       1  UNL1        0.0232
     66 H          18.1609   40.4275   -9.8223 H       1  UNL1        0.0232
     67 H          19.0927   37.2734   -9.8251 H       1  UNL1        0.0268
     68 H          19.6358   37.3534   -8.1843 H       1  UNL1        0.0268
     69 H          17.6084   38.8219   -7.6404 H       1  UNL1        0.0265
     70 H          17.2667   37.1781   -8.0790 H       1  UNL1        0.0265
     71 H          17.0158   39.5435  -10.0043 H       1  UNL1        0.0265
     72 H          16.7511   37.8841  -10.4265 H       1  UNL1        0.0265
     73 H          14.8718   37.7166   -8.8053 H       1  UNL1        0.0265
     74 H          14.5967   38.8799  -10.0524 H       1  UNL1        0.0265
     75 H          13.8149   39.7522   -7.9009 H       1  UNL1        0.0265
     76 H          15.3495   39.4645   -7.1537 H       1  UNL1        0.0265
     77 H          16.4158   41.2216   -8.5231 H       1  UNL1        0.0265
     78 H          15.0959   41.8435   -7.5912 H       1  UNL1        0.0265
     79 H          14.8410   41.1191  -10.5594 H       1  UNL1        0.0270
     80 H          13.5939   41.8049   -9.5704 H       1  UNL1        0.0270
     81 H          14.9468   43.8914   -9.2583 H       1  UNL1        0.0358
     82 H          14.5989   43.5823  -10.9280 H       1  UNL1        0.0358
     83 H          17.4240   45.5748   -8.2063 H       1  UNL1        0.0429
     84 H          16.4786   44.1427   -7.8371 H       1  UNL1        0.0429
     85 H          15.9136   45.3555   -9.0026 H       1  UNL1        0.0429
     86 H          24.8956   40.3465   -9.1410 H       1  UNL1        0.2019
@<TRIPOS>BOND
     1     1     9   ar
     2     1     2   ar
     3     1    40    1
     4     2     3   ar
     5     2    41    1
     6     3     4   ar
     7     3    42    1
     8     4     5    1
     9     4     8   ar
    10     5     6    1
    11     5     7    1
    12     5    43    1
    13     6    44    1
    14     6    45    1
    15     6    46    1
    16     7    47    1
    17     7    48    1
    18     7    49    1
    19     8     9   ar
    20     8    50    1
    21     9    10    1
    22    10    11    1
    23    10    51    1
    24    10    52    1
    25    11    12    1
    26    11    53    1
    27    11    86    1
    28    12    13    1
    29    12    54    1
    30    12    55    1
    31    13    14    1
    32    13    15    1
    33    13    16    1
    34    14    56    1
    35    15    57    1
    36    16    37    1
    37    16    17    1
    38    16    22    1
    39    17    18   am
    40    17    58    1
    41    18    19    2
    42    18    20    1
    43    20    38    1
    44    20    35    1
    45    20    21    1
    46    21    59    1
    47    21    60    1
    48    21    61    1
    49    22    23    1
    50    22    62    1
    51    22    63    1
    52    23    39    1
    53    23    24    1
    54    23    25    1
    55    24    64    1
    56    24    65    1
    57    24    66    1
    58    25    26    1
    59    25    67    1
    60    25    68    1
    61    26    27    1
    62    26    69    1
    63    26    70    1
    64    27    28    1
    65    27    71    1
    66    27    72    1
    67    28    29    1
    68    28    73    1
    69    28    74    1
    70    29    30    1
    71    29    75    1
    72    29    76    1
    73    30    31    1
    74    30    77    1
    75    30    78    1
    76    31    32    1
    77    31    79    1
    78    31    80    1
    79    32    33    1
    80    32    81    1
    81    32    82    1
    82    33    34    2
    83    33    35   am
    84    35    36    1
    85    36    83    1
    86    36    84    1
    87    36    85    1
