@<TRIPOS>MOLECULE
BACE_12.smi:1
 79 82 0 0 0
SMALL
GASTEIGER
****
Structure written by MMmdl.
@<TRIPOS>ATOM
      1 C          29.3967   41.3534  -13.4771 C.3     1  UNL1       -0.0586
      2 C          29.5999   42.3091  -12.2977 C.3     1  UNL1       -0.0215
      3 C          30.4659   41.6464  -11.2194 C.3     1  UNL1       -0.0586
      4 C          28.2916   42.8528  -11.7262 C.ar    1  UNL1       -0.0444
      5 C          28.0339   44.2404  -11.7784 C.ar    1  UNL1       -0.0583
      6 C          26.8804   44.7731  -11.1770 C.ar    1  UNL1       -0.0611
      7 C          25.9716   43.9266  -10.5171 C.ar    1  UNL1       -0.0535
      8 C          26.1880   42.5321  -10.4868 C.ar    1  UNL1       -0.0027
      9 C          27.3511   42.0053  -11.0964 C.ar    1  UNL1       -0.0501
     10 C          25.2245   41.6219   -9.7270 C.3     1  UNL1       -0.0076
     11 N          23.9659   41.3029  -10.4404 N.4     1  UNL1        0.2321
     12 C          23.1494   42.4639  -10.8700 C.3     1  UNL1       -0.0049
     13 C          21.7091   42.1241  -11.3242 C.3     1  UNL1        0.1133
     14 C          20.8188   41.5103  -10.2108 C.3     1  UNL1        0.0583
     15 C          20.8982   39.9632  -10.1090 C.3     1  UNL1       -0.0066
     16 C          19.9207   39.3765   -9.1104 C.ar    1  UNL1       -0.0453
     17 C          20.1045   39.6155   -7.7333 C.ar    1  UNL1       -0.0585
     18 C          19.1703   39.1224   -6.8050 C.ar    1  UNL1       -0.0612
     19 C          18.0558   38.3920   -7.2500 C.ar    1  UNL1       -0.0586
     20 C          17.8758   38.1273   -8.6235 C.ar    1  UNL1       -0.0471
     21 C          18.8164   38.6166   -9.5531 C.ar    1  UNL1       -0.0553
     22 C          16.6645   37.3365   -9.0899 C.3     1  UNL1       -0.0276
     23 C          15.3613   38.1532   -9.0433 C.3     1  UNL1       -0.0476
     24 C          15.2917   39.3076  -10.0557 C.3     1  UNL1       -0.0371
     25 C          14.4591   40.4812   -9.5098 C.3     1  UNL1        0.0104
     26 N          14.2788   41.5648  -10.4670 N.pl3   1  UNL1       -0.3289
     27 C          15.2523   42.5565  -10.6256 C.ar    1  UNL1        0.1232
     28 C          16.5880   42.3895  -10.2065 C.ar    1  UNL1       -0.0095
     29 C          17.5286   43.3932  -10.5028 C.ar    1  UNL1        0.0450
     30 C          17.0778   44.5703  -11.1342 C.ar    1  UNL1        0.0122
     31 C          15.7090   44.6697  -11.4851 C.ar    1  UNL1        0.2168
     32 N          14.8280   43.6744  -11.2489 N.ar    1  UNL1       -0.1981
     33 O          15.1395   45.7558  -12.1141 O.3     1  UNL1       -0.4796
     34 C          15.9824   46.8567  -12.4170 C.3     1  UNL1        0.0804
     35 C          18.9759   43.2031  -10.1672 C.2     1  UNL1        0.2447
     36 O          19.6871   44.1493   -9.8282 O.2     1  UNL1       -0.2702
     37 N          19.4336   41.9551  -10.3599 N.am    1  UNL1       -0.3055
     38 O          21.6600   41.3291  -12.4957 O.3     1  UNL1       -0.3847
     39 H          21.2949   43.0838  -11.6316 H       1  UNL1        0.0666
     40 H          21.1492   41.9155   -9.2512 H       1  UNL1        0.0529
     41 H          28.8599   41.8342  -14.2922 H       1  UNL1        0.0235
     42 H          28.8594   40.4535  -13.1819 H       1  UNL1        0.0235
     43 H          30.3539   41.0288  -13.8844 H       1  UNL1        0.0235
     44 H          30.1687   43.1600  -12.6755 H       1  UNL1        0.0343
     45 H          30.6450   42.3168  -10.3772 H       1  UNL1        0.0235
     46 H          31.4337   41.3690  -11.6398 H       1  UNL1        0.0235
     47 H          30.0009   40.7365  -10.8401 H       1  UNL1        0.0235
     48 H          28.7394   44.9055  -12.2549 H       1  UNL1        0.0620
     49 H          26.7035   45.8392  -11.2064 H       1  UNL1        0.0618
     50 H          25.1092   44.3575  -10.0289 H       1  UNL1        0.0622
     51 H          27.5488   40.9500  -11.0493 H       1  UNL1        0.0625
     52 H          25.7239   40.6771   -9.5061 H       1  UNL1        0.0866
     53 H          24.9805   42.0806   -8.7685 H       1  UNL1        0.0866
     54 H          24.1966   40.7836  -11.2828 H       1  UNL1        0.2018
     55 H          23.0889   43.1749  -10.0439 H       1  UNL1        0.0840
     56 H          23.6656   42.9769  -11.6825 H       1  UNL1        0.0840
     57 H          20.6977   39.5025  -11.0770 H       1  UNL1        0.0332
     58 H          21.9010   39.6411   -9.8295 H       1  UNL1        0.0332
     59 H          20.9457   40.1959   -7.3823 H       1  UNL1        0.0620
     60 H          19.2927   39.3259   -5.7500 H       1  UNL1        0.0618
     61 H          17.3281   38.0471   -6.5291 H       1  UNL1        0.0620
     62 H          18.6728   38.4270  -10.6072 H       1  UNL1        0.0623
     63 H          16.8337   36.9508  -10.0930 H       1  UNL1        0.0313
     64 H          16.5628   36.4661   -8.4419 H       1  UNL1        0.0313
     65 H          14.5123   37.5012   -9.2404 H       1  UNL1        0.0269
     66 H          15.2220   38.5244   -8.0263 H       1  UNL1        0.0269
     67 H          16.2944   39.6304  -10.3185 H       1  UNL1        0.0280
     68 H          14.8601   38.9510  -10.9884 H       1  UNL1        0.0280
     69 H          13.4684   40.1136   -9.2441 H       1  UNL1        0.0461
     70 H          14.8966   40.8683   -8.5884 H       1  UNL1        0.0461
     71 H          13.3216   41.8366  -10.6287 H       1  UNL1        0.1475
     72 H          16.9060   41.5096   -9.6719 H       1  UNL1        0.0659
     73 H          17.7828   45.3584  -11.3471 H       1  UNL1        0.0678
     74 H          15.3961   47.6348  -12.9062 H       1  UNL1        0.0660
     75 H          16.7836   46.5706  -13.0983 H       1  UNL1        0.0660
     76 H          16.4123   47.2887  -11.5114 H       1  UNL1        0.0660
     77 H          18.7626   41.2553  -10.6410 H       1  UNL1        0.1494
     78 H          22.5409   41.2042  -12.8419 H       1  UNL1        0.2101
     79 H          23.4141   40.7036   -9.8440 H       1  UNL1        0.2018
@<TRIPOS>BOND
     1     1     2    1
     2     1    41    1
     3     1    42    1
     4     1    43    1
     5     2     3    1
     6     2     4    1
     7     2    44    1
     8     3    45    1
     9     3    46    1
    10     3    47    1
    11     4     9   ar
    12     4     5   ar
    13     5     6   ar
    14     5    48    1
    15     6     7   ar
    16     6    49    1
    17     7     8   ar
    18     7    50    1
    19     8     9   ar
    20     8    10    1
    21     9    51    1
    22    10    11    1
    23    10    52    1
    24    10    53    1
    25    11    12    1
    26    11    54    1
    27    11    79    1
    28    12    13    1
    29    12    55    1
    30    12    56    1
    31    13    39    1
    32    13    14    1
    33    13    38    1
    34    14    40    1
    35    14    37    1
    36    14    15    1
    37    15    16    1
    38    15    57    1
    39    15    58    1
    40    16    21   ar
    41    16    17   ar
    42    17    18   ar
    43    17    59    1
    44    18    19   ar
    45    18    60    1
    46    19    20   ar
    47    19    61    1
    48    20    21   ar
    49    20    22    1
    50    21    62    1
    51    22    23    1
    52    22    63    1
    53    22    64    1
    54    23    24    1
    55    23    65    1
    56    23    66    1
    57    24    25    1
    58    24    67    1
    59    24    68    1
    60    25    26    1
    61    25    69    1
    62    25    70    1
    63    26    27    1
    64    26    71    1
    65    27    32   ar
    66    27    28   ar
    67    28    29   ar
    68    28    72    1
    69    29    30   ar
    70    29    35    1
    71    30    31   ar
    72    30    73    1
    73    31    32   ar
    74    31    33    1
    75    33    34    1
    76    34    74    1
    77    34    75    1
    78    34    76    1
    79    35    36    2
    80    35    37   am
    81    37    77    1
    82    38    78    1
