@<TRIPOS>MOLECULE
BACE_6.smi:1
 83 85 0 0 0
SMALL
GASTEIGER
****
Structure written by MMmdl.
@<TRIPOS>ATOM
      1 C          16.8684   52.0162   -9.9282 C.3     1  UNL1       -0.0493
      2 C          17.9580   51.0915  -10.4943 C.3     1  UNL1        0.0121
      3 N          17.7433   49.6882  -10.1072 N.am    1  UNL1       -0.2978
      4 C          16.9163   48.9362  -11.0698 C.3     1  UNL1        0.0150
      5 C          17.6212   47.7975  -11.8325 C.3     1  UNL1       -0.0371
      6 C          16.7540   47.2226  -12.9714 C.3     1  UNL1       -0.0516
      7 C          15.4235   46.5538  -12.5534 C.3     1  UNL1       -0.0528
      8 C          15.5565   45.1062  -12.0378 C.3     1  UNL1       -0.0504
      9 C          14.2415   44.4741  -11.4944 C.3     1  UNL1       -0.0421
     10 C          14.4476   43.0150  -11.0000 C.3     1  UNL1       -0.0293
     11 C          14.7400   42.7977   -9.4880 C.3     1  UNL1        0.0545
     12 N          15.8457   43.6626   -9.0646 N.am    1  UNL1       -0.3058
     13 C          15.7438   44.8494   -8.4396 C.2     1  UNL1        0.2444
     14 O          14.6856   45.3418   -8.0400 O.2     1  UNL1       -0.2702
     15 C          17.0240   45.6245   -8.3624 C.ar    1  UNL1        0.0374
     16 C          18.2537   44.9892   -8.0816 C.ar    1  UNL1       -0.0496
     17 C          19.4470   45.7354   -8.0431 C.ar    1  UNL1       -0.0603
     18 C          19.4223   47.1160   -8.3122 C.ar    1  UNL1       -0.0496
     19 C          18.2039   47.7663   -8.6093 C.ar    1  UNL1        0.0376
     20 C          17.0052   47.0181   -8.5789 C.ar    1  UNL1       -0.0375
     21 C          18.2161   49.2403   -8.9099 C.2     1  UNL1        0.2466
     22 O          18.7425   49.9895   -8.0822 O.2     1  UNL1       -0.2700
     23 C          15.0962   41.3060   -9.2089 C.3     1  UNL1        0.1130
     24 C          15.4311   40.9521   -7.7357 C.3     1  UNL1       -0.0050
     25 N          16.6987   40.1946   -7.6149 N.4     1  UNL1        0.2321
     26 C          17.8962   41.0062   -7.9200 C.3     1  UNL1       -0.0076
     27 C          19.2034   40.2960   -7.6409 C.ar    1  UNL1       -0.0027
     28 C          19.6087   39.1905   -8.4157 C.ar    1  UNL1       -0.0535
     29 C          20.8606   38.5903   -8.1754 C.ar    1  UNL1       -0.0611
     30 C          21.7037   39.0888   -7.1625 C.ar    1  UNL1       -0.0583
     31 C          21.3122   40.2011   -6.3886 C.ar    1  UNL1       -0.0444
     32 C          20.0603   40.7971   -6.6401 C.ar    1  UNL1       -0.0501
     33 C          22.2364   40.7722   -5.3187 C.3     1  UNL1       -0.0215
     34 C          21.5879   40.7575   -3.9250 C.3     1  UNL1       -0.0586
     35 C          22.7245   42.1814   -5.6913 C.3     1  UNL1       -0.0586
     36 O          14.0614   40.4465   -9.6400 O.3     1  UNL1       -0.3847
     37 C          13.0997   44.5194  -12.5290 C.3     1  UNL1       -0.0624
     38 H          13.9026   45.0664  -10.6483 H       1  UNL1        0.0299
     39 H          13.8457   43.0500   -8.9151 H       1  UNL1        0.0526
     40 H          15.9377   41.0520   -9.8548 H       1  UNL1        0.0666
     41 H          17.0595   53.0520  -10.2081 H       1  UNL1        0.0245
     42 H          16.8323   51.9685   -8.8405 H       1  UNL1        0.0245
     43 H          15.8816   51.7524  -10.3081 H       1  UNL1        0.0245
     44 H          17.9954   51.1868  -11.5805 H       1  UNL1        0.0462
     45 H          18.9390   51.4343  -10.1569 H       1  UNL1        0.0462
     46 H          16.0601   48.5485  -10.5398 H       1  UNL1        0.0464
     47 H          16.4851   49.6202  -11.8011 H       1  UNL1        0.0464
     48 H          18.5444   48.1855  -12.2645 H       1  UNL1        0.0280
     49 H          17.9210   46.9934  -11.1635 H       1  UNL1        0.0280
     50 H          16.5250   48.0362  -13.6616 H       1  UNL1        0.0266
     51 H          17.3494   46.5168  -13.5511 H       1  UNL1        0.0266
     52 H          14.9012   47.1601  -11.8160 H       1  UNL1        0.0265
     53 H          14.7797   46.5500  -13.4321 H       1  UNL1        0.0265
     54 H          15.9552   44.4854  -12.8399 H       1  UNL1        0.0268
     55 H          16.3191   45.0900  -11.2634 H       1  UNL1        0.0268
     56 H          13.5501   42.4375  -11.2304 H       1  UNL1        0.0286
     57 H          15.2333   42.5465  -11.5928 H       1  UNL1        0.0286
     58 H          16.7659   43.4050   -9.3845 H       1  UNL1        0.1494
     59 H          18.3005   43.9319   -7.8868 H       1  UNL1        0.0625
     60 H          20.3844   45.2444   -7.8235 H       1  UNL1        0.0618
     61 H          20.3466   47.6761   -8.2964 H       1  UNL1        0.0625
     62 H          16.0599   47.5032   -8.7509 H       1  UNL1        0.0633
     63 H          15.4992   41.8449   -7.1168 H       1  UNL1        0.0840
     64 H          14.6324   40.3602   -7.2820 H       1  UNL1        0.0840
     65 H          16.7769   39.8993   -6.6489 H       1  UNL1        0.2018
     66 H          17.9072   41.3313   -8.9590 H       1  UNL1        0.0866
     67 H          17.8495   41.9038   -7.3033 H       1  UNL1        0.0866
     68 H          18.9743   38.8068   -9.2015 H       1  UNL1        0.0622
     69 H          21.1785   37.7495   -8.7743 H       1  UNL1        0.0618
     70 H          22.6613   38.6228   -6.9920 H       1  UNL1        0.0620
     71 H          19.7611   41.6598   -6.0614 H       1  UNL1        0.0625
     72 H          23.1181   40.1354   -5.2666 H       1  UNL1        0.0343
     73 H          21.2875   39.7500   -3.6430 H       1  UNL1        0.0235
     74 H          20.7029   41.3924   -3.8796 H       1  UNL1        0.0235
     75 H          22.2866   41.1119   -3.1669 H       1  UNL1        0.0235
     76 H          23.2369   42.1761   -6.6548 H       1  UNL1        0.0235
     77 H          23.4274   42.5614   -4.9475 H       1  UNL1        0.0235
     78 H          21.8984   42.8897   -5.7550 H       1  UNL1        0.0235
     79 H          13.2987   40.5505   -9.0740 H       1  UNL1        0.2101
     80 H          13.3400   43.9475  -13.4243 H       1  UNL1        0.0232
     81 H          12.8605   45.5370  -12.8340 H       1  UNL1        0.0232
     82 H          12.1831   44.0989  -12.1131 H       1  UNL1        0.0232
     83 H          16.6638   39.3703   -8.1977 H       1  UNL1        0.2018
@<TRIPOS>BOND
     1     1     2    1
     2     1    41    1
     3     1    42    1
     4     1    43    1
     5     2     3    1
     6     2    44    1
     7     2    45    1
     8     3    21   am
     9     3     4    1
    10     4     5    1
    11     4    46    1
    12     4    47    1
    13     5     6    1
    14     5    48    1
    15     5    49    1
    16     6     7    1
    17     6    50    1
    18     6    51    1
    19     7     8    1
    20     7    52    1
    21     7    53    1
    22     8     9    1
    23     8    54    1
    24     8    55    1
    25     9    38    1
    26     9    10    1
    27     9    37    1
    28    10    11    1
    29    10    56    1
    30    10    57    1
    31    11    39    1
    32    11    12    1
    33    11    23    1
    34    12    13   am
    35    12    58    1
    36    13    14    2
    37    13    15    1
    38    15    20   ar
    39    15    16   ar
    40    16    17   ar
    41    16    59    1
    42    17    18   ar
    43    17    60    1
    44    18    19   ar
    45    18    61    1
    46    19    20   ar
    47    19    21    1
    48    20    62    1
    49    21    22    2
    50    23    40    1
    51    23    24    1
    52    23    36    1
    53    24    25    1
    54    24    63    1
    55    24    64    1
    56    25    26    1
    57    25    65    1
    58    25    83    1
    59    26    27    1
    60    26    66    1
    61    26    67    1
    62    27    32   ar
    63    27    28   ar
    64    28    29   ar
    65    28    68    1
    66    29    30   ar
    67    29    69    1
    68    30    31   ar
    69    30    70    1
    70    31    32   ar
    71    31    33    1
    72    32    71    1
    73    33    34    1
    74    33    35    1
    75    33    72    1
    76    34    73    1
    77    34    74    1
    78    34    75    1
    79    35    76    1
    80    35    77    1
    81    35    78    1
    82    36    79    1
    83    37    80    1
    84    37    81    1
    85    37    82    1
