@<TRIPOS>MOLECULE
BACE_5.smi:1
 79 80 0 0 0
SMALL
GASTEIGER
****
Structure written by MMmdl.
@<TRIPOS>ATOM
      1 C          30.7850   42.9185  -10.1365 C.3     1  UNL1       -0.0649
      2 C          30.8929   42.3182  -11.5471 C.3     1  UNL1       -0.0504
      3 C          29.6976   41.4265  -11.9314 C.3     1  UNL1       -0.0089
      4 C          28.3929   42.1786  -11.9145 C.ar    1  UNL1        0.0631
      5 C          27.3036   42.0624  -11.0016 C.ar    1  UNL1       -0.0168
      6 C          26.4021   43.0009  -11.4247 C.ar    1  UNL1        0.0501
      7 N          26.9629   43.5922  -12.5302 N.ar    1  UNL1       -0.2801
      8 N          28.1730   43.0985  -12.8403 N.ar    1  UNL1       -0.1786
      9 C          25.0729   43.4464  -10.9031 C.3     1  UNL1        0.0380
     10 N          24.0725   42.3849  -10.8400 N.3     1  UNL1       -0.3081
     11 C          24.1242   41.5894   -9.6144 C.3     1  UNL1        0.0240
     12 C          22.9098   40.6491   -9.4660 C.3     1  UNL1        0.0859
     13 C          21.5912   41.3713   -9.0708 C.3     1  UNL1        0.0505
     14 C          20.4118   40.4255   -8.7087 C.3     1  UNL1       -0.0295
     15 C          20.0152   39.3150   -9.7195 C.3     1  UNL1       -0.0421
     16 C          18.8097   38.4770   -9.2127 C.3     1  UNL1       -0.0504
     17 C          17.4717   39.2072   -8.9309 C.3     1  UNL1       -0.0528
     18 C          16.6923   39.6373  -10.1855 C.3     1  UNL1       -0.0530
     19 C          15.2755   40.1747   -9.9163 C.3     1  UNL1       -0.0510
     20 C          15.2089   41.4850   -9.1089 C.3     1  UNL1       -0.0294
     21 C          15.9913   42.6671   -9.7073 C.3     1  UNL1        0.0483
     22 O          15.5371   42.9710  -11.0288 O.3     1  UNL1       -0.3706
     23 C          16.0968   44.1523  -11.6084 C.3     1  UNL1        0.1238
     24 C          17.5998   43.9611  -11.9081 C.2     1  UNL1        0.2417
     25 O          17.8927   43.2061  -12.8403 O.2     1  UNL1       -0.2731
     26 N          18.5322   44.5740  -11.1304 N.am    1  UNL1       -0.2914
     27 C          19.9578   44.1592  -11.1808 C.3     1  UNL1        0.0991
     28 C          20.3619   43.3698   -9.9204 C.2     1  UNL1        0.2336
     29 O          19.9417   43.6940   -8.8093 O.2     1  UNL1       -0.2738
     30 N          21.1773   42.3211  -10.1056 N.am    1  UNL1       -0.3084
     31 C          20.8892   45.3722  -11.3737 C.3     1  UNL1       -0.0379
     32 C          18.1429   45.6007  -10.1483 C.3     1  UNL1        0.0040
     33 C          19.8498   39.7851  -11.1773 C.3     1  UNL1       -0.0624
     34 O          23.2596   39.7496   -8.4398 O.3     1  UNL1       -0.3887
     35 H          26.5418   44.3334  -13.0713 H       1  UNL1        0.1886
     36 H          22.7772   40.0707  -10.3817 H       1  UNL1        0.0624
     37 H          21.8108   41.9544   -8.1729 H       1  UNL1        0.0524
     38 H          20.8512   38.6149   -9.7458 H       1  UNL1        0.0299
     39 H          20.1313   43.5071  -12.0379 H       1  UNL1        0.0594
     40 H          31.6816   43.4829   -9.8823 H       1  UNL1        0.0230
     41 H          30.6490   42.1516   -9.3775 H       1  UNL1        0.0230
     42 H          29.9418   43.6058  -10.0636 H       1  UNL1        0.0230
     43 H          31.8140   41.7436  -11.6378 H       1  UNL1        0.0266
     44 H          30.9907   43.1285  -12.2705 H       1  UNL1        0.0266
     45 H          29.6588   40.5748  -11.2541 H       1  UNL1        0.0329
     46 H          29.8640   41.0077  -12.9250 H       1  UNL1        0.0329
     47 H          27.2130   41.3983  -10.1537 H       1  UNL1        0.0654
     48 H          24.6950   44.2343  -11.5558 H       1  UNL1        0.0489
     49 H          25.1959   43.9146   -9.9268 H       1  UNL1        0.0489
     50 H          24.1877   41.7647  -11.6449 H       1  UNL1        0.1224
     51 H          24.1773   42.2411   -8.7406 H       1  UNL1        0.0450
     52 H          25.0394   40.9967   -9.6136 H       1  UNL1        0.0450
     53 H          20.6439   39.9433   -7.7605 H       1  UNL1        0.0286
     54 H          19.5451   41.0447   -8.4915 H       1  UNL1        0.0286
     55 H          18.6255   37.6527   -9.9024 H       1  UNL1        0.0268
     56 H          19.1173   37.9958   -8.2810 H       1  UNL1        0.0268
     57 H          17.6220   40.0546   -8.2658 H       1  UNL1        0.0265
     58 H          16.8394   38.5223   -8.3645 H       1  UNL1        0.0265
     59 H          17.2386   40.3880  -10.7481 H       1  UNL1        0.0265
     60 H          16.6060   38.7741  -10.8401 H       1  UNL1        0.0265
     61 H          14.6898   39.4127   -9.3992 H       1  UNL1        0.0266
     62 H          14.7732   40.3320  -10.8722 H       1  UNL1        0.0266
     63 H          14.1622   41.7737   -8.9984 H       1  UNL1        0.0287
     64 H          15.5637   41.3030   -8.0924 H       1  UNL1        0.0287
     65 H          17.0582   42.4433   -9.6965 H       1  UNL1        0.0560
     66 H          15.8476   43.5352   -9.0639 H       1  UNL1        0.0560
     67 H          15.8625   45.0189  -10.9926 H       1  UNL1        0.0657
     68 H          15.5923   44.3302  -12.5578 H       1  UNL1        0.0657
     69 H          21.5520   42.1628  -11.0303 H       1  UNL1        0.1491
     70 H          21.8981   45.0439  -11.6257 H       1  UNL1        0.0252
     71 H          20.9754   45.9886  -10.4811 H       1  UNL1        0.0252
     72 H          20.5445   46.0130  -12.1840 H       1  UNL1        0.0252
     73 H          18.9873   46.0540   -9.6357 H       1  UNL1        0.0429
     74 H          17.5127   45.1726   -9.3685 H       1  UNL1        0.0429
     75 H          17.5986   46.4138  -10.6320 H       1  UNL1        0.0429
     76 H          19.4082   39.0046  -11.7943 H       1  UNL1        0.0232
     77 H          20.8133   40.0314  -11.6213 H       1  UNL1        0.0232
     78 H          19.2304   40.6756  -11.2624 H       1  UNL1        0.0232
     79 H          23.9032   39.1433   -8.7966 H       1  UNL1        0.2099
@<TRIPOS>BOND
     1     1     2    1
     2     1    40    1
     3     1    41    1
     4     1    42    1
     5     2     3    1
     6     2    43    1
     7     2    44    1
     8     3    45    1
     9     3    46    1
    10     3     4    1
    11     4     8   ar
    12     4     5   ar
    13     5     6   ar
    14     5    47    1
    15     6     7   ar
    16     6     9    1
    17     7     8   ar
    18     7    35    1
    19     9    10    1
    20     9    48    1
    21     9    49    1
    22    10    11    1
    23    10    50    1
    24    11    12    1
    25    11    51    1
    26    11    52    1
    27    12    36    1
    28    12    13    1
    29    12    34    1
    30    13    37    1
    31    13    30    1
    32    13    14    1
    33    14    15    1
    34    14    53    1
    35    14    54    1
    36    15    38    1
    37    15    16    1
    38    15    33    1
    39    16    17    1
    40    16    55    1
    41    16    56    1
    42    17    18    1
    43    17    57    1
    44    17    58    1
    45    18    19    1
    46    18    59    1
    47    18    60    1
    48    19    20    1
    49    19    61    1
    50    19    62    1
    51    20    21    1
    52    20    63    1
    53    20    64    1
    54    21    22    1
    55    21    65    1
    56    21    66    1
    57    22    23    1
    58    23    24    1
    59    23    67    1
    60    23    68    1
    61    24    25    2
    62    24    26   am
    63    26    27    1
    64    26    32    1
    65    27    39    1
    66    27    28    1
    67    27    31    1
    68    28    29    2
    69    28    30   am
    70    30    69    1
    71    31    70    1
    72    31    71    1
    73    31    72    1
    74    32    73    1
    75    32    74    1
    76    32    75    1
    77    33    76    1
    78    33    77    1
    79    33    78    1
    80    34    79    1
