@<TRIPOS>MOLECULE
BACE_11.smi:1
 80 82 0 0 0
SMALL
GASTEIGER
****
Structure written by MMmdl.
@<TRIPOS>ATOM
      1 C          28.5864   44.2349  -13.3159 C.3     1  UNL1       -0.0379
      2 C          27.9566   44.1204  -11.9158 C.3     1  UNL1        0.0991
      3 C          26.4095   44.0569  -11.8846 C.2     1  UNL1        0.2336
      4 O          25.7634   44.7267  -12.6840 O.2     1  UNL1       -0.2738
      5 N          25.8359   43.3104  -10.9238 N.am    1  UNL1       -0.3081
      6 C          24.4375   43.3219  -10.4823 C.3     1  UNL1        0.0542
      7 C          24.1236   44.5774   -9.6365 C.3     1  UNL1       -0.0066
      8 C          24.9864   44.6500   -8.3911 C.ar    1  UNL1       -0.0421
      9 C          24.4956   44.1444   -7.1738 C.ar    1  UNL1       -0.0583
     10 C          25.3180   44.1469   -6.0369 C.ar    1  UNL1       -0.0580
     11 C          26.6370   44.6357   -6.1036 C.ar    1  UNL1       -0.0199
     12 C          27.1429   45.1457   -7.3247 C.ar    1  UNL1        0.1208
     13 C          26.2976   45.1716   -8.4511 C.ar    1  UNL1       -0.0167
     14 O          28.4275   45.6102   -7.5031 O.3     1  UNL1       -0.4920
     15 C          29.3460   45.4853   -6.4315 C.3     1  UNL1        0.0896
     16 C          30.7533   45.8660   -6.9161 C.3     1  UNL1       -0.0186
     17 C          31.4517   44.7875   -7.7708 C.3     1  UNL1       -0.0495
     18 C          31.5160   45.0687   -9.2897 C.3     1  UNL1       -0.0447
     19 C          30.2147   44.8819  -10.1057 C.3     1  UNL1        0.0242
     20 C          29.7346   43.4225  -10.2649 C.2     1  UNL1        0.2159
     21 O          30.3257   42.5387   -9.6406 O.2     1  UNL1       -0.2756
     22 N          28.6972   43.1290  -11.0936 N.am    1  UNL1       -0.2932
     23 C          28.3488   41.7167  -11.3004 C.3     1  UNL1        0.0039
     24 C          23.4063   42.9860  -11.5989 C.3     1  UNL1        0.0862
     25 C          22.3082   42.0067  -11.1134 C.3     1  UNL1        0.0240
     26 N          21.6600   41.3307  -12.2404 N.3     1  UNL1       -0.3095
     27 C          20.9472   40.1103  -11.8649 C.3     1  UNL1        0.0213
     28 C          19.7185   40.3490  -11.0131 C.ar    1  UNL1       -0.0333
     29 C          18.6430   41.1200  -11.5033 C.ar    1  UNL1       -0.0573
     30 C          17.5012   41.3231  -10.7077 C.ar    1  UNL1       -0.0612
     31 C          17.4347   40.7727   -9.4117 C.ar    1  UNL1       -0.0583
     32 C          18.5062   40.0030   -8.9064 C.ar    1  UNL1       -0.0445
     33 C          19.6403   39.7852   -9.7210 C.ar    1  UNL1       -0.0539
     34 C          18.4292   39.4241   -7.4951 C.3     1  UNL1       -0.0215
     35 C          19.6997   39.6998   -6.6699 C.3     1  UNL1       -0.0586
     36 C          18.1011   37.9230   -7.5183 C.3     1  UNL1       -0.0586
     37 O          22.7595   44.1633  -12.0393 O.3     1  UNL1       -0.3887
     38 H          28.0988   45.1035  -11.4708 H       1  UNL1        0.0594
     39 H          24.4190   42.4792   -9.7916 H       1  UNL1        0.0527
     40 H          23.9343   42.5514  -12.4437 H       1  UNL1        0.0624
     41 H          28.0455   44.9369  -13.9515 H       1  UNL1        0.0252
     42 H          28.5949   43.2700  -13.8185 H       1  UNL1        0.0252
     43 H          29.6196   44.5790  -13.2624 H       1  UNL1        0.0252
     44 H          26.4671   42.7836  -10.3374 H       1  UNL1        0.1491
     45 H          24.2702   45.4859  -10.2215 H       1  UNL1        0.0332
     46 H          23.0775   44.5721   -9.3308 H       1  UNL1        0.0332
     47 H          23.4970   43.7373   -7.1090 H       1  UNL1        0.0620
     48 H          24.9425   43.7502   -5.1075 H       1  UNL1        0.0619
     49 H          27.2353   44.6057   -5.2073 H       1  UNL1        0.0654
     50 H          26.6786   45.5638   -9.3813 H       1  UNL1        0.0657
     51 H          29.0420   46.1547   -5.6255 H       1  UNL1        0.0696
     52 H          29.3586   44.4691   -6.0345 H       1  UNL1        0.0696
     53 H          30.7334   46.8282   -7.4310 H       1  UNL1        0.0298
     54 H          31.3630   46.0292   -6.0260 H       1  UNL1        0.0298
     55 H          32.4840   44.7270   -7.4255 H       1  UNL1        0.0266
     56 H          31.0383   43.8018   -7.5611 H       1  UNL1        0.0266
     57 H          31.8848   46.0828   -9.4422 H       1  UNL1        0.0270
     58 H          32.2825   44.4238   -9.7226 H       1  UNL1        0.0270
     59 H          29.4186   45.4902   -9.6858 H       1  UNL1        0.0358
     60 H          30.4000   45.2797  -11.1026 H       1  UNL1        0.0358
     61 H          27.8003   41.3364  -10.4395 H       1  UNL1        0.0429
     62 H          29.2360   41.0946  -11.4437 H       1  UNL1        0.0429
     63 H          27.7271   41.5672  -12.1826 H       1  UNL1        0.0429
     64 H          22.7784   41.2490  -10.4859 H       1  UNL1        0.0450
     65 H          21.5751   42.5133  -10.4826 H       1  UNL1        0.0450
     66 H          22.3997   41.0712  -12.8960 H       1  UNL1        0.1223
     67 H          20.6225   39.5900  -12.7668 H       1  UNL1        0.0473
     68 H          21.6183   39.4206  -11.3497 H       1  UNL1        0.0473
     69 H          18.6959   41.5475  -12.4935 H       1  UNL1        0.0621
     70 H          16.6726   41.9046  -11.0873 H       1  UNL1        0.0618
     71 H          16.5533   40.9375   -8.8068 H       1  UNL1        0.0620
     72 H          20.4577   39.1839   -9.3551 H       1  UNL1        0.0623
     73 H          17.6058   39.9285   -6.9826 H       1  UNL1        0.0343
     74 H          19.9161   40.7697   -6.6294 H       1  UNL1        0.0235
     75 H          20.5736   39.1916   -7.0833 H       1  UNL1        0.0235
     76 H          19.5718   39.3498   -5.6447 H       1  UNL1        0.0235
     77 H          17.1294   37.7393   -7.9817 H       1  UNL1        0.0235
     78 H          18.0603   37.5234   -6.5037 H       1  UNL1        0.0235
     79 H          18.8512   37.3520   -8.0670 H       1  UNL1        0.0235
     80 H          22.2581   44.5152  -11.3195 H       1  UNL1        0.2099
@<TRIPOS>BOND
     1     1     2    1
     2     1    41    1
     3     1    42    1
     4     1    43    1
     5     2    38    1
     6     2    22    1
     7     2     3    1
     8     3     4    2
     9     3     5   am
    10     5     6    1
    11     5    44    1
    12     6    39    1
    13     6     7    1
    14     6    24    1
    15     7     8    1
    16     7    45    1
    17     7    46    1
    18     8    13   ar
    19     8     9   ar
    20     9    10   ar
    21     9    47    1
    22    10    11   ar
    23    10    48    1
    24    11    12   ar
    25    11    49    1
    26    12    13   ar
    27    12    14    1
    28    13    50    1
    29    14    15    1
    30    15    16    1
    31    15    51    1
    32    15    52    1
    33    16    17    1
    34    16    53    1
    35    16    54    1
    36    17    18    1
    37    17    55    1
    38    17    56    1
    39    18    19    1
    40    18    57    1
    41    18    58    1
    42    19    20    1
    43    19    59    1
    44    19    60    1
    45    20    21    2
    46    20    22   am
    47    22    23    1
    48    23    61    1
    49    23    62    1
    50    23    63    1
    51    24    40    1
    52    24    25    1
    53    24    37    1
    54    25    26    1
    55    25    64    1
    56    25    65    1
    57    26    27    1
    58    26    66    1
    59    27    28    1
    60    27    67    1
    61    27    68    1
    62    28    33   ar
    63    28    29   ar
    64    29    30   ar
    65    29    69    1
    66    30    31   ar
    67    30    70    1
    68    31    32   ar
    69    31    71    1
    70    32    33   ar
    71    32    34    1
    72    33    72    1
    73    34    35    1
    74    34    36    1
    75    34    73    1
    76    35    74    1
    77    35    75    1
    78    35    76    1
    79    36    77    1
    80    36    78    1
    81    36    79    1
    82    37    80    1
