@<TRIPOS>MOLECULE
BACE_9.smi:1
 88 90 0 0 0
SMALL
GASTEIGER
****
Structure written by MMmdl.
@<TRIPOS>ATOM
      1 C          20.5568   42.5947   -6.1708 C.3     1  UNL1       -0.0624
      2 C          21.9008   43.1096   -6.7175 C.3     1  UNL1       -0.0421
      3 C          22.3169   44.4017   -5.9818 C.3     1  UNL1       -0.0504
      4 C          23.7238   44.9047   -6.3432 C.3     1  UNL1       -0.0528
      5 C          24.1749   46.0920   -5.4821 C.3     1  UNL1       -0.0530
      6 C          25.5829   46.6010   -5.8395 C.3     1  UNL1       -0.0530
      7 C          26.7247   45.6751   -5.3657 C.3     1  UNL1       -0.0516
      8 C          28.0989   46.0017   -5.9864 C.3     1  UNL1       -0.0375
      9 C          28.3963   45.2213   -7.2798 C.3     1  UNL1        0.0091
     10 N          27.4875   45.5938   -8.3532 N.pl3   1  UNL1       -0.3438
     11 C          27.1554   44.6227   -9.3042 C.ar    1  UNL1        0.0282
     12 C          28.1016   43.6980   -9.7972 C.ar    1  UNL1       -0.0355
     13 C          27.7296   42.7582  -10.7802 C.ar    1  UNL1       -0.0195
     14 C          26.4015   42.7263  -11.2552 C.ar    1  UNL1       -0.0442
     15 C          25.4430   43.6239  -10.7418 C.ar    1  UNL1        0.0388
     16 C          25.8322   44.5848   -9.7849 C.ar    1  UNL1       -0.0287
     17 C          24.0340   43.5892  -11.2525 C.2     1  UNL1        0.2444
     18 O          23.8082   43.7648  -12.4461 O.2     1  UNL1       -0.2702
     19 N          23.0310   43.3852  -10.3805 N.am    1  UNL1       -0.3058
     20 C          23.0920   42.8198   -9.0264 C.3     1  UNL1        0.0545
     21 C          21.8344   43.2882   -8.2566 C.3     1  UNL1       -0.0293
     22 C          23.1948   41.2680   -9.0784 C.3     1  UNL1        0.1130
     23 C          22.3427   40.6136  -10.1897 C.3     1  UNL1       -0.0050
     24 N          22.0596   39.1715   -9.9754 N.4     1  UNL1        0.2321
     25 C          20.9778   38.8358   -9.0211 C.3     1  UNL1       -0.0076
     26 C          19.5567   39.1680   -9.4833 C.ar    1  UNL1       -0.0027
     27 C          19.2703   39.7820  -10.7258 C.ar    1  UNL1       -0.0535
     28 C          17.9554   40.1463  -11.0524 C.ar    1  UNL1       -0.0611
     29 C          16.8944   39.8331  -10.1836 C.ar    1  UNL1       -0.0583
     30 C          17.1488   39.1520   -8.9739 C.ar    1  UNL1       -0.0444
     31 C          18.4823   38.8407   -8.6275 C.ar    1  UNL1       -0.0501
     32 C          16.0212   38.7345   -8.0314 C.3     1  UNL1       -0.0215
     33 C          14.6612   38.5459   -8.7226 C.3     1  UNL1       -0.0586
     34 C          15.8998   39.6967   -6.8436 C.3     1  UNL1       -0.0586
     35 O          24.5589   40.9503   -9.2546 O.3     1  UNL1       -0.3847
     36 C          28.7586   41.7771  -11.3115 C.3     1  UNL1        0.0724
     37 O          29.7329   42.3845  -12.1467 O.3     1  UNL1       -0.3784
     38 C          29.2447   42.6931  -13.4421 C.3     1  UNL1        0.0369
     39 H          22.6410   42.3468   -6.4738 H       1  UNL1        0.0299
     40 H          23.9601   43.2113   -8.5004 H       1  UNL1        0.0526
     41 H          22.9072   40.8549   -8.1109 H       1  UNL1        0.0666
     42 H          19.7475   43.2992   -6.3713 H       1  UNL1        0.0232
     43 H          20.5977   42.4425   -5.0924 H       1  UNL1        0.0232
     44 H          20.2837   41.6418   -6.6217 H       1  UNL1        0.0232
     45 H          21.5874   45.1909   -6.1721 H       1  UNL1        0.0268
     46 H          22.2829   44.2183   -4.9074 H       1  UNL1        0.0268
     47 H          24.4293   44.0803   -6.2375 H       1  UNL1        0.0265
     48 H          23.7459   45.2059   -7.3904 H       1  UNL1        0.0265
     49 H          23.4642   46.9082   -5.6129 H       1  UNL1        0.0265
     50 H          24.1346   45.8237   -4.4273 H       1  UNL1        0.0265
     51 H          25.6257   46.7650   -6.9135 H       1  UNL1        0.0265
     52 H          25.7291   47.5845   -5.3887 H       1  UNL1        0.0265
     53 H          26.8024   45.7604   -4.2810 H       1  UNL1        0.0266
     54 H          26.4876   44.6280   -5.5543 H       1  UNL1        0.0266
     55 H          28.2028   47.0745   -6.1477 H       1  UNL1        0.0280
     56 H          28.8704   45.7377   -5.2617 H       1  UNL1        0.0280
     57 H          29.4162   45.4282   -7.6056 H       1  UNL1        0.0461
     58 H          28.3353   44.1501   -7.0824 H       1  UNL1        0.0461
     59 H          26.7480   46.2240   -8.0852 H       1  UNL1        0.1461
     60 H          29.1229   43.7165   -9.4430 H       1  UNL1        0.0639
     61 H          26.1144   42.0062  -12.0073 H       1  UNL1        0.0628
     62 H          25.1080   45.2952   -9.4172 H       1  UNL1        0.0643
     63 H          22.1064   43.4875  -10.7691 H       1  UNL1        0.1494
     64 H          20.9672   42.7550   -8.6510 H       1  UNL1        0.0286
     65 H          21.6332   44.3367   -8.4753 H       1  UNL1        0.0286
     66 H          21.4074   41.1616  -10.2700 H       1  UNL1        0.0840
     67 H          22.8365   40.7269  -11.1565 H       1  UNL1        0.0840
     68 H          21.8033   38.7700  -10.8647 H       1  UNL1        0.2018
     69 H          21.0199   37.7614   -8.8430 H       1  UNL1        0.0866
     70 H          21.1628   39.3129   -8.0577 H       1  UNL1        0.0866
     71 H          20.0372   40.0021  -11.4490 H       1  UNL1        0.0622
     72 H          17.7511   40.6341  -11.9944 H       1  UNL1        0.0618
     73 H          15.8910   40.1015  -10.4753 H       1  UNL1        0.0620
     74 H          18.6744   38.3432   -7.6884 H       1  UNL1        0.0625
     75 H          16.2972   37.7534   -7.6406 H       1  UNL1        0.0343
     76 H          14.7296   37.8388   -9.5496 H       1  UNL1        0.0235
     77 H          14.2533   39.4830   -9.1017 H       1  UNL1        0.0235
     78 H          13.9379   38.1519   -8.0132 H       1  UNL1        0.0235
     79 H          16.8411   39.7483   -6.3009 H       1  UNL1        0.0235
     80 H          15.1378   39.3594   -6.1379 H       1  UNL1        0.0235
     81 H          15.6367   40.7076   -7.1586 H       1  UNL1        0.0235
     82 H          24.6810   40.0115   -9.3422 H       1  UNL1        0.2101
     83 H          29.2864   41.3498  -10.4614 H       1  UNL1        0.0610
     84 H          28.2706   40.9486  -11.8280 H       1  UNL1        0.0610
     85 H          30.0426   43.1280  -14.0413 H       1  UNL1        0.0524
     86 H          28.4316   43.4177  -13.3991 H       1  UNL1        0.0524
     87 H          28.8891   41.7982  -13.9550 H       1  UNL1        0.0524
     88 H          22.9266   38.7337   -9.6730 H       1  UNL1        0.2018
@<TRIPOS>BOND
     1     1     2    1
     2     1    42    1
     3     1    43    1
     4     1    44    1
     5     2    39    1
     6     2    21    1
     7     2     3    1
     8     3     4    1
     9     3    45    1
    10     3    46    1
    11     4     5    1
    12     4    47    1
    13     4    48    1
    14     5     6    1
    15     5    49    1
    16     5    50    1
    17     6     7    1
    18     6    51    1
    19     6    52    1
    20     7     8    1
    21     7    53    1
    22     7    54    1
    23     8     9    1
    24     8    55    1
    25     8    56    1
    26     9    10    1
    27     9    57    1
    28     9    58    1
    29    10    11    1
    30    10    59    1
    31    11    16   ar
    32    11    12   ar
    33    12    13   ar
    34    12    60    1
    35    13    14   ar
    36    13    36    1
    37    14    15   ar
    38    14    61    1
    39    15    16   ar
    40    15    17    1
    41    16    62    1
    42    17    18    2
    43    17    19   am
    44    19    20    1
    45    19    63    1
    46    20    40    1
    47    20    21    1
    48    20    22    1
    49    21    64    1
    50    21    65    1
    51    22    41    1
    52    22    23    1
    53    22    35    1
    54    23    24    1
    55    23    66    1
    56    23    67    1
    57    24    25    1
    58    24    68    1
    59    24    88    1
    60    25    26    1
    61    25    69    1
    62    25    70    1
    63    26    31   ar
    64    26    27   ar
    65    27    28   ar
    66    27    71    1
    67    28    29   ar
    68    28    72    1
    69    29    30   ar
    70    29    73    1
    71    30    31   ar
    72    30    32    1
    73    31    74    1
    74    32    33    1
    75    32    34    1
    76    32    75    1
    77    33    76    1
    78    33    77    1
    79    33    78    1
    80    34    79    1
    81    34    80    1
    82    34    81    1
    83    35    82    1
    84    36    37    1
    85    36    83    1
    86    36    84    1
    87    37    38    1
    88    38    85    1
    89    38    86    1
    90    38    87    1
