@<TRIPOS>MOLECULE
BACE_9.smi:1
 88 90 0 0 0
SMALL
GASTEIGER
****
Structure written by MMmdl.
@<TRIPOS>ATOM
      1 C          20.1082   42.6152   -6.0795 C.3     1  UNL1       -0.0624
      2 C          21.4737   43.0805   -6.6134 C.3     1  UNL1       -0.0421
      3 C          21.9039   44.3948   -5.9250 C.3     1  UNL1       -0.0504
      4 C          23.3480   44.8154   -6.2413 C.3     1  UNL1       -0.0528
      5 C          23.8250   46.0036   -5.3885 C.3     1  UNL1       -0.0530
      6 C          25.1937   46.5513   -5.8253 C.3     1  UNL1       -0.0530
      7 C          26.3830   45.6401   -5.4613 C.3     1  UNL1       -0.0516
      8 C          27.6946   46.0289   -6.1727 C.3     1  UNL1       -0.0375
      9 C          27.9319   45.2802   -7.4946 C.3     1  UNL1        0.0091
     10 N          26.9150   45.5738   -8.4919 N.pl3   1  UNL1       -0.3438
     11 C          26.6209   44.5781   -9.4289 C.ar    1  UNL1        0.0282
     12 C          27.6162   43.7116   -9.9285 C.ar    1  UNL1       -0.0355
     13 C          27.2907   42.7130  -10.8640 C.ar    1  UNL1       -0.0195
     14 C          25.9518   42.5576  -11.2855 C.ar    1  UNL1       -0.0442
     15 C          24.9432   43.4065  -10.7776 C.ar    1  UNL1        0.0388
     16 C          25.2922   44.4336   -9.8727 C.ar    1  UNL1       -0.0287
     17 C          23.5224   43.2503  -11.2385 C.2     1  UNL1        0.2444
     18 O          23.2454   43.3521  -12.4349 O.2     1  UNL1       -0.2702
     19 N          22.5682   43.0045  -10.3242 N.am    1  UNL1       -0.3058
     20 C          22.6892   42.5993   -8.9146 C.3     1  UNL1        0.0545
     21 C          21.4536   43.1727   -8.1631 C.3     1  UNL1       -0.0293
     22 C          22.8640   41.0502   -8.8713 C.3     1  UNL1        0.1130
     23 C          22.1631   40.2477   -9.9987 C.3     1  UNL1       -0.0050
     24 N          22.0755   38.8130   -9.6435 N.4     1  UNL1        0.2321
     25 C          20.9754   38.4141   -8.7438 C.3     1  UNL1       -0.0076
     26 C          19.6702   39.1078   -9.0875 C.ar    1  UNL1       -0.0027
     27 C          19.5244   39.7455  -10.3371 C.ar    1  UNL1       -0.0535
     28 C          18.3065   40.3607  -10.6807 C.ar    1  UNL1       -0.0611
     29 C          17.2354   40.3534   -9.7680 C.ar    1  UNL1       -0.0583
     30 C          17.3735   39.7280   -8.5095 C.ar    1  UNL1       -0.0444
     31 C          18.5938   39.0983   -8.1783 C.ar    1  UNL1       -0.0501
     32 C          16.2177   39.7419   -7.5212 C.3     1  UNL1       -0.0215
     33 C          15.0839   38.8114   -7.9797 C.3     1  UNL1       -0.0586
     34 C          15.7045   41.1654   -7.2558 C.3     1  UNL1       -0.0586
     35 O          24.2427   40.7255   -8.8402 O.3     1  UNL1       -0.3847
     36 C          28.3809   41.7910  -11.3712 C.3     1  UNL1        0.0724
     37 O          29.4427   42.5100  -11.9889 O.3     1  UNL1       -0.3784
     38 C          29.2086   42.7372  -13.3680 C.3     1  UNL1        0.0369
     39 H          22.1878   42.3348   -6.2980 H       1  UNL1        0.0299
     40 H          23.5795   43.0548   -8.4855 H       1  UNL1        0.0526
     41 H          22.4331   40.6892   -7.9367 H       1  UNL1        0.0666
     42 H          19.3191   43.3257   -6.3212 H       1  UNL1        0.0232
     43 H          20.1294   42.4963   -4.9952 H       1  UNL1        0.0232
     44 H          19.8283   41.6474   -6.4992 H       1  UNL1        0.0232
     45 H          21.2179   45.2001   -6.1873 H       1  UNL1        0.0268
     46 H          21.8139   44.2647   -4.8444 H       1  UNL1        0.0268
     47 H          24.0128   43.9669   -6.0881 H       1  UNL1        0.0265
     48 H          23.4182   45.0842   -7.2942 H       1  UNL1        0.0265
     49 H          23.0941   46.8087   -5.4681 H       1  UNL1        0.0265
     50 H          23.8539   45.7274   -4.3335 H       1  UNL1        0.0265
     51 H          25.1639   46.7516   -6.8947 H       1  UNL1        0.0265
     52 H          25.3527   47.5232   -5.3542 H       1  UNL1        0.0265
     53 H          26.5328   45.6974   -4.3831 H       1  UNL1        0.0266
     54 H          26.1594   44.5950   -5.6693 H       1  UNL1        0.0266
     55 H          27.7452   47.1087   -6.3252 H       1  UNL1        0.0280
     56 H          28.5265   45.7869   -5.5098 H       1  UNL1        0.0280
     57 H          28.9055   45.5538   -7.9021 H       1  UNL1        0.0461
     58 H          27.9578   44.2078   -7.3007 H       1  UNL1        0.0461
     59 H          26.1478   46.1521   -8.1814 H       1  UNL1        0.1461
     60 H          28.6419   43.8077   -9.6034 H       1  UNL1        0.0639
     61 H          25.6984   41.7834  -11.9935 H       1  UNL1        0.0628
     62 H          24.5297   45.1054   -9.5018 H       1  UNL1        0.0643
     63 H          21.6351   42.9284  -10.7026 H       1  UNL1        0.1494
     64 H          20.5535   42.6928   -8.5525 H       1  UNL1        0.0286
     65 H          21.3340   44.2205   -8.4386 H       1  UNL1        0.0286
     66 H          21.1585   40.6521  -10.1482 H       1  UNL1        0.0840
     67 H          22.6810   40.3036  -10.9516 H       1  UNL1        0.0840
     68 H          22.0354   38.2676  -10.4885 H       1  UNL1        0.2018
     69 H          20.8409   37.3370   -8.8375 H       1  UNL1        0.0866
     70 H          21.2366   38.5952   -7.7046 H       1  UNL1        0.0866
     71 H          20.3416   39.7583  -11.0406 H       1  UNL1        0.0622
     72 H          18.1888   40.8368  -11.6437 H       1  UNL1        0.0618
     73 H          16.3059   40.8313  -10.0393 H       1  UNL1        0.0620
     74 H          18.7026   38.6108   -7.2206 H       1  UNL1        0.0625
     75 H          16.5937   39.3568   -6.5713 H       1  UNL1        0.0343
     76 H          15.4462   37.7914   -8.1138 H       1  UNL1        0.0235
     77 H          14.6516   39.1393   -8.9267 H       1  UNL1        0.0235
     78 H          14.2819   38.7806   -7.2421 H       1  UNL1        0.0235
     79 H          16.5220   41.8220   -6.9549 H       1  UNL1        0.0235
     80 H          14.9631   41.1672   -6.4561 H       1  UNL1        0.0235
     81 H          15.2348   41.5995   -8.1395 H       1  UNL1        0.0235
     82 H          24.3756   39.8606   -9.2041 H       1  UNL1        0.2101
     83 H          28.7636   41.2225  -10.5206 H       1  UNL1        0.0610
     84 H          27.9586   41.0746  -12.0751 H       1  UNL1        0.0610
     85 H          30.0431   43.2889  -13.8023 H       1  UNL1        0.0524
     86 H          28.3015   43.3229  -13.5246 H       1  UNL1        0.0524
     87 H          29.1140   41.7945  -13.9040 H       1  UNL1        0.0524
     88 H          22.9530   38.5732   -9.1820 H       1  UNL1        0.2018
@<TRIPOS>BOND
     1     1     2    1
     2     1    42    1
     3     1    43    1
     4     1    44    1
     5     2    39    1
     6     2    21    1
     7     2     3    1
     8     3     4    1
     9     3    45    1
    10     3    46    1
    11     4     5    1
    12     4    47    1
    13     4    48    1
    14     5     6    1
    15     5    49    1
    16     5    50    1
    17     6     7    1
    18     6    51    1
    19     6    52    1
    20     7     8    1
    21     7    53    1
    22     7    54    1
    23     8     9    1
    24     8    55    1
    25     8    56    1
    26     9    10    1
    27     9    57    1
    28     9    58    1
    29    10    11    1
    30    10    59    1
    31    11    16   ar
    32    11    12   ar
    33    12    13   ar
    34    12    60    1
    35    13    14   ar
    36    13    36    1
    37    14    15   ar
    38    14    61    1
    39    15    16   ar
    40    15    17    1
    41    16    62    1
    42    17    18    2
    43    17    19   am
    44    19    20    1
    45    19    63    1
    46    20    40    1
    47    20    21    1
    48    20    22    1
    49    21    64    1
    50    21    65    1
    51    22    41    1
    52    22    23    1
    53    22    35    1
    54    23    24    1
    55    23    66    1
    56    23    67    1
    57    24    25    1
    58    24    68    1
    59    24    88    1
    60    25    26    1
    61    25    69    1
    62    25    70    1
    63    26    31   ar
    64    26    27   ar
    65    27    28   ar
    66    27    71    1
    67    28    29   ar
    68    28    72    1
    69    29    30   ar
    70    29    73    1
    71    30    31   ar
    72    30    32    1
    73    31    74    1
    74    32    33    1
    75    32    34    1
    76    32    75    1
    77    33    76    1
    78    33    77    1
    79    33    78    1
    80    34    79    1
    81    34    80    1
    82    34    81    1
    83    35    82    1
    84    36    37    1
    85    36    83    1
    86    36    84    1
    87    37    38    1
    88    38    85    1
    89    38    86    1
    90    38    87    1
