@<TRIPOS>MOLECULE
BACE_13.smi:1
 76 79 0 0 0
SMALL
GASTEIGER
****
Structure written by MMmdl.
@<TRIPOS>ATOM
      1 C          20.3862   49.7491   -6.0467 C.3     1  UNL1        0.0369
      2 O          21.6664   49.2719   -6.4273 O.3     1  UNL1       -0.3784
      3 C          21.6806   48.6081   -7.6863 C.3     1  UNL1        0.0724
      4 C          21.0647   47.2169   -7.6705 C.ar    1  UNL1       -0.0195
      5 C          20.6092   46.6472   -8.8769 C.ar    1  UNL1       -0.0442
      6 C          20.0713   45.3422   -8.9001 C.ar    1  UNL1        0.0388
      7 C          19.9699   44.6178   -7.6900 C.ar    1  UNL1       -0.0287
      8 C          20.4251   45.1776   -6.4697 C.ar    1  UNL1        0.0282
      9 C          20.9816   46.4710   -6.4759 C.ar    1  UNL1       -0.0355
     10 N          20.3482   44.5037   -5.2400 N.pl3   1  UNL1       -0.3438
     11 C          20.1064   43.0685   -5.1786 C.3     1  UNL1        0.0092
     12 C          21.3296   42.2455   -5.6072 C.3     1  UNL1       -0.0344
     13 C          21.0407   40.7355   -5.6166 C.3     1  UNL1       -0.0172
     14 C          22.1981   39.9229   -6.2214 C.3     1  UNL1        0.0896
     15 O          22.4293   40.2874   -7.5798 O.3     1  UNL1       -0.4920
     16 C          21.4864   39.9532   -8.5287 C.ar    1  UNL1        0.1208
     17 C          20.6318   38.8271   -8.4373 C.ar    1  UNL1       -0.0199
     18 C          19.7045   38.5536   -9.4611 C.ar    1  UNL1       -0.0580
     19 C          19.6060   39.4084  -10.5754 C.ar    1  UNL1       -0.0583
     20 C          20.4288   40.5501  -10.6637 C.ar    1  UNL1       -0.0421
     21 C          21.3855   40.7952   -9.6548 C.ar    1  UNL1       -0.0167
     22 C          20.2991   41.4973  -11.8471 C.3     1  UNL1       -0.0066
     23 C          19.3972   42.7410  -11.6191 C.3     1  UNL1        0.0548
     24 N          19.7608   43.4559  -10.3896 N.am    1  UNL1       -0.3057
     25 C          19.5625   44.7711  -10.1938 C.2     1  UNL1        0.2444
     26 O          19.0290   45.4971  -11.0344 O.2     1  UNL1       -0.2702
     27 C          17.8651   42.4403  -11.7485 C.3     1  UNL1        0.0912
     28 C          17.0181   42.4962  -10.4464 C.3     1  UNL1        0.0591
     29 C          15.4969   42.4230  -10.7147 C.3     1  UNL1        0.0660
     30 O          14.7673   42.3779   -9.4903 O.3     1  UNL1       -0.3714
     31 C          15.1210   41.2813   -8.6433 C.3     1  UNL1        0.0944
     32 C          16.6262   41.3606   -8.3301 C.3     1  UNL1        0.0248
     33 N          17.4026   41.3961   -9.5650 N.3     1  UNL1       -0.3065
     34 C          14.6689   39.9205   -9.2340 C.3     1  UNL1        0.0747
     35 O          15.0787   38.7961   -8.4746 O.3     1  UNL1       -0.3804
     36 C          14.6095   38.7837   -7.1385 C.3     1  UNL1        0.0366
     37 O          17.3408   43.3518  -12.7002 O.3     1  UNL1       -0.3883
     38 H          19.6600   43.4076  -12.4400 H       1  UNL1        0.0527
     39 H          17.7299   41.4539  -12.1948 H       1  UNL1        0.0628
     40 H          17.1913   43.4417   -9.9349 H       1  UNL1        0.0509
     41 H          14.5849   41.4411   -7.7086 H       1  UNL1        0.0632
     42 H          20.4614   50.2349   -5.0741 H       1  UNL1        0.0524
     43 H          19.6549   48.9454   -5.9638 H       1  UNL1        0.0524
     44 H          20.0131   50.4839   -6.7600 H       1  UNL1        0.0524
     45 H          22.7214   48.5036   -7.9953 H       1  UNL1        0.0610
     46 H          21.1956   49.2265   -8.4444 H       1  UNL1        0.0610
     47 H          20.6812   47.2150   -9.7938 H       1  UNL1        0.0628
     48 H          19.5299   43.6327   -7.7120 H       1  UNL1        0.0643
     49 H          21.3429   46.9021   -5.5535 H       1  UNL1        0.0639
     50 H          20.7342   44.9316   -4.4029 H       1  UNL1        0.1461
     51 H          19.2595   42.8134   -5.8060 H       1  UNL1        0.0461
     52 H          19.8251   42.8085   -4.1580 H       1  UNL1        0.0461
     53 H          22.1707   42.4549   -4.9445 H       1  UNL1        0.0281
     54 H          21.6416   42.5538   -6.6055 H       1  UNL1        0.0281
     55 H          20.1191   40.5388   -6.1662 H       1  UNL1        0.0298
     56 H          20.8552   40.3974   -4.5964 H       1  UNL1        0.0298
     57 H          22.0438   38.8514   -6.1056 H       1  UNL1        0.0696
     58 H          23.1080   40.1500   -5.6657 H       1  UNL1        0.0696
     59 H          20.6755   38.1514   -7.5979 H       1  UNL1        0.0654
     60 H          19.0614   37.6891   -9.3879 H       1  UNL1        0.0619
     61 H          18.8780   39.1966  -11.3463 H       1  UNL1        0.0620
     62 H          22.0416   41.6505   -9.7289 H       1  UNL1        0.0657
     63 H          19.9595   40.9392  -12.7210 H       1  UNL1        0.0332
     64 H          21.3054   41.8350  -12.1014 H       1  UNL1        0.0332
     65 H          20.2338   42.9306   -9.6687 H       1  UNL1        0.1494
     66 H          15.2477   41.5801  -11.3580 H       1  UNL1        0.0576
     67 H          15.1665   43.3143  -11.2491 H       1  UNL1        0.0576
     68 H          16.9331   40.5151   -7.7138 H       1  UNL1        0.0450
     69 H          16.8283   42.2555   -7.7401 H       1  UNL1        0.0450
     70 H          18.3956   41.4276   -9.3548 H       1  UNL1        0.1224
     71 H          13.5858   39.8993   -9.3553 H       1  UNL1        0.0586
     72 H          15.0892   39.7625  -10.2253 H       1  UNL1        0.0586
     73 H          14.4601   37.7500   -6.8398 H       1  UNL1        0.0524
     74 H          13.6594   39.2996   -7.0213 H       1  UNL1        0.0524
     75 H          15.3323   39.2419   -6.4622 H       1  UNL1        0.0524
     76 H          17.5412   44.2281  -12.3927 H       1  UNL1        0.2099
@<TRIPOS>BOND
     1     1     2    1
     2     1    42    1
     3     1    43    1
     4     1    44    1
     5     2     3    1
     6     3     4    1
     7     3    45    1
     8     3    46    1
     9     4     9   ar
    10     4     5   ar
    11     5     6   ar
    12     5    47    1
    13     6    25    1
    14     6     7   ar
    15     7     8   ar
    16     7    48    1
    17     8     9   ar
    18     8    10    1
    19     9    49    1
    20    10    11    1
    21    10    50    1
    22    11    12    1
    23    11    51    1
    24    11    52    1
    25    12    13    1
    26    12    53    1
    27    12    54    1
    28    13    14    1
    29    13    55    1
    30    13    56    1
    31    14    15    1
    32    14    57    1
    33    14    58    1
    34    15    16    1
    35    16    21   ar
    36    16    17   ar
    37    17    18   ar
    38    17    59    1
    39    18    19   ar
    40    18    60    1
    41    19    20   ar
    42    19    61    1
    43    20    21   ar
    44    20    22    1
    45    21    62    1
    46    22    23    1
    47    22    63    1
    48    22    64    1
    49    23    38    1
    50    23    24    1
    51    23    27    1
    52    24    25   am
    53    24    65    1
    54    25    26    2
    55    27    39    1
    56    27    28    1
    57    27    37    1
    58    28    40    1
    59    28    33    1
    60    28    29    1
    61    29    30    1
    62    29    66    1
    63    29    67    1
    64    30    31    1
    65    31    41    1
    66    31    32    1
    67    31    34    1
    68    32    33    1
    69    32    68    1
    70    32    69    1
    71    33    70    1
    72    34    35    1
    73    34    71    1
    74    34    72    1
    75    35    36    1
    76    36    73    1
    77    36    74    1
    78    36    75    1
    79    37    76    1
