@<TRIPOS>MOLECULE
BACE_5.smi:1
 80 81 0 0 0
SMALL
GASTEIGER
****
Structure written by MMmdl.
@<TRIPOS>ATOM
      1 C          21.4612   42.6826   -2.4253 C.3     1  UNL1       -0.0649
      2 C          22.1544   43.3489   -3.6221 C.3     1  UNL1       -0.0505
      3 C          22.9191   42.3816   -4.5438 C.3     1  UNL1       -0.0112
      4 C          22.0527   41.4113   -5.2853 C.ar    1  UNL1        0.0365
      5 C          21.0835   40.5500   -4.8578 C.ar    1  UNL1       -0.0128
      6 C          20.6125   39.9225   -6.0420 C.ar    1  UNL1        0.1072
      7 N          21.2730   40.3143   -7.1234 N.ar    1  UNL1       -0.1733
      8 N          22.1457   41.2241   -6.6479 N.ar    1  UNL1       -0.2812
      9 C          19.5111   38.9119   -6.1528 C.3     1  UNL1        0.0115
     10 N          18.7180   39.1119   -7.3698 N.4     1  UNL1        0.2333
     11 C          17.6014   38.1568   -7.5047 C.3     1  UNL1       -0.0049
     12 C          17.0228   38.1487   -8.9323 C.3     1  UNL1        0.1129
     13 C          16.4544   39.5350   -9.3705 C.3     1  UNL1        0.0543
     14 C          14.9693   39.5413   -9.7988 C.3     1  UNL1       -0.0293
     15 C          14.3338   40.9101  -10.1694 C.3     1  UNL1       -0.0421
     16 C          14.5958   42.0193   -9.1308 C.3     1  UNL1       -0.0504
     17 C          13.6969   43.2497   -9.3491 C.3     1  UNL1       -0.0528
     18 C          13.8227   44.3308   -8.2671 C.3     1  UNL1       -0.0530
     19 C          15.2047   45.0109   -8.1744 C.3     1  UNL1       -0.0510
     20 C          15.6692   45.7205   -9.4657 C.3     1  UNL1       -0.0294
     21 C          16.9001   45.0680  -10.1087 C.3     1  UNL1        0.0483
     22 O          17.1308   45.6490  -11.3889 O.3     1  UNL1       -0.3706
     23 C          18.3483   45.2663  -12.0368 C.3     1  UNL1        0.1238
     24 C          18.3692   43.7516  -12.3427 C.2     1  UNL1        0.2417
     25 O          17.6243   43.3500  -13.2398 O.2     1  UNL1       -0.2731
     26 N          19.1405   42.9122  -11.6025 N.am    1  UNL1       -0.2914
     27 C          18.9123   41.4457  -11.6397 C.3     1  UNL1        0.0991
     28 C          18.2733   40.9469  -10.3299 C.2     1  UNL1        0.2336
     29 O          18.6584   41.3499   -9.2329 O.2     1  UNL1       -0.2738
     30 N          17.2772   40.0595  -10.4576 N.am    1  UNL1       -0.3083
     31 C          20.2080   40.6705  -11.9562 C.3     1  UNL1       -0.0379
     32 C          20.1799   43.4308  -10.6972 C.3     1  UNL1        0.0040
     33 C          14.6623   41.3745  -11.6018 C.3     1  UNL1       -0.0624
     34 O          16.0618   37.1116   -8.9727 O.3     1  UNL1       -0.3847
     35 H          22.7932   41.7052   -7.2583 H       1  UNL1        0.1885
     36 H          17.8100   37.8378   -9.6228 H       1  UNL1        0.0666
     37 H          16.5157   40.2091   -8.5142 H       1  UNL1        0.0526
     38 H          13.2611   40.7247  -10.1441 H       1  UNL1        0.0299
     39 H          18.2184   41.1874  -12.4401 H       1  UNL1        0.0594
     40 H          21.2977   43.3971   -1.6195 H       1  UNL1        0.0230
     41 H          22.0589   41.8593   -2.0394 H       1  UNL1        0.0230
     42 H          20.4808   42.2938   -2.7011 H       1  UNL1        0.0230
     43 H          22.8598   44.0792   -3.2306 H       1  UNL1        0.0266
     44 H          21.4260   43.9168   -4.2004 H       1  UNL1        0.0266
     45 H          23.6545   41.8294   -3.9574 H       1  UNL1        0.0328
     46 H          23.4957   42.9665   -5.2599 H       1  UNL1        0.0328
     47 H          20.7354   40.3966   -3.8463 H       1  UNL1        0.0656
     48 H          18.8561   38.9576   -5.2793 H       1  UNL1        0.0882
     49 H          19.9393   37.9132   -6.1947 H       1  UNL1        0.0882
     50 H          19.3519   39.0268   -8.1513 H       1  UNL1        0.2018
     51 H          16.8322   38.4098   -6.7739 H       1  UNL1        0.0840
     52 H          17.9657   37.1565   -7.2593 H       1  UNL1        0.0840
     53 H          14.8597   38.8543  -10.6340 H       1  UNL1        0.0286
     54 H          14.3787   39.1191   -8.9842 H       1  UNL1        0.0286
     55 H          14.4394   41.6245   -8.1257 H       1  UNL1        0.0268
     56 H          15.6434   42.3125   -9.1642 H       1  UNL1        0.0268
     57 H          12.6577   42.9252   -9.3808 H       1  UNL1        0.0265
     58 H          13.8954   43.6851  -10.3259 H       1  UNL1        0.0265
     59 H          13.0561   45.0823   -8.4402 H       1  UNL1        0.0265
     60 H          13.5647   43.8859   -7.3076 H       1  UNL1        0.0265
     61 H          15.9511   44.2859   -7.8498 H       1  UNL1        0.0266
     62 H          15.1627   45.7440   -7.3709 H       1  UNL1        0.0266
     63 H          14.8610   45.7499  -10.1959 H       1  UNL1        0.0287
     64 H          15.8992   46.7624   -9.2440 H       1  UNL1        0.0287
     65 H          16.7326   43.9964  -10.2093 H       1  UNL1        0.0560
     66 H          17.7675   45.2109   -9.4622 H       1  UNL1        0.0560
     67 H          19.2003   45.6233  -11.4591 H       1  UNL1        0.0657
     68 H          18.3971   45.8008  -12.9876 H       1  UNL1        0.0657
     69 H          17.0401   39.7515  -11.3889 H       1  UNL1        0.1491
     70 H          19.9846   39.6225  -12.1638 H       1  UNL1        0.0252
     71 H          20.9230   40.6763  -11.1329 H       1  UNL1        0.0252
     72 H          20.7054   41.0727  -12.8387 H       1  UNL1        0.0252
     73 H          20.7588   42.6480  -10.2097 H       1  UNL1        0.0429
     74 H          19.7436   44.0259   -9.8952 H       1  UNL1        0.0429
     75 H          20.8970   44.0471  -11.2423 H       1  UNL1        0.0429
     76 H          13.9230   42.0693  -12.0065 H       1  UNL1        0.0232
     77 H          14.6913   40.5377  -12.2899 H       1  UNL1        0.0232
     78 H          15.6320   41.8676  -11.6400 H       1  UNL1        0.0232
     79 H          15.6725   37.0219   -8.1104 H       1  UNL1        0.2101
     80 H          18.3657   40.0605   -7.3722 H       1  UNL1        0.2018
@<TRIPOS>BOND
     1     1     2    1
     2     1    40    1
     3     1    41    1
     4     1    42    1
     5     2     3    1
     6     2    43    1
     7     2    44    1
     8     3     4    1
     9     3    45    1
    10     3    46    1
    11     4     8   ar
    12     4     5   ar
    13     5     6   ar
    14     5    47    1
    15     6     7   ar
    16     6     9    1
    17     7     8   ar
    18     8    35    1
    19     9    10    1
    20     9    48    1
    21     9    49    1
    22    10    11    1
    23    10    50    1
    24    10    80    1
    25    11    12    1
    26    11    51    1
    27    11    52    1
    28    12    36    1
    29    12    13    1
    30    12    34    1
    31    13    37    1
    32    13    30    1
    33    13    14    1
    34    14    15    1
    35    14    53    1
    36    14    54    1
    37    15    38    1
    38    15    16    1
    39    15    33    1
    40    16    17    1
    41    16    55    1
    42    16    56    1
    43    17    18    1
    44    17    57    1
    45    17    58    1
    46    18    19    1
    47    18    59    1
    48    18    60    1
    49    19    20    1
    50    19    61    1
    51    19    62    1
    52    20    21    1
    53    20    63    1
    54    20    64    1
    55    21    22    1
    56    21    65    1
    57    21    66    1
    58    22    23    1
    59    23    24    1
    60    23    67    1
    61    23    68    1
    62    24    25    2
    63    24    26   am
    64    26    27    1
    65    26    32    1
    66    27    39    1
    67    27    28    1
    68    27    31    1
    69    28    29    2
    70    28    30   am
    71    30    69    1
    72    31    70    1
    73    31    71    1
    74    31    72    1
    75    32    73    1
    76    32    74    1
    77    32    75    1
    78    33    76    1
    79    33    77    1
    80    33    78    1
    81    34    79    1
