@<TRIPOS>MOLECULE
BACE_14.smi:1
 85 89 0 0 0
SMALL
GASTEIGER
****
Structure written by MMmdl.
@<TRIPOS>ATOM
      1 C          20.6664   40.0172  -12.4259 C.3     1  UNL1       -0.0586
      2 C          21.0834   40.6014  -11.0663 C.3     1  UNL1       -0.0215
      3 C          20.8081   42.1107  -10.9947 C.3     1  UNL1       -0.0586
      4 C          20.4298   39.8727   -9.8966 C.ar    1  UNL1       -0.0445
      5 C          21.2349   39.2810   -8.8998 C.ar    1  UNL1       -0.0583
      6 C          20.6389   38.6389   -7.7979 C.ar    1  UNL1       -0.0612
      7 C          19.2365   38.5750   -7.6901 C.ar    1  UNL1       -0.0568
      8 C          18.4178   39.1503   -8.6846 C.ar    1  UNL1       -0.0271
      9 C          19.0228   39.8019   -9.7812 C.ar    1  UNL1       -0.0534
     10 C          16.9242   39.0781   -8.5753 C.3     1  UNL1        0.0447
     11 C          16.1265   38.3342   -9.6419 C.3     1  UNL1       -0.0285
     12 C          16.2631   37.7501   -8.2694 C.3     1  UNL1       -0.0285
     13 N          16.3835   40.2555   -7.8783 N.3     1  UNL1       -0.3042
     14 C          15.1644   40.8912   -8.3921 C.3     1  UNL1        0.0245
     15 C          15.3356   41.4930   -9.8120 C.3     1  UNL1        0.0862
     16 C          15.8323   42.9619   -9.8832 C.3     1  UNL1        0.0545
     17 C          16.3547   43.3000  -11.2985 C.3     1  UNL1       -0.0066
     18 C          16.7247   44.7597  -11.5094 C.ar    1  UNL1       -0.0421
     19 C          15.7249   45.6925  -11.8461 C.ar    1  UNL1       -0.0583
     20 C          16.0630   47.0421  -12.0536 C.ar    1  UNL1       -0.0580
     21 C          17.3984   47.4684  -11.9153 C.ar    1  UNL1       -0.0199
     22 C          18.4151   46.5425  -11.5741 C.ar    1  UNL1        0.1208
     23 C          18.0634   45.1898  -11.3853 C.ar    1  UNL1       -0.0167
     24 O          19.7482   46.8686  -11.4194 O.3     1  UNL1       -0.4920
     25 C          20.1386   48.2378  -11.3137 C.3     1  UNL1        0.0896
     26 C          19.7546   48.8420   -9.9487 C.3     1  UNL1       -0.0172
     27 C          20.3852   48.0808   -8.7725 C.3     1  UNL1       -0.0344
     28 C          19.8407   48.5283   -7.3980 C.3     1  UNL1        0.0092
     29 N          20.1679   47.5881   -6.3280 N.pl3   1  UNL1       -0.3438
     30 C          19.7020   46.2671   -6.4422 C.ar    1  UNL1        0.0285
     31 C          18.4931   45.9582   -7.1012 C.ar    1  UNL1       -0.0287
     32 C          18.1120   44.6217   -7.3288 C.ar    1  UNL1        0.0391
     33 C          18.9289   43.5778   -6.8400 C.ar    1  UNL1       -0.0390
     34 C          20.1136   43.8668   -6.1237 C.ar    1  UNL1        0.0196
     35 C          20.4945   45.2167   -5.9388 C.ar    1  UNL1       -0.0303
     36 C          20.9657   42.7492   -5.6289 C.2     1  UNL1        0.1602
     37 O          20.8599   41.5865   -6.0183 O.2     1  UNL1       -0.2924
     38 C          22.0241   43.0794   -4.5761 C.3     1  UNL1       -0.0014
     39 C          16.8443   44.3517   -8.0827 C.2     1  UNL1        0.2445
     40 O          15.9103   45.1571   -8.0405 O.2     1  UNL1       -0.2702
     41 N          16.8574   43.2721   -8.8828 N.am    1  UNL1       -0.3057
     42 O          14.0611   41.4633  -10.4339 O.3     1  UNL1       -0.3887
     43 H          15.9941   40.8653  -10.4110 H       1  UNL1        0.0624
     44 H          14.9636   43.5953   -9.6911 H       1  UNL1        0.0527
     45 H          21.2054   40.5034  -13.2405 H       1  UNL1        0.0235
     46 H          19.6000   40.1478  -12.6094 H       1  UNL1        0.0235
     47 H          20.8863   38.9510  -12.4779 H       1  UNL1        0.0235
     48 H          22.1636   40.4668  -10.9820 H       1  UNL1        0.0343
     49 H          21.3293   42.6417  -11.7916 H       1  UNL1        0.0235
     50 H          21.1482   42.5268  -10.0454 H       1  UNL1        0.0235
     51 H          19.7433   42.3234  -11.0902 H       1  UNL1        0.0235
     52 H          22.3127   39.3260   -8.9661 H       1  UNL1        0.0620
     53 H          21.2580   38.1973   -7.0306 H       1  UNL1        0.0618
     54 H          18.7835   38.0864   -6.8391 H       1  UNL1        0.0621
     55 H          18.3970   40.2504  -10.5385 H       1  UNL1        0.0624
     56 H          15.1210   38.6442   -9.9156 H       1  UNL1        0.0287
     57 H          16.6916   37.8563  -10.4383 H       1  UNL1        0.0287
     58 H          16.8994   36.8738   -8.1597 H       1  UNL1        0.0287
     59 H          15.3730   37.7531   -7.6406 H       1  UNL1        0.0287
     60 H          17.1101   40.9249   -7.6495 H       1  UNL1        0.1229
     61 H          14.8315   41.6647   -7.6987 H       1  UNL1        0.0450
     62 H          14.3662   40.1482   -8.3919 H       1  UNL1        0.0450
     63 H          17.2176   42.6775  -11.5386 H       1  UNL1        0.0332
     64 H          15.5876   43.0479  -12.0277 H       1  UNL1        0.0332
     65 H          14.6985   45.3707  -11.9470 H       1  UNL1        0.0620
     66 H          15.2979   47.7551  -12.3196 H       1  UNL1        0.0619
     67 H          17.6154   48.5116  -12.0825 H       1  UNL1        0.0654
     68 H          18.8346   44.4819  -11.1238 H       1  UNL1        0.0657
     69 H          21.2223   48.2708  -11.4225 H       1  UNL1        0.0696
     70 H          19.7482   48.8317  -12.1407 H       1  UNL1        0.0696
     71 H          20.0618   49.8878   -9.9112 H       1  UNL1        0.0298
     72 H          18.6694   48.8424   -9.8412 H       1  UNL1        0.0298
     73 H          20.1903   47.0197   -8.9273 H       1  UNL1        0.0281
     74 H          21.4707   48.1857   -8.7962 H       1  UNL1        0.0281
     75 H          20.2608   49.5010   -7.1395 H       1  UNL1        0.0461
     76 H          18.7613   48.6754   -7.4364 H       1  UNL1        0.0461
     77 H          21.0894   47.6973   -5.9293 H       1  UNL1        0.1461
     78 H          17.8621   46.7460   -7.4845 H       1  UNL1        0.0643
     79 H          18.6363   42.5471   -6.9861 H       1  UNL1        0.0632
     80 H          21.4181   45.4603   -5.4354 H       1  UNL1        0.0643
     81 H          21.6029   43.7107   -3.7914 H       1  UNL1        0.0309
     82 H          22.8709   43.5947   -5.0329 H       1  UNL1        0.0309
     83 H          22.3924   42.1633   -4.1144 H       1  UNL1        0.0309
     84 H          17.6841   42.6933   -8.8747 H       1  UNL1        0.1494
     85 H          13.4512   41.0119   -9.8627 H       1  UNL1        0.2099
@<TRIPOS>BOND
     1     1     2    1
     2     1    45    1
     3     1    46    1
     4     1    47    1
     5     2     3    1
     6     2     4    1
     7     2    48    1
     8     3    49    1
     9     3    50    1
    10     3    51    1
    11     4     9   ar
    12     4     5   ar
    13     5     6   ar
    14     5    52    1
    15     6     7   ar
    16     6    53    1
    17     7     8   ar
    18     7    54    1
    19     8     9   ar
    20     8    10    1
    21     9    55    1
    22    10    12    1
    23    10    11    1
    24    10    13    1
    25    11    12    1
    26    11    56    1
    27    11    57    1
    28    12    58    1
    29    12    59    1
    30    13    14    1
    31    13    60    1
    32    14    15    1
    33    14    61    1
    34    14    62    1
    35    15    43    1
    36    15    16    1
    37    15    42    1
    38    16    44    1
    39    16    41    1
    40    16    17    1
    41    17    18    1
    42    17    63    1
    43    17    64    1
    44    18    23   ar
    45    18    19   ar
    46    19    20   ar
    47    19    65    1
    48    20    21   ar
    49    20    66    1
    50    21    22   ar
    51    21    67    1
    52    22    23   ar
    53    22    24    1
    54    23    68    1
    55    24    25    1
    56    25    26    1
    57    25    69    1
    58    25    70    1
    59    26    27    1
    60    26    71    1
    61    26    72    1
    62    27    28    1
    63    27    73    1
    64    27    74    1
    65    28    29    1
    66    28    75    1
    67    28    76    1
    68    29    30    1
    69    29    77    1
    70    30    35   ar
    71    30    31   ar
    72    31    32   ar
    73    31    78    1
    74    32    33   ar
    75    32    39    1
    76    33    34   ar
    77    33    79    1
    78    34    35   ar
    79    34    36    1
    80    35    80    1
    81    36    37    2
    82    36    38    1
    83    38    81    1
    84    38    82    1
    85    38    83    1
    86    39    40    2
    87    39    41   am
    88    41    84    1
    89    42    85    1
