@<TRIPOS>MOLECULE
BACE_5.smi:1
 79 80 0 0 0
SMALL
GASTEIGER
****
Structure written by MMmdl.
@<TRIPOS>ATOM
      1 C          31.0518   43.4631   -8.8411 C.3     1  UNL1       -0.0649
      2 C          30.1558   44.7025   -8.7251 C.3     1  UNL1       -0.0504
      3 C          29.2002   44.8619   -9.9199 C.3     1  UNL1       -0.0089
      4 C          28.2550   43.6985  -10.0619 C.ar    1  UNL1        0.0631
      5 C          26.8712   43.6445   -9.7180 C.ar    1  UNL1       -0.0168
      6 C          26.4891   42.3715  -10.0400 C.ar    1  UNL1        0.0501
      7 N          27.6117   41.7513  -10.5391 N.ar    1  UNL1       -0.2801
      8 N          28.6955   42.5497  -10.5569 N.ar    1  UNL1       -0.1786
      9 C          25.1732   41.6733   -9.9295 C.3     1  UNL1        0.0380
     10 N          24.1763   42.2292  -10.8399 N.3     1  UNL1       -0.3081
     11 C          22.9102   42.5574  -10.1867 C.3     1  UNL1        0.0240
     12 C          22.2108   41.3029   -9.6195 C.3     1  UNL1        0.0859
     13 C          20.7439   41.5053   -9.2505 C.3     1  UNL1        0.0505
     14 C          19.9041   40.3252   -9.7812 C.3     1  UNL1       -0.0295
     15 C          20.0015   39.0566   -8.9119 C.3     1  UNL1       -0.0421
     16 C          19.1911   37.8554   -9.4478 C.3     1  UNL1       -0.0504
     17 C          17.6945   38.1162   -9.7355 C.3     1  UNL1       -0.0528
     18 C          16.8958   38.6810   -8.5414 C.3     1  UNL1       -0.0530
     19 C          15.3719   38.7688   -8.7788 C.3     1  UNL1       -0.0510
     20 C          14.9188   39.6212   -9.9852 C.3     1  UNL1       -0.0294
     21 C          15.3124   41.1096   -9.9081 C.3     1  UNL1        0.0483
     22 O          14.7702   41.9274  -11.1018 O.3     1  UNL1       -0.3706
     23 C          15.1686   43.4262  -11.0924 C.3     1  UNL1        0.1238
     24 C          16.6707   43.6830  -11.2608 C.2     1  UNL1        0.2417
     25 O          17.2799   43.1404  -12.1679 O.2     1  UNL1       -0.2731
     26 N          17.2442   44.5002  -10.3635 N.am    1  UNL1       -0.2914
     27 C          18.7139   44.6240  -10.2430 C.3     1  UNL1        0.0991
     28 C          19.2617   43.5031   -9.3329 C.2     1  UNL1        0.2336
     29 O          18.7987   43.3172   -8.2196 O.2     1  UNL1       -0.2738
     30 N          20.2536   42.7550   -9.8358 N.am    1  UNL1       -0.3084
     31 C          19.0512   45.9612   -9.5897 C.3     1  UNL1       -0.0379
     32 C          16.3930   45.0749   -9.3414 C.3     1  UNL1        0.0040
     33 C          21.4643   38.6428   -8.7791 C.3     1  UNL1       -0.0624
     34 O          22.9501   40.9009   -8.4816 O.3     1  UNL1       -0.3887
     35 H          27.6518   40.7965  -10.8662 H       1  UNL1        0.1886
     36 H          22.3064   40.5054  -10.3577 H       1  UNL1        0.0624
     37 H          20.7040   41.5461   -8.1620 H       1  UNL1        0.0524
     38 H          19.6702   39.2877   -7.8995 H       1  UNL1        0.0299
     39 H          19.2094   44.6294  -11.2139 H       1  UNL1        0.0594
     40 H          31.7134   43.3820   -7.9783 H       1  UNL1        0.0230
     41 H          31.6765   43.5079   -9.7336 H       1  UNL1        0.0230
     42 H          30.4595   42.5489   -8.8905 H       1  UNL1        0.0230
     43 H          30.7866   45.5875   -8.6336 H       1  UNL1        0.0266
     44 H          29.5794   44.6374   -7.8014 H       1  UNL1        0.0266
     45 H          29.7811   44.9724  -10.8364 H       1  UNL1        0.0329
     46 H          28.6330   45.7878   -9.8134 H       1  UNL1        0.0329
     47 H          26.2530   44.4245   -9.2983 H       1  UNL1        0.0654
     48 H          24.8133   41.7387   -8.9017 H       1  UNL1        0.0489
     49 H          25.3141   40.6121  -10.1371 H       1  UNL1        0.0489
     50 H          23.9996   41.5674  -11.5890 H       1  UNL1        0.1224
     51 H          22.2534   43.0889  -10.8752 H       1  UNL1        0.0450
     52 H          23.1082   43.2481   -9.3655 H       1  UNL1        0.0450
     53 H          18.8569   40.6245   -9.8261 H       1  UNL1        0.0286
     54 H          20.1971   40.1010  -10.8069 H       1  UNL1        0.0286
     55 H          19.6605   37.4939  -10.3627 H       1  UNL1        0.0268
     56 H          19.2770   37.0336   -8.7368 H       1  UNL1        0.0268
     57 H          17.2386   37.1805  -10.0592 H       1  UNL1        0.0265
     58 H          17.6058   38.7906  -10.5872 H       1  UNL1        0.0265
     59 H          17.0722   38.0524   -7.6686 H       1  UNL1        0.0265
     60 H          17.2762   39.6660   -8.2707 H       1  UNL1        0.0265
     61 H          14.8977   39.1533   -7.8758 H       1  UNL1        0.0266
     62 H          14.9795   37.7593   -8.9011 H       1  UNL1        0.0266
     63 H          15.3045   39.1868  -10.9075 H       1  UNL1        0.0287
     64 H          13.8342   39.5480  -10.0649 H       1  UNL1        0.0287
     65 H          16.3987   41.1912   -9.8727 H       1  UNL1        0.0560
     66 H          14.9454   41.5385   -8.9756 H       1  UNL1        0.0560
     67 H          14.7993   43.8944  -10.1800 H       1  UNL1        0.0657
     68 H          14.6666   43.9445  -11.9094 H       1  UNL1        0.0657
     69 H          20.5937   42.9970  -10.7556 H       1  UNL1        0.1491
     70 H          20.1301   46.1022   -9.5112 H       1  UNL1        0.0252
     71 H          18.6355   46.0434   -8.5848 H       1  UNL1        0.0252
     72 H          18.6616   46.7953  -10.1742 H       1  UNL1        0.0252
     73 H          16.8832   45.8493   -8.7544 H       1  UNL1        0.0429
     74 H          16.0459   44.3121   -8.6435 H       1  UNL1        0.0429
     75 H          15.5263   45.5684   -9.7831 H       1  UNL1        0.0429
     76 H          21.5747   37.7502   -8.1638 H       1  UNL1        0.0232
     77 H          22.0650   39.4206   -8.3089 H       1  UNL1        0.0232
     78 H          21.9093   38.4263   -9.7510 H       1  UNL1        0.0232
     79 H          23.7567   40.5040   -8.7729 H       1  UNL1        0.2099
@<TRIPOS>BOND
     1     1     2    1
     2     1    40    1
     3     1    41    1
     4     1    42    1
     5     2     3    1
     6     2    43    1
     7     2    44    1
     8     3    45    1
     9     3    46    1
    10     3     4    1
    11     4     8   ar
    12     4     5   ar
    13     5     6   ar
    14     5    47    1
    15     6     7   ar
    16     6     9    1
    17     7     8   ar
    18     7    35    1
    19     9    10    1
    20     9    48    1
    21     9    49    1
    22    10    11    1
    23    10    50    1
    24    11    12    1
    25    11    51    1
    26    11    52    1
    27    12    36    1
    28    12    13    1
    29    12    34    1
    30    13    37    1
    31    13    30    1
    32    13    14    1
    33    14    15    1
    34    14    53    1
    35    14    54    1
    36    15    38    1
    37    15    16    1
    38    15    33    1
    39    16    17    1
    40    16    55    1
    41    16    56    1
    42    17    18    1
    43    17    57    1
    44    17    58    1
    45    18    19    1
    46    18    59    1
    47    18    60    1
    48    19    20    1
    49    19    61    1
    50    19    62    1
    51    20    21    1
    52    20    63    1
    53    20    64    1
    54    21    22    1
    55    21    65    1
    56    21    66    1
    57    22    23    1
    58    23    24    1
    59    23    67    1
    60    23    68    1
    61    24    25    2
    62    24    26   am
    63    26    27    1
    64    26    32    1
    65    27    39    1
    66    27    28    1
    67    27    31    1
    68    28    29    2
    69    28    30   am
    70    30    69    1
    71    31    70    1
    72    31    71    1
    73    31    72    1
    74    32    73    1
    75    32    74    1
    76    32    75    1
    77    33    76    1
    78    33    77    1
    79    33    78    1
    80    34    79    1
