@<TRIPOS>MOLECULE
BACE_1.smi:1
 87 88 0 0 0
SMALL
GASTEIGER
****
Structure written by MMmdl.
@<TRIPOS>ATOM
      1 C          31.1346   43.4995   -8.5662 C.3     1  UNL1       -0.0652
      2 C          29.9488   43.4746   -9.5368 C.3     1  UNL1       -0.0545
      3 C          30.0612   42.3873  -10.6192 C.3     1  UNL1       -0.0376
      4 C          29.0508   42.5381  -11.7727 C.3     1  UNL1        0.0116
      5 N          27.6507   42.3143  -11.4057 N.am    1  UNL1       -0.3151
      6 C          26.7836   43.2807  -11.0559 C.2     1  UNL1        0.2159
      7 O          27.1397   44.3954  -10.6731 O.2     1  UNL1       -0.2755
      8 C          25.2914   42.9864  -11.2689 C.3     1  UNL1        0.0351
      9 C          24.6230   44.1685  -12.0024 C.3     1  UNL1       -0.0540
     10 C          24.5354   42.5967   -9.9681 C.3     1  UNL1       -0.0143
     11 C          23.5179   41.4439  -10.1637 C.3     1  UNL1        0.0742
     12 C          22.6397   41.1135   -8.9303 C.3     1  UNL1        0.0496
     13 C          21.7943   39.8296   -9.1801 C.3     1  UNL1       -0.0295
     14 C          20.7520   39.4577   -8.0973 C.3     1  UNL1       -0.0421
     15 C          19.6796   38.4978   -8.6679 C.3     1  UNL1       -0.0504
     16 C          18.4682   38.2149   -7.7513 C.3     1  UNL1       -0.0528
     17 C          17.7334   39.4505   -7.2029 C.3     1  UNL1       -0.0516
     18 C          17.1417   40.3908   -8.2649 C.3     1  UNL1       -0.0371
     19 C          16.4269   41.6123   -7.6445 C.3     1  UNL1        0.0150
     20 N          16.0610   42.6098   -8.6655 N.am    1  UNL1       -0.2978
     21 C          16.7515   43.7498   -8.9371 C.2     1  UNL1        0.2467
     22 O          16.3920   44.5588   -9.7949 O.2     1  UNL1       -0.2700
     23 C          17.9611   44.0911   -8.1136 C.ar    1  UNL1        0.0411
     24 C          19.1439   43.3285   -8.1914 C.ar    1  UNL1       -0.0373
     25 C          20.2745   43.6626   -7.4071 C.ar    1  UNL1        0.0409
     26 C          20.2037   44.7740   -6.5362 C.ar    1  UNL1       -0.0078
     27 C          19.0336   45.5634   -6.4774 C.ar    1  UNL1        0.1219
     28 C          17.9244   45.2197   -7.2738 C.ar    1  UNL1       -0.0078
     29 O          18.9449   46.6514   -5.6454 O.3     1  UNL1       -0.4922
     30 C          19.7016   47.7742   -6.0807 C.3     1  UNL1        0.0868
     31 C          18.9730   48.5215   -7.2049 C.3     1  UNL1       -0.0307
     32 C          21.5093   42.8045   -7.4550 C.2     1  UNL1        0.2445
     33 O          22.2119   42.6363   -6.4604 O.2     1  UNL1       -0.2702
     34 N          21.7548   42.2428   -8.6496 N.am    1  UNL1       -0.3060
     35 C          14.7744   42.3479   -9.3275 C.3     1  UNL1        0.0121
     36 C          13.6592   43.2676   -8.8008 C.3     1  UNL1       -0.0493
     37 C          21.4281   38.9003   -6.8349 C.3     1  UNL1       -0.0624
     38 O          22.6474   41.7494  -11.2401 O.3     1  UNL1       -0.3899
     39 H          25.2599   42.1461  -11.9575 H       1  UNL1        0.0392
     40 H          24.0765   40.5495  -10.4396 H       1  UNL1        0.0612
     41 H          23.2998   40.9364   -8.0801 H       1  UNL1        0.0524
     42 H          20.2256   40.3657   -7.8156 H       1  UNL1        0.0299
     43 H          30.9933   44.2662   -7.8046 H       1  UNL1        0.0230
     44 H          32.0650   43.7329   -9.0843 H       1  UNL1        0.0230
     45 H          31.2600   42.5493   -8.0497 H       1  UNL1        0.0230
     46 H          29.0237   43.3464   -8.9746 H       1  UNL1        0.0263
     47 H          29.8759   44.4529  -10.0114 H       1  UNL1        0.0263
     48 H          31.0602   42.4421  -11.0549 H       1  UNL1        0.0280
     49 H          29.9852   41.3893  -10.1869 H       1  UNL1        0.0280
     50 H          29.1616   43.5171  -12.2424 H       1  UNL1        0.0462
     51 H          29.2921   41.8111  -12.5487 H       1  UNL1        0.0462
     52 H          27.2699   41.4123  -11.6494 H       1  UNL1        0.1487
     53 H          25.1805   44.4434  -12.8982 H       1  UNL1        0.0237
     54 H          24.5648   45.0530  -11.3664 H       1  UNL1        0.0237
     55 H          23.6100   43.9232  -12.3177 H       1  UNL1        0.0237
     56 H          25.2460   42.2923   -9.1988 H       1  UNL1        0.0298
     57 H          24.0336   43.4766   -9.5652 H       1  UNL1        0.0298
     58 H          21.2565   39.9572  -10.1210 H       1  UNL1        0.0286
     59 H          22.4610   38.9822   -9.3470 H       1  UNL1        0.0286
     60 H          19.2991   38.9050   -9.6061 H       1  UNL1        0.0268
     61 H          20.1501   37.5507   -8.9361 H       1  UNL1        0.0268
     62 H          17.7558   37.5844   -8.2838 H       1  UNL1        0.0265
     63 H          18.7933   37.6240   -6.8968 H       1  UNL1        0.0265
     64 H          16.9337   39.1154   -6.5401 H       1  UNL1        0.0266
     65 H          18.4248   40.0004   -6.5685 H       1  UNL1        0.0266
     66 H          17.9294   40.7200   -8.9385 H       1  UNL1        0.0280
     67 H          16.4380   39.8342   -8.8829 H       1  UNL1        0.0280
     68 H          15.5298   41.2809   -7.1179 H       1  UNL1        0.0464
     69 H          17.0368   42.0649   -6.8645 H       1  UNL1        0.0464
     70 H          19.1779   42.4784   -8.8534 H       1  UNL1        0.0633
     71 H          21.0490   45.0246   -5.9106 H       1  UNL1        0.0662
     72 H          17.0333   45.8283   -7.2440 H       1  UNL1        0.0662
     73 H          19.8320   48.4533   -5.2392 H       1  UNL1        0.0694
     74 H          20.7048   47.4833   -6.4004 H       1  UNL1        0.0694
     75 H          19.5246   49.4168   -7.4922 H       1  UNL1        0.0262
     76 H          17.9761   48.8273   -6.8848 H       1  UNL1        0.0262
     77 H          18.8665   47.9002   -8.0953 H       1  UNL1        0.0262
     78 H          21.1745   42.5246   -9.4262 H       1  UNL1        0.1494
     79 H          14.8805   42.4706  -10.4063 H       1  UNL1        0.0462
     80 H          14.4755   41.3091   -9.1809 H       1  UNL1        0.0462
     81 H          12.6987   42.9909   -9.2391 H       1  UNL1        0.0245
     82 H          13.8450   44.3137   -9.0434 H       1  UNL1        0.0245
     83 H          13.5681   43.1870   -7.7167 H       1  UNL1        0.0245
     84 H          21.9187   37.9482   -7.0324 H       1  UNL1        0.0232
     85 H          20.6993   38.7435   -6.0411 H       1  UNL1        0.0232
     86 H          22.1773   39.5892   -6.4457 H       1  UNL1        0.0232
     87 H          23.0873   41.4963  -12.0469 H       1  UNL1        0.2099
@<TRIPOS>BOND
     1     1     2    1
     2     1    43    1
     3     1    44    1
     4     1    45    1
     5     2     3    1
     6     2    46    1
     7     2    47    1
     8     3     4    1
     9     3    48    1
    10     3    49    1
    11     4     5    1
    12     4    50    1
    13     4    51    1
    14     5     6   am
    15     5    52    1
    16     6     7    2
    17     6     8    1
    18     8    39    1
    19     8     9    1
    20     8    10    1
    21     9    53    1
    22     9    54    1
    23     9    55    1
    24    10    11    1
    25    10    56    1
    26    10    57    1
    27    11    40    1
    28    11    12    1
    29    11    38    1
    30    12    41    1
    31    12    34    1
    32    12    13    1
    33    13    14    1
    34    13    58    1
    35    13    59    1
    36    14    42    1
    37    14    15    1
    38    14    37    1
    39    15    16    1
    40    15    60    1
    41    15    61    1
    42    16    17    1
    43    16    62    1
    44    16    63    1
    45    17    18    1
    46    17    64    1
    47    17    65    1
    48    18    19    1
    49    18    66    1
    50    18    67    1
    51    19    20    1
    52    19    68    1
    53    19    69    1
    54    20    21   am
    55    20    35    1
    56    21    22    2
    57    21    23    1
    58    23    28   ar
    59    23    24   ar
    60    24    25   ar
    61    24    70    1
    62    25    26   ar
    63    25    32    1
    64    26    27   ar
    65    26    71    1
    66    27    28   ar
    67    27    29    1
    68    28    72    1
    69    29    30    1
    70    30    31    1
    71    30    73    1
    72    30    74    1
    73    31    75    1
    74    31    76    1
    75    31    77    1
    76    32    33    2
    77    32    34   am
    78    34    78    1
    79    35    36    1
    80    35    79    1
    81    35    80    1
    82    36    81    1
    83    36    82    1
    84    36    83    1
    85    37    84    1
    86    37    85    1
    87    37    86    1
    88    38    87    1
