@<TRIPOS>MOLECULE
BACE_15.smi:1
 83 86 0 0 0
SMALL
GASTEIGER
****
Structure written by MMmdl.
@<TRIPOS>ATOM
      1 C          20.4175   38.5472   -7.2046 C.3     1  UNL1       -0.0586
      2 C          19.7223   38.2349   -8.5393 C.3     1  UNL1       -0.0215
      3 C          20.1605   39.2218   -9.6333 C.3     1  UNL1       -0.0586
      4 C          18.1998   38.1706   -8.4465 C.ar    1  UNL1       -0.0444
      5 C          17.4823   37.3489   -9.3382 C.ar    1  UNL1       -0.0583
      6 C          16.0746   37.3632   -9.3517 C.ar    1  UNL1       -0.0611
      7 C          15.3663   38.2134   -8.4795 C.ar    1  UNL1       -0.0535
      8 C          16.0734   39.0203   -7.5684 C.ar    1  UNL1       -0.0027
      9 C          17.4829   38.9631   -7.5257 C.ar    1  UNL1       -0.0501
     10 C          15.3336   39.9868   -6.6620 C.3     1  UNL1       -0.0076
     11 N          15.2601   41.3499   -7.2478 N.4     1  UNL1        0.2321
     12 C          16.5510   41.9425   -7.7004 C.3     1  UNL1       -0.0049
     13 C          16.4786   43.3408   -8.3731 C.3     1  UNL1        0.1133
     14 C          17.3459   44.4467   -7.7003 C.3     1  UNL1        0.0583
     15 C          17.6034   45.6830   -8.6008 C.3     1  UNL1       -0.0065
     16 C          18.5889   46.6755   -7.9920 C.ar    1  UNL1       -0.0421
     17 C          18.1993   47.4741   -6.8971 C.ar    1  UNL1       -0.0583
     18 C          19.1291   48.3321   -6.2817 C.ar    1  UNL1       -0.0580
     19 C          20.4521   48.3885   -6.7504 C.ar    1  UNL1       -0.0199
     20 C          20.8636   47.5982   -7.8430 C.ar    1  UNL1        0.1208
     21 C          19.9140   46.7575   -8.4788 C.ar    1  UNL1       -0.0167
     22 O          22.1908   47.6968   -8.2015 O.3     1  UNL1       -0.4920
     23 C          22.7263   46.8208   -9.1872 C.3     1  UNL1        0.0897
     24 C          24.2416   46.7269   -8.9487 C.3     1  UNL1       -0.0156
     25 C          24.5881   45.9169   -7.6844 C.3     1  UNL1       -0.0156
     26 C          24.7849   44.4098   -7.9469 C.3     1  UNL1        0.0897
     27 O          24.5470   43.6566   -6.7607 O.3     1  UNL1       -0.4919
     28 C          23.2477   43.3788   -6.3824 C.ar    1  UNL1        0.1215
     29 C          23.0404   42.9621   -5.0502 C.ar    1  UNL1       -0.0145
     30 C          21.7461   42.6768   -4.5719 C.ar    1  UNL1       -0.0178
     31 C          20.6459   42.7919   -5.4436 C.ar    1  UNL1       -0.0440
     32 C          20.8252   43.2208   -6.7759 C.ar    1  UNL1        0.0405
     33 C          22.1269   43.4860   -7.2442 C.ar    1  UNL1       -0.0078
     34 C          19.6447   43.4045   -7.6830 C.2     1  UNL1        0.2445
     35 O          19.6990   43.1566   -8.8873 O.2     1  UNL1       -0.2702
     36 N          18.5832   43.9620   -7.0821 N.am    1  UNL1       -0.3055
     37 C          21.5318   42.2328   -3.1349 C.3     1  UNL1        0.0725
     38 O          20.2242   42.5495   -2.6762 O.3     1  UNL1       -0.3784
     39 C          19.9672   42.1113   -1.3560 C.3     1  UNL1        0.0369
     40 O          15.1405   43.8002   -8.4393 O.3     1  UNL1       -0.3847
     41 H          16.8199   43.2166   -9.4030 H       1  UNL1        0.0666
     42 H          16.7812   44.8010   -6.8407 H       1  UNL1        0.0529
     43 H          20.0977   37.8427   -6.4398 H       1  UNL1        0.0235
     44 H          20.2072   39.5591   -6.8493 H       1  UNL1        0.0235
     45 H          21.5026   38.4591   -7.2978 H       1  UNL1        0.0235
     46 H          20.0608   37.2436   -8.8408 H       1  UNL1        0.0343
     47 H          19.7431   38.9471  -10.6014 H       1  UNL1        0.0235
     48 H          21.2481   39.2424   -9.7342 H       1  UNL1        0.0235
     49 H          19.8296   40.2363   -9.4025 H       1  UNL1        0.0235
     50 H          18.0120   36.7225  -10.0398 H       1  UNL1        0.0620
     51 H          15.5330   36.7330  -10.0402 H       1  UNL1        0.0618
     52 H          14.2855   38.2360   -8.5085 H       1  UNL1        0.0622
     53 H          18.0065   39.6011   -6.8240 H       1  UNL1        0.0625
     54 H          14.3195   39.6244   -6.4839 H       1  UNL1        0.0866
     55 H          15.8096   40.0233   -5.6835 H       1  UNL1        0.0866
     56 H          14.6211   41.3319   -8.0265 H       1  UNL1        0.2018
     57 H          17.2108   41.9388   -6.8458 H       1  UNL1        0.0840
     58 H          17.0079   41.2969   -8.4466 H       1  UNL1        0.0840
     59 H          17.9866   45.3595   -9.5695 H       1  UNL1        0.0332
     60 H          16.6638   46.1956   -8.8054 H       1  UNL1        0.0332
     61 H          17.1925   47.4151   -6.5164 H       1  UNL1        0.0620
     62 H          18.8332   48.9373   -5.4372 H       1  UNL1        0.0619
     63 H          21.1654   49.0321   -6.2588 H       1  UNL1        0.0654
     64 H          20.1918   46.1395   -9.3203 H       1  UNL1        0.0657
     65 H          22.3030   45.8202   -9.1425 H       1  UNL1        0.0696
     66 H          22.5171   47.2260  -10.1762 H       1  UNL1        0.0696
     67 H          24.7346   46.2870   -9.8179 H       1  UNL1        0.0299
     68 H          24.6431   47.7373   -8.8574 H       1  UNL1        0.0299
     69 H          25.5046   46.3085   -7.2379 H       1  UNL1        0.0299
     70 H          23.8124   46.0719   -6.9332 H       1  UNL1        0.0299
     71 H          24.2042   44.0508   -8.7952 H       1  UNL1        0.0696
     72 H          25.8222   44.2404   -8.2400 H       1  UNL1        0.0696
     73 H          23.8914   42.8788   -4.3879 H       1  UNL1        0.0657
     74 H          19.6606   42.5542   -5.0763 H       1  UNL1        0.0628
     75 H          22.2300   43.7845   -8.2757 H       1  UNL1        0.0662
     76 H          18.6829   44.1289   -6.0925 H       1  UNL1        0.1494
     77 H          21.7021   41.1562   -3.0763 H       1  UNL1        0.0610
     78 H          22.2715   42.7185   -2.4965 H       1  UNL1        0.0610
     79 H          18.9565   42.4011   -1.0676 H       1  UNL1        0.0524
     80 H          20.6616   42.5664   -0.6495 H       1  UNL1        0.0524
     81 H          20.0380   41.0256   -1.2775 H       1  UNL1        0.0524
     82 H          14.8610   43.9709   -7.5514 H       1  UNL1        0.2101
     83 H          14.8685   41.9394   -6.5136 H       1  UNL1        0.2018
@<TRIPOS>BOND
     1     1     2    1
     2     1    43    1
     3     1    44    1
     4     1    45    1
     5     2     3    1
     6     2     4    1
     7     2    46    1
     8     3    47    1
     9     3    48    1
    10     3    49    1
    11     4     9   ar
    12     4     5   ar
    13     5     6   ar
    14     5    50    1
    15     6     7   ar
    16     6    51    1
    17     7     8   ar
    18     7    52    1
    19     8     9   ar
    20     8    10    1
    21     9    53    1
    22    10    11    1
    23    10    54    1
    24    10    55    1
    25    11    12    1
    26    11    56    1
    27    11    83    1
    28    12    13    1
    29    12    57    1
    30    12    58    1
    31    13    41    1
    32    13    14    1
    33    13    40    1
    34    14    42    1
    35    14    36    1
    36    14    15    1
    37    15    16    1
    38    15    59    1
    39    15    60    1
    40    16    21   ar
    41    16    17   ar
    42    17    18   ar
    43    17    61    1
    44    18    19   ar
    45    18    62    1
    46    19    20   ar
    47    19    63    1
    48    20    21   ar
    49    20    22    1
    50    21    64    1
    51    22    23    1
    52    23    24    1
    53    23    65    1
    54    23    66    1
    55    24    25    1
    56    24    67    1
    57    24    68    1
    58    25    26    1
    59    25    69    1
    60    25    70    1
    61    26    27    1
    62    26    71    1
    63    26    72    1
    64    27    28    1
    65    28    33   ar
    66    28    29   ar
    67    29    30   ar
    68    29    73    1
    69    30    31   ar
    70    30    37    1
    71    31    32   ar
    72    31    74    1
    73    32    33   ar
    74    32    34    1
    75    33    75    1
    76    34    35    2
    77    34    36   am
    78    36    76    1
    79    37    38    1
    80    37    77    1
    81    37    78    1
    82    38    39    1
    83    39    79    1
    84    39    80    1
    85    39    81    1
    86    40    82    1
