@<TRIPOS>MOLECULE
BACE_13.smi:1
 76 79 0 0 0
SMALL
GASTEIGER
****
Structure written by MMmdl.
@<TRIPOS>ATOM
      1 C          22.7244   43.3827   -3.2826 C.3     1  UNL1        0.0369
      2 O          21.6480   42.6117   -2.7760 O.3     1  UNL1       -0.3784
      3 C          21.5604   41.3082   -3.3324 C.3     1  UNL1        0.0724
      4 C          21.1907   41.2656   -4.8083 C.ar    1  UNL1       -0.0195
      5 C          20.4608   42.3116   -5.4149 C.ar    1  UNL1       -0.0442
      6 C          20.0602   42.2201   -6.7666 C.ar    1  UNL1        0.0388
      7 C          20.4142   41.0720   -7.5131 C.ar    1  UNL1       -0.0287
      8 C          21.1431   40.0140   -6.9137 C.ar    1  UNL1        0.0282
      9 C          21.5314   40.1285   -5.5652 C.ar    1  UNL1       -0.0355
     10 N          21.4956   38.8394   -7.5999 N.pl3   1  UNL1       -0.3438
     11 C          20.7247   38.4365   -8.7665 C.3     1  UNL1        0.0092
     12 C          21.3029   39.0029  -10.0682 C.3     1  UNL1       -0.0344
     13 C          20.2155   39.1946  -11.1355 C.3     1  UNL1       -0.0172
     14 C          20.7351   39.8321  -12.4364 C.3     1  UNL1        0.0896
     15 O          21.6470   40.9009  -12.2049 O.3     1  UNL1       -0.4920
     16 C          21.2186   42.0810  -11.6387 C.ar    1  UNL1        0.1208
     17 C          22.2230   42.9865  -11.2441 C.ar    1  UNL1       -0.0199
     18 C          21.8910   44.2211  -10.6587 C.ar    1  UNL1       -0.0580
     19 C          20.5421   44.5609  -10.4583 C.ar    1  UNL1       -0.0583
     20 C          19.5250   43.6640  -10.8397 C.ar    1  UNL1       -0.0421
     21 C          19.8614   42.4321  -11.4392 C.ar    1  UNL1       -0.0167
     22 C          18.0680   44.0248  -10.5986 C.3     1  UNL1       -0.0066
     23 C          17.5912   43.9744   -9.1188 C.3     1  UNL1        0.0548
     24 N          18.3825   43.0305   -8.3161 N.am    1  UNL1       -0.3057
     25 C          19.3096   43.3595   -7.3987 C.2     1  UNL1        0.2444
     26 O          19.5309   44.5200   -7.0471 O.2     1  UNL1       -0.2702
     27 C          16.0524   43.7334   -9.0248 C.3     1  UNL1        0.0912
     28 C          15.4655   42.2949   -8.9249 C.3     1  UNL1        0.0591
     29 C          15.7348   41.4762  -10.2017 C.3     1  UNL1        0.0660
     30 O          15.0875   40.2135  -10.1137 O.3     1  UNL1       -0.3714
     31 C          15.5452   39.4286   -9.0103 C.3     1  UNL1        0.0944
     32 C          15.3764   40.1970   -7.6801 C.3     1  UNL1        0.0248
     33 N          15.9381   41.5521   -7.7488 N.3     1  UNL1       -0.3065
     34 C          16.9802   38.9104   -9.2678 C.3     1  UNL1        0.0747
     35 O          17.3457   37.7954   -8.4669 O.3     1  UNL1       -0.3804
     36 C          16.7393   36.5686   -8.8443 C.3     1  UNL1        0.0366
     37 O          15.4793   44.5628   -8.0399 O.3     1  UNL1       -0.3883
     38 H          17.7857   44.9769   -8.7338 H       1  UNL1        0.0527
     39 H          15.6282   44.1580   -9.9345 H       1  UNL1        0.0628
     40 H          14.3824   42.3969   -8.8478 H       1  UNL1        0.0509
     41 H          14.8641   38.5805   -8.9846 H       1  UNL1        0.0632
     42 H          22.8600   44.2700   -2.6670 H       1  UNL1        0.0524
     43 H          22.5555   43.7100   -4.3080 H       1  UNL1        0.0524
     44 H          23.6601   42.8353   -3.2539 H       1  UNL1        0.0524
     45 H          20.7931   40.7614   -2.7869 H       1  UNL1        0.0610
     46 H          22.4975   40.7750   -3.1595 H       1  UNL1        0.0610
     47 H          20.1828   43.1757   -4.8279 H       1  UNL1        0.0628
     48 H          20.1260   41.0125   -8.5502 H       1  UNL1        0.0643
     49 H          22.0788   39.3234   -5.0947 H       1  UNL1        0.0639
     50 H          21.9077   38.0951   -7.0545 H       1  UNL1        0.1461
     51 H          19.6932   38.7517   -8.6253 H       1  UNL1        0.0461
     52 H          20.6902   37.3501   -8.8385 H       1  UNL1        0.0461
     53 H          22.1020   38.3601  -10.4340 H       1  UNL1        0.0281
     54 H          21.7711   39.9646   -9.8613 H       1  UNL1        0.0281
     55 H          19.4300   39.8201  -10.7152 H       1  UNL1        0.0298
     56 H          19.7372   38.2401  -11.3602 H       1  UNL1        0.0298
     57 H          19.9149   40.1528  -13.0794 H       1  UNL1        0.0696
     58 H          21.2783   39.0755  -13.0031 H       1  UNL1        0.0696
     59 H          23.2610   42.7238  -11.3975 H       1  UNL1        0.0654
     60 H          22.6717   44.9029  -10.3568 H       1  UNL1        0.0619
     61 H          20.2894   45.5041   -9.9965 H       1  UNL1        0.0620
     62 H          19.0685   41.7663  -11.7389 H       1  UNL1        0.0657
     63 H          17.4628   43.3684  -11.2171 H       1  UNL1        0.0332
     64 H          17.8918   45.0223  -10.9987 H       1  UNL1        0.0332
     65 H          18.1714   42.0487   -8.4266 H       1  UNL1        0.1494
     66 H          16.8014   41.3415  -10.3702 H       1  UNL1        0.0576
     67 H          15.3410   41.9985  -11.0738 H       1  UNL1        0.0576
     68 H          15.8310   39.6359   -6.8602 H       1  UNL1        0.0450
     69 H          14.3135   40.2587   -7.4442 H       1  UNL1        0.0450
     70 H          15.6770   42.0401   -6.8923 H       1  UNL1        0.1224
     71 H          17.1083   38.6534  -10.3189 H       1  UNL1        0.0586
     72 H          17.6928   39.7088   -9.0598 H       1  UNL1        0.0586
     73 H          17.1875   35.7543   -8.2723 H       1  UNL1        0.0524
     74 H          16.8896   36.3612   -9.9060 H       1  UNL1        0.0524
     75 H          15.6666   36.5666   -8.6389 H       1  UNL1        0.0524
     76 H          15.6589   44.1802   -7.1845 H       1  UNL1        0.2099
@<TRIPOS>BOND
     1     1     2    1
     2     1    42    1
     3     1    43    1
     4     1    44    1
     5     2     3    1
     6     3     4    1
     7     3    45    1
     8     3    46    1
     9     4     9   ar
    10     4     5   ar
    11     5     6   ar
    12     5    47    1
    13     6    25    1
    14     6     7   ar
    15     7     8   ar
    16     7    48    1
    17     8     9   ar
    18     8    10    1
    19     9    49    1
    20    10    11    1
    21    10    50    1
    22    11    12    1
    23    11    51    1
    24    11    52    1
    25    12    13    1
    26    12    53    1
    27    12    54    1
    28    13    14    1
    29    13    55    1
    30    13    56    1
    31    14    15    1
    32    14    57    1
    33    14    58    1
    34    15    16    1
    35    16    21   ar
    36    16    17   ar
    37    17    18   ar
    38    17    59    1
    39    18    19   ar
    40    18    60    1
    41    19    20   ar
    42    19    61    1
    43    20    21   ar
    44    20    22    1
    45    21    62    1
    46    22    23    1
    47    22    63    1
    48    22    64    1
    49    23    38    1
    50    23    24    1
    51    23    27    1
    52    24    25   am
    53    24    65    1
    54    25    26    2
    55    27    39    1
    56    27    28    1
    57    27    37    1
    58    28    40    1
    59    28    33    1
    60    28    29    1
    61    29    30    1
    62    29    66    1
    63    29    67    1
    64    30    31    1
    65    31    41    1
    66    31    32    1
    67    31    34    1
    68    32    33    1
    69    32    68    1
    70    32    69    1
    71    33    70    1
    72    34    35    1
    73    34    71    1
    74    34    72    1
    75    35    36    1
    76    36    73    1
    77    36    74    1
    78    36    75    1
    79    37    76    1
