@<TRIPOS>MOLECULE
BACE_8.smi:1
 78 80 0 0 0
SMALL
GASTEIGER
****
Structure written by MMmdl.
@<TRIPOS>ATOM
      1 C          20.2141   38.5595   -7.2219 C.3     1  UNL1       -0.0623
      2 C          19.5863   38.9717   -8.5698 C.3     1  UNL1       -0.0400
      3 C          18.7317   37.8413   -9.1795 C.3     1  UNL1       -0.0268
      4 C          17.4375   37.5401   -8.4107 C.3     1  UNL1        0.0479
      5 O          16.6070   38.6858   -8.4731 O.3     1  UNL1       -0.3797
      6 C          15.5670   38.6547   -7.5111 C.3     1  UNL1        0.0477
      7 C          14.6442   39.8575   -7.6969 C.3     1  UNL1       -0.0281
      8 C          15.2360   41.1989   -7.2400 C.3     1  UNL1       -0.0354
      9 C          16.4811   41.6514   -8.0089 C.3     1  UNL1        0.0105
     10 N          16.8573   43.0045   -7.6401 N.pl3   1  UNL1       -0.3290
     11 C          18.1347   43.4835   -7.9402 C.ar    1  UNL1        0.1211
     12 C          18.9330   42.9223   -8.9612 C.ar    1  UNL1       -0.0097
     13 C          20.1993   43.4871   -9.2221 C.ar    1  UNL1        0.0428
     14 C          20.6082   44.5972   -8.4551 C.ar    1  UNL1       -0.0126
     15 C          19.7479   45.0761   -7.4473 C.ar    1  UNL1        0.1320
     16 N          18.5370   44.5363   -7.2011 N.ar    1  UNL1       -0.2208
     17 CL         20.2425   46.4229   -6.4878 Cl      1  UNL1       -0.0619
     18 C          21.0612   42.9619  -10.3352 C.2     1  UNL1        0.2446
     19 O          21.4254   43.7079  -11.2401 O.2     1  UNL1       -0.2702
     20 N          21.4150   41.6639  -10.3297 N.am    1  UNL1       -0.3058
     21 C          21.4223   40.7233   -9.1993 C.3     1  UNL1        0.0545
     22 C          20.6265   39.4555   -9.6029 C.3     1  UNL1       -0.0292
     23 C          22.8772   40.3968   -8.7153 C.3     1  UNL1        0.1130
     24 C          23.9691   41.4454   -9.0366 C.3     1  UNL1       -0.0050
     25 N          24.4241   41.3510  -10.4399 N.4     1  UNL1        0.2321
     26 C          24.8938   42.6184  -11.0314 C.3     1  UNL1       -0.0076
     27 C          26.3327   42.8965  -10.6639 C.ar    1  UNL1       -0.0027
     28 C          26.6449   43.7476   -9.5863 C.ar    1  UNL1       -0.0535
     29 C          27.9905   44.0131   -9.2764 C.ar    1  UNL1       -0.0611
     30 C          29.0219   43.4414  -10.0465 C.ar    1  UNL1       -0.0583
     31 C          28.7179   42.5842  -11.1317 C.ar    1  UNL1       -0.0444
     32 C          27.3656   42.3106  -11.4219 C.ar    1  UNL1       -0.0501
     33 C          29.7983   41.9371  -12.0002 C.3     1  UNL1       -0.0215
     34 C          31.2191   42.1076  -11.4493 C.3     1  UNL1       -0.0586
     35 C          29.7341   42.4271  -13.4550 C.3     1  UNL1       -0.0586
     36 O          22.8603   40.2798   -7.3101 O.3     1  UNL1       -0.3847
     37 H          18.9224   39.8080   -8.3760 H       1  UNL1        0.0299
     38 H          20.9019   41.1955   -8.3649 H       1  UNL1        0.0526
     39 H          23.2038   39.4345   -9.1032 H       1  UNL1        0.0666
     40 H          21.0599   37.8844   -7.3571 H       1  UNL1        0.0232
     41 H          19.4986   38.0675   -6.5624 H       1  UNL1        0.0232
     42 H          20.5516   39.4349   -6.6702 H       1  UNL1        0.0232
     43 H          18.4554   38.0849  -10.2047 H       1  UNL1        0.0290
     44 H          19.3430   36.9470   -9.2415 H       1  UNL1        0.0290
     45 H          16.9156   36.6929   -8.8560 H       1  UNL1        0.0560
     46 H          17.6603   37.2650   -7.3801 H       1  UNL1        0.0560
     47 H          14.9777   37.7499   -7.6392 H       1  UNL1        0.0560
     48 H          15.9770   38.6473   -6.5000 H       1  UNL1        0.0560
     49 H          14.3108   39.9159   -8.7339 H       1  UNL1        0.0288
     50 H          13.7531   39.6677   -7.0982 H       1  UNL1        0.0288
     51 H          14.4627   41.9586   -7.3373 H       1  UNL1        0.0281
     52 H          15.4657   41.1447   -6.1734 H       1  UNL1        0.0281
     53 H          17.3016   40.9841   -7.7638 H       1  UNL1        0.0462
     54 H          16.3084   41.5991   -9.0836 H       1  UNL1        0.0462
     55 H          16.3958   43.3537   -6.8047 H       1  UNL1        0.1474
     56 H          18.5838   42.0871   -9.5488 H       1  UNL1        0.0659
     57 H          21.5622   45.0726   -8.6303 H       1  UNL1        0.0655
     58 H          21.8016   41.3231  -11.1966 H       1  UNL1        0.1494
     59 H          21.2984   38.6347   -9.8603 H       1  UNL1        0.0286
     60 H          20.0839   39.6618  -10.5269 H       1  UNL1        0.0286
     61 H          23.6029   42.4434   -8.7962 H       1  UNL1        0.0840
     62 H          24.8568   41.2871   -8.4232 H       1  UNL1        0.0840
     63 H          25.1552   40.6542  -10.5052 H       1  UNL1        0.2018
     64 H          24.8259   42.5501  -12.1177 H       1  UNL1        0.0866
     65 H          24.2474   43.4499  -10.7454 H       1  UNL1        0.0866
     66 H          25.8612   44.2026   -8.9981 H       1  UNL1        0.0622
     67 H          28.2354   44.6675   -8.4541 H       1  UNL1        0.0618
     68 H          30.0416   43.6816   -9.7851 H       1  UNL1        0.0620
     69 H          27.1212   41.6550  -12.2446 H       1  UNL1        0.0625
     70 H          29.5837   40.8666  -12.0061 H       1  UNL1        0.0343
     71 H          31.2605   41.7504  -10.4235 H       1  UNL1        0.0235
     72 H          31.5346   43.1509  -11.4598 H       1  UNL1        0.0235
     73 H          31.9387   41.5410  -12.0405 H       1  UNL1        0.0235
     74 H          28.7778   42.1942  -13.9174 H       1  UNL1        0.0235
     75 H          30.5030   41.9488  -14.0635 H       1  UNL1        0.0235
     76 H          29.8846   43.5057  -13.5184 H       1  UNL1        0.0235
     77 H          22.2557   39.5925   -7.0684 H       1  UNL1        0.2101
     78 H          23.6583   41.0334  -11.0120 H       1  UNL1        0.2018
@<TRIPOS>BOND
     1     1     2    1
     2     1    40    1
     3     1    41    1
     4     1    42    1
     5     2    37    1
     6     2    22    1
     7     2     3    1
     8     3     4    1
     9     3    43    1
    10     3    44    1
    11     4     5    1
    12     4    45    1
    13     4    46    1
    14     5     6    1
    15     6     7    1
    16     6    47    1
    17     6    48    1
    18     7     8    1
    19     7    49    1
    20     7    50    1
    21     8     9    1
    22     8    51    1
    23     8    52    1
    24     9    10    1
    25     9    53    1
    26     9    54    1
    27    10    11    1
    28    10    55    1
    29    11    16   ar
    30    11    12   ar
    31    12    13   ar
    32    12    56    1
    33    13    14   ar
    34    13    18    1
    35    14    15   ar
    36    14    57    1
    37    15    16   ar
    38    15    17    1
    39    18    19    2
    40    18    20   am
    41    20    21    1
    42    20    58    1
    43    21    38    1
    44    21    22    1
    45    21    23    1
    46    22    59    1
    47    22    60    1
    48    23    39    1
    49    23    24    1
    50    23    36    1
    51    24    25    1
    52    24    61    1
    53    24    62    1
    54    25    26    1
    55    25    63    1
    56    25    78    1
    57    26    27    1
    58    26    64    1
    59    26    65    1
    60    27    32   ar
    61    27    28   ar
    62    28    29   ar
    63    28    66    1
    64    29    30   ar
    65    29    67    1
    66    30    31   ar
    67    30    68    1
    68    31    32   ar
    69    31    33    1
    70    32    69    1
    71    33    34    1
    72    33    35    1
    73    33    70    1
    74    34    71    1
    75    34    72    1
    76    34    73    1
    77    35    74    1
    78    35    75    1
    79    35    76    1
    80    36    77    1
