@<TRIPOS>MOLECULE
BACE_20.smi:1
 78 79 0 0 0
SMALL
GASTEIGER
****
Structure written by MMmdl.
@<TRIPOS>ATOM
      1 C          28.7881   48.6720  -17.2455 C.3     1  UNL1       -0.0652
      2 C          29.1821   47.4416  -16.4225 C.3     1  UNL1       -0.0545
      3 C          28.1916   47.1479  -15.2857 C.3     1  UNL1       -0.0377
      4 C          28.5699   45.8845  -14.5044 C.3     1  UNL1        0.0104
      5 N          27.6141   45.6043  -13.4417 N.pl3   1  UNL1       -0.3289
      6 C          27.6482   44.3795  -12.7642 C.ar    1  UNL1        0.1232
      7 C          26.6575   44.1037  -11.8055 C.ar    1  UNL1       -0.0095
      8 C          26.6533   42.8445  -11.1735 C.ar    1  UNL1        0.0450
      9 C          27.6660   41.9214  -11.5032 C.ar    1  UNL1        0.0122
     10 C          28.6334   42.2912  -12.4573 C.ar    1  UNL1        0.2168
     11 N          28.6205   43.4972  -13.0742 N.ar    1  UNL1       -0.1981
     12 O          29.6248   41.3927  -12.7940 O.3     1  UNL1       -0.4796
     13 C          30.5105   41.7500  -13.8542 C.3     1  UNL1        0.0804
     14 C          25.5709   42.5067  -10.1950 C.2     1  UNL1        0.2446
     15 O          25.2409   43.3096   -9.3225 O.2     1  UNL1       -0.2702
     16 N          24.9301   41.3501  -10.4400 N.am    1  UNL1       -0.3057
     17 C          23.5839   40.9831   -9.9712 C.3     1  UNL1        0.0533
     18 C          23.6631   40.6597   -8.4530 C.3     1  UNL1       -0.0068
     19 C          22.3734   40.1927   -7.8094 C.ar    1  UNL1       -0.0455
     20 C          21.7846   38.9667   -8.1888 C.ar    1  UNL1       -0.0585
     21 C          20.5436   38.5864   -7.6405 C.ar    1  UNL1       -0.0615
     22 C          19.9179   39.3934   -6.6713 C.ar    1  UNL1       -0.0617
     23 C          20.5304   40.5915   -6.2604 C.ar    1  UNL1       -0.0615
     24 C          21.7487   40.9966   -6.8347 C.ar    1  UNL1       -0.0585
     25 C          22.5203   42.0460  -10.4164 C.3     1  UNL1        0.0745
     26 C          21.0262   41.6049  -10.4150 C.3     1  UNL1       -0.0143
     27 C          20.2828   41.4695  -11.7763 C.3     1  UNL1        0.0351
     28 C          20.5858   40.1636  -12.5272 C.3     1  UNL1       -0.0540
     29 C          18.7721   41.6949  -11.6218 C.2     1  UNL1        0.2159
     30 O          18.2154   42.5525  -12.3077 O.2     1  UNL1       -0.2755
     31 N          18.1481   40.9599  -10.6861 N.am    1  UNL1       -0.3151
     32 C          16.8509   41.2223  -10.0629 C.3     1  UNL1        0.0116
     33 C          15.6745   41.4477  -11.0336 C.3     1  UNL1       -0.0376
     34 C          14.3458   41.6314  -10.2820 C.3     1  UNL1       -0.0545
     35 C          13.2506   42.2690  -11.1431 C.3     1  UNL1       -0.0652
     36 O          22.8603   42.5754  -11.6863 O.3     1  UNL1       -0.3899
     37 H          23.3281   40.0636  -10.4961 H       1  UNL1        0.0527
     38 H          22.5995   42.8862   -9.7258 H       1  UNL1        0.0612
     39 H          20.5911   42.2795  -12.4295 H       1  UNL1        0.0392
     40 H          29.5119   48.8570  -18.0398 H       1  UNL1        0.0230
     41 H          28.7495   49.5650  -16.6214 H       1  UNL1        0.0230
     42 H          27.8100   48.5482  -17.7092 H       1  UNL1        0.0230
     43 H          30.1767   47.5954  -16.0039 H       1  UNL1        0.0263
     44 H          29.2599   46.5758  -17.0790 H       1  UNL1        0.0263
     45 H          27.1875   47.0361  -15.6945 H       1  UNL1        0.0280
     46 H          28.1563   48.0012  -14.6071 H       1  UNL1        0.0280
     47 H          29.5613   45.9947  -14.0645 H       1  UNL1        0.0461
     48 H          28.6136   45.0322  -15.1841 H       1  UNL1        0.0461
     49 H          26.9018   46.2835  -13.2178 H       1  UNL1        0.1475
     50 H          25.8870   44.8259  -11.5787 H       1  UNL1        0.0659
     51 H          27.7049   40.9500  -11.0395 H       1  UNL1        0.0678
     52 H          31.2252   40.9496  -14.0334 H       1  UNL1        0.0660
     53 H          31.0814   42.6455  -13.6117 H       1  UNL1        0.0660
     54 H          29.9666   41.9132  -14.7855 H       1  UNL1        0.0660
     55 H          25.3008   40.7835  -11.1886 H       1  UNL1        0.1494
     56 H          24.4077   39.8801   -8.2882 H       1  UNL1        0.0332
     57 H          24.0240   41.5292   -7.9056 H       1  UNL1        0.0332
     58 H          22.2600   38.3410   -8.9305 H       1  UNL1        0.0620
     59 H          20.0605   37.6789   -7.9645 H       1  UNL1        0.0618
     60 H          18.9700   39.0954   -6.2446 H       1  UNL1        0.0618
     61 H          20.0603   41.2107   -5.5118 H       1  UNL1        0.0618
     62 H          22.1959   41.9300   -6.5257 H       1  UNL1        0.0620
     63 H          20.4931   42.3326   -9.8018 H       1  UNL1        0.0298
     64 H          20.9018   40.6673   -9.8869 H       1  UNL1        0.0298
     65 H          21.6519   40.0676  -12.7363 H       1  UNL1        0.0237
     66 H          20.0608   40.1500  -13.4842 H       1  UNL1        0.0237
     67 H          20.2791   39.2851  -11.9604 H       1  UNL1        0.0237
     68 H          18.7097   40.2593  -10.2224 H       1  UNL1        0.1487
     69 H          16.9618   42.0873   -9.4056 H       1  UNL1        0.0462
     70 H          16.6258   40.3753   -9.4113 H       1  UNL1        0.0462
     71 H          15.5954   40.6088  -11.7260 H       1  UNL1        0.0280
     72 H          15.8543   42.3389  -11.6313 H       1  UNL1        0.0280
     73 H          14.5023   42.2629   -9.4064 H       1  UNL1        0.0263
     74 H          14.0044   40.6679   -9.9005 H       1  UNL1        0.0263
     75 H          12.3178   42.3338  -10.5813 H       1  UNL1        0.0230
     76 H          13.0554   41.6862  -12.0400 H       1  UNL1        0.0230
     77 H          13.5251   43.2766  -11.4502 H       1  UNL1        0.0230
     78 H          23.1738   41.8678  -12.2399 H       1  UNL1        0.2099
@<TRIPOS>BOND
     1     1     2    1
     2     1    40    1
     3     1    41    1
     4     1    42    1
     5     2     3    1
     6     2    43    1
     7     2    44    1
     8     3     4    1
     9     3    45    1
    10     3    46    1
    11     4     5    1
    12     4    47    1
    13     4    48    1
    14     5     6    1
    15     5    49    1
    16     6    11   ar
    17     6     7   ar
    18     7     8   ar
    19     7    50    1
    20     8     9   ar
    21     8    14    1
    22     9    10   ar
    23     9    51    1
    24    10    11   ar
    25    10    12    1
    26    12    13    1
    27    13    52    1
    28    13    53    1
    29    13    54    1
    30    14    15    2
    31    14    16   am
    32    16    17    1
    33    16    55    1
    34    17    37    1
    35    17    18    1
    36    17    25    1
    37    18    19    1
    38    18    56    1
    39    18    57    1
    40    19    24   ar
    41    19    20   ar
    42    20    21   ar
    43    20    58    1
    44    21    22   ar
    45    21    59    1
    46    22    23   ar
    47    22    60    1
    48    23    24   ar
    49    23    61    1
    50    24    62    1
    51    25    38    1
    52    25    26    1
    53    25    36    1
    54    26    27    1
    55    26    63    1
    56    26    64    1
    57    27    39    1
    58    27    28    1
    59    27    29    1
    60    28    65    1
    61    28    66    1
    62    28    67    1
    63    29    30    2
    64    29    31   am
    65    31    32    1
    66    31    68    1
    67    32    33    1
    68    32    69    1
    69    32    70    1
    70    33    34    1
    71    33    71    1
    72    33    72    1
    73    34    35    1
    74    34    73    1
    75    34    74    1
    76    35    75    1
    77    35    76    1
    78    35    77    1
    79    36    78    1
