@<TRIPOS>MOLECULE
BACE_9.smi:1
 88 90 0 0 0
SMALL
GASTEIGER
****
Structure written by MMmdl.
@<TRIPOS>ATOM
      1 C          24.3052   43.7489  -12.5998 C.3     1  UNL1       -0.0624
      2 C          23.4882   43.9570  -11.3160 C.3     1  UNL1       -0.0421
      3 C          22.5091   45.1359  -11.5120 C.3     1  UNL1       -0.0504
      4 C          21.5043   45.3324  -10.3664 C.3     1  UNL1       -0.0528
      5 C          20.4423   46.3984  -10.6861 C.3     1  UNL1       -0.0530
      6 C          19.5659   46.7628   -9.4771 C.3     1  UNL1       -0.0530
      7 C          18.5478   45.6720   -9.0927 C.3     1  UNL1       -0.0516
      8 C          17.8885   45.9036   -7.7179 C.3     1  UNL1       -0.0375
      9 C          18.6020   45.1773   -6.5652 C.3     1  UNL1        0.0091
     10 N          19.9639   45.6498   -6.3657 N.pl3   1  UNL1       -0.3438
     11 C          20.9164   44.7305   -5.9075 C.ar    1  UNL1        0.0282
     12 C          20.5916   43.6946   -5.0061 C.ar    1  UNL1       -0.0355
     13 C          21.5835   42.8068   -4.5448 C.ar    1  UNL1       -0.0195
     14 C          22.9105   42.9435   -4.9985 C.ar    1  UNL1       -0.0442
     15 C          23.2408   43.9487   -5.9328 C.ar    1  UNL1        0.0388
     16 C          22.2447   44.8532   -6.3624 C.ar    1  UNL1       -0.0287
     17 C          24.6506   44.0852   -6.4253 C.2     1  UNL1        0.2444
     18 O          25.5663   44.3054   -5.6407 O.2     1  UNL1       -0.2702
     19 N          24.8917   43.9426   -7.7383 N.am    1  UNL1       -0.3058
     20 C          24.0202   43.4297   -8.7986 C.3     1  UNL1        0.0545
     21 C          24.4432   44.1413  -10.1086 C.3     1  UNL1       -0.0293
     22 C          24.0866   41.8654   -8.7970 C.3     1  UNL1        0.1130
     23 C          22.7264   41.2143   -8.4673 C.3     1  UNL1       -0.0050
     24 N          22.8601   39.7478   -8.3306 N.4     1  UNL1        0.2321
     25 C          21.7273   39.0439   -7.6881 C.3     1  UNL1       -0.0076
     26 C          20.4132   39.1426   -8.4493 C.ar    1  UNL1       -0.0027
     27 C          20.3665   38.9712   -9.8515 C.ar    1  UNL1       -0.0535
     28 C          19.1357   39.0487  -10.5298 C.ar    1  UNL1       -0.0611
     29 C          17.9446   39.2680   -9.8130 C.ar    1  UNL1       -0.0583
     30 C          17.9722   39.4030   -8.4068 C.ar    1  UNL1       -0.0444
     31 C          19.2135   39.3583   -7.7366 C.ar    1  UNL1       -0.0501
     32 C          16.6856   39.5860   -7.6030 C.3     1  UNL1       -0.0215
     33 C          15.5671   38.6210   -8.0391 C.3     1  UNL1       -0.0586
     34 C          16.2100   41.0475   -7.6300 C.3     1  UNL1       -0.0586
     35 O          24.5458   41.3492  -10.0345 O.3     1  UNL1       -0.3847
     36 C          21.1988   41.7223   -3.5621 C.3     1  UNL1        0.0724
     37 O          20.8829   42.2791   -2.2983 O.3     1  UNL1       -0.3784
     38 C          20.0380   41.4469   -1.5275 C.3     1  UNL1        0.0369
     39 H          22.8975   43.0514  -11.1718 H       1  UNL1        0.0299
     40 H          22.9945   43.7301   -8.5984 H       1  UNL1        0.0526
     41 H          24.8057   41.5384   -8.0452 H       1  UNL1        0.0666
     42 H          24.8753   44.6414  -12.8632 H       1  UNL1        0.0232
     43 H          23.6600   43.4980  -13.4407 H       1  UNL1        0.0232
     44 H          25.0087   42.9236  -12.4821 H       1  UNL1        0.0232
     45 H          23.0694   46.0601  -11.6626 H       1  UNL1        0.0268
     46 H          21.9547   44.9769  -12.4371 H       1  UNL1        0.0268
     47 H          21.0193   44.3824  -10.1424 H       1  UNL1        0.0265
     48 H          22.0435   45.6285   -9.4667 H       1  UNL1        0.0265
     49 H          20.9500   47.3025  -11.0253 H       1  UNL1        0.0265
     50 H          19.8188   46.0694  -11.5178 H       1  UNL1        0.0265
     51 H          20.2159   47.0092   -8.6398 H       1  UNL1        0.0265
     52 H          19.0182   47.6797   -9.7013 H       1  UNL1        0.0265
     53 H          17.7722   45.6445   -9.8594 H       1  UNL1        0.0266
     54 H          19.0067   44.6841   -9.1057 H       1  UNL1        0.0266
     55 H          17.7993   46.9700   -7.5058 H       1  UNL1        0.0280
     56 H          16.8677   45.5211   -7.7571 H       1  UNL1        0.0280
     57 H          18.0597   45.3504   -5.6401 H       1  UNL1        0.0461
     58 H          18.5874   44.1007   -6.7517 H       1  UNL1        0.0461
     59 H          20.2906   46.3258   -7.0408 H       1  UNL1        0.1461
     60 H          19.5853   43.5785   -4.6336 H       1  UNL1        0.0639
     61 H          23.6735   42.2711   -4.6337 H       1  UNL1        0.0628
     62 H          22.5047   45.6435   -7.0524 H       1  UNL1        0.0643
     63 H          25.8516   44.0978   -8.0098 H       1  UNL1        0.1494
     64 H          25.4480   43.8010  -10.3698 H       1  UNL1        0.0286
     65 H          24.5607   45.2101   -9.9231 H       1  UNL1        0.0286
     66 H          22.3517   41.6180   -7.5272 H       1  UNL1        0.0840
     67 H          21.9886   41.4542   -9.2350 H       1  UNL1        0.0840
     68 H          23.0243   39.3482   -9.2439 H       1  UNL1        0.2018
     69 H          21.9845   37.9892   -7.5961 H       1  UNL1        0.0866
     70 H          21.6036   39.4261   -6.6729 H       1  UNL1        0.0866
     71 H          21.2661   38.7830  -10.4167 H       1  UNL1        0.0622
     72 H          19.0990   38.9275  -11.6047 H       1  UNL1        0.0618
     73 H          17.0069   39.3123  -10.3472 H       1  UNL1        0.0620
     74 H          19.2374   39.4668   -6.6611 H       1  UNL1        0.0625
     75 H          16.9130   39.3371   -6.5647 H       1  UNL1        0.0343
     76 H          15.9192   37.5864   -8.0403 H       1  UNL1        0.0235
     77 H          15.1945   38.8496   -9.0371 H       1  UNL1        0.0235
     78 H          14.7194   38.6755   -7.3534 H       1  UNL1        0.0235
     79 H          16.9787   41.7185   -7.2422 H       1  UNL1        0.0235
     80 H          15.3215   41.1790   -7.0092 H       1  UNL1        0.0235
     81 H          15.9612   41.3686   -8.6416 H       1  UNL1        0.0235
     82 H          24.8790   40.4667   -9.9328 H       1  UNL1        0.2101
     83 H          20.3415   41.1891   -3.9814 H       1  UNL1        0.0610
     84 H          22.0038   40.9940   -3.4509 H       1  UNL1        0.0610
     85 H          19.8781   41.8847   -0.5428 H       1  UNL1        0.0524
     86 H          20.4590   40.4500   -1.3939 H       1  UNL1        0.0524
     87 H          19.0678   41.3498   -2.0124 H       1  UNL1        0.0524
     88 H          23.6791   39.5629   -7.7721 H       1  UNL1        0.2018
@<TRIPOS>BOND
     1     1     2    1
     2     1    42    1
     3     1    43    1
     4     1    44    1
     5     2    39    1
     6     2    21    1
     7     2     3    1
     8     3     4    1
     9     3    45    1
    10     3    46    1
    11     4     5    1
    12     4    47    1
    13     4    48    1
    14     5     6    1
    15     5    49    1
    16     5    50    1
    17     6     7    1
    18     6    51    1
    19     6    52    1
    20     7     8    1
    21     7    53    1
    22     7    54    1
    23     8     9    1
    24     8    55    1
    25     8    56    1
    26     9    10    1
    27     9    57    1
    28     9    58    1
    29    10    11    1
    30    10    59    1
    31    11    16   ar
    32    11    12   ar
    33    12    13   ar
    34    12    60    1
    35    13    14   ar
    36    13    36    1
    37    14    15   ar
    38    14    61    1
    39    15    16   ar
    40    15    17    1
    41    16    62    1
    42    17    18    2
    43    17    19   am
    44    19    20    1
    45    19    63    1
    46    20    40    1
    47    20    21    1
    48    20    22    1
    49    21    64    1
    50    21    65    1
    51    22    41    1
    52    22    23    1
    53    22    35    1
    54    23    24    1
    55    23    66    1
    56    23    67    1
    57    24    25    1
    58    24    68    1
    59    24    88    1
    60    25    26    1
    61    25    69    1
    62    25    70    1
    63    26    31   ar
    64    26    27   ar
    65    27    28   ar
    66    27    71    1
    67    28    29   ar
    68    28    72    1
    69    29    30   ar
    70    29    73    1
    71    30    31   ar
    72    30    32    1
    73    31    74    1
    74    32    33    1
    75    32    34    1
    76    32    75    1
    77    33    76    1
    78    33    77    1
    79    33    78    1
    80    34    79    1
    81    34    80    1
    82    34    81    1
    83    35    82    1
    84    36    37    1
    85    36    83    1
    86    36    84    1
    87    37    38    1
    88    38    85    1
    89    38    86    1
    90    38    87    1
