@<TRIPOS>MOLECULE
BACE_1.smi:1
 87 88 0 0 0
SMALL
GASTEIGER
****
Structure written by MMmdl.
@<TRIPOS>ATOM
      1 C          15.4739   39.8776   -6.6073 C.3     1  UNL1       -0.0652
      2 C          14.4741   38.9691   -7.3413 C.3     1  UNL1       -0.0545
      3 C          14.7262   38.8649   -8.8559 C.3     1  UNL1       -0.0376
      4 C          14.3380   40.1445   -9.6236 C.3     1  UNL1        0.0116
      5 N          14.9609   41.3465   -9.0833 N.am    1  UNL1       -0.3151
      6 C          15.1498   42.4958   -9.7491 C.2     1  UNL1        0.2159
      7 O          14.6714   42.7124  -10.8658 O.2     1  UNL1       -0.2755
      8 C          16.0090   43.5617   -9.0470 C.3     1  UNL1        0.0351
      9 C          15.0709   44.6144   -8.4372 C.3     1  UNL1       -0.0540
     10 C          17.0424   44.2221  -10.0057 C.3     1  UNL1       -0.0143
     11 C          17.6113   43.3598  -11.1660 C.3     1  UNL1        0.0742
     12 C          18.4897   42.1498  -10.7308 C.3     1  UNL1        0.0496
     13 C          17.7547   41.1939   -9.7524 C.3     1  UNL1       -0.0295
     14 C          18.5927   39.9810   -9.2590 C.3     1  UNL1       -0.0421
     15 C          18.0499   39.4309   -7.9206 C.3     1  UNL1       -0.0504
     16 C          18.9349   38.3696   -7.2269 C.3     1  UNL1       -0.0528
     17 C          20.3794   38.7905   -6.9036 C.3     1  UNL1       -0.0516
     18 C          20.4887   40.0027   -5.9703 C.3     1  UNL1       -0.0371
     19 C          21.9548   40.3332   -5.6369 C.3     1  UNL1        0.0150
     20 N          22.1035   41.6515   -5.0054 N.am    1  UNL1       -0.2978
     21 C          22.5033   42.7841   -5.6428 C.2     1  UNL1        0.2467
     22 O          22.6744   43.8540   -5.0577 O.2     1  UNL1       -0.2700
     23 C          22.7941   42.7402   -7.1173 C.ar    1  UNL1        0.0411
     24 C          21.7649   42.5416   -8.0607 C.ar    1  UNL1       -0.0373
     25 C          22.0444   42.5776   -9.4508 C.ar    1  UNL1        0.0409
     26 C          23.3726   42.7980   -9.8825 C.ar    1  UNL1       -0.0078
     27 C          24.4087   43.0243   -8.9470 C.ar    1  UNL1        0.1219
     28 C          24.1036   42.9944   -7.5716 C.ar    1  UNL1       -0.0078
     29 O          25.7214   43.2821   -9.2848 O.3     1  UNL1       -0.4922
     30 C          26.0809   43.3482  -10.6595 C.3     1  UNL1        0.0868
     31 C          26.4842   41.9755  -11.2123 C.3     1  UNL1       -0.0307
     32 C          20.9633   42.3262  -10.4669 C.2     1  UNL1        0.2445
     33 O          21.2326   41.8854  -11.5855 O.2     1  UNL1       -0.2702
     34 N          19.7130   42.6150  -10.0701 N.am    1  UNL1       -0.3060
     35 C          21.8545   41.6577   -3.5542 C.3     1  UNL1        0.0121
     36 C          20.6207   40.8306   -3.1542 C.3     1  UNL1       -0.0493
     37 C          18.6851   38.8923  -10.3415 C.3     1  UNL1       -0.0624
     38 O          16.5687   42.9469  -12.0303 O.3     1  UNL1       -0.3899
     39 H          16.5429   43.0924   -8.2202 H       1  UNL1        0.0392
     40 H          18.2388   44.0151  -11.7720 H       1  UNL1        0.0612
     41 H          18.7537   41.5824  -11.6233 H       1  UNL1        0.0524
     42 H          19.6038   40.3182   -9.0520 H       1  UNL1        0.0299
     43 H          15.2979   39.8475   -5.5317 H       1  UNL1        0.0230
     44 H          15.3778   40.9209   -6.9126 H       1  UNL1        0.0230
     45 H          16.5036   39.5646   -6.7799 H       1  UNL1        0.0230
     46 H          14.5331   37.9699   -6.9064 H       1  UNL1        0.0263
     47 H          13.4579   39.3197   -7.1542 H       1  UNL1        0.0263
     48 H          15.7750   38.6156   -9.0193 H       1  UNL1        0.0280
     49 H          14.1486   38.0252   -9.2455 H       1  UNL1        0.0280
     50 H          14.6413   40.0520  -10.6674 H       1  UNL1        0.0462
     51 H          13.2577   40.2880   -9.6262 H       1  UNL1        0.0462
     52 H          15.3768   41.2679   -8.1655 H       1  UNL1        0.1487
     53 H          14.3034   44.1557   -7.8115 H       1  UNL1        0.0237
     54 H          14.5634   45.1737   -9.2223 H       1  UNL1        0.0237
     55 H          15.6145   45.3201   -7.8128 H       1  UNL1        0.0237
     56 H          16.6023   45.1248  -10.4346 H       1  UNL1        0.0298
     57 H          17.8838   44.5924   -9.4198 H       1  UNL1        0.0298
     58 H          17.4403   41.7805   -8.8884 H       1  UNL1        0.0286
     59 H          16.8306   40.8278  -10.2014 H       1  UNL1        0.0286
     60 H          17.8986   40.2563   -7.2238 H       1  UNL1        0.0268
     61 H          17.0569   39.0104   -8.0846 H       1  UNL1        0.0268
     62 H          18.4505   38.0689   -6.2975 H       1  UNL1        0.0265
     63 H          18.9697   37.4737   -7.8448 H       1  UNL1        0.0265
     64 H          20.8852   37.9454   -6.4389 H       1  UNL1        0.0266
     65 H          20.9289   38.9910   -7.8242 H       1  UNL1        0.0266
     66 H          19.9974   40.8613   -6.4223 H       1  UNL1        0.0280
     67 H          19.9410   39.8032   -5.0488 H       1  UNL1        0.0280
     68 H          22.3366   39.5744   -4.9543 H       1  UNL1        0.0464
     69 H          22.5784   40.2457   -6.5257 H       1  UNL1        0.0464
     70 H          20.7596   42.3794   -7.7087 H       1  UNL1        0.0633
     71 H          23.5792   42.7811  -10.9415 H       1  UNL1        0.0662
     72 H          24.8936   43.1715   -6.8585 H       1  UNL1        0.0662
     73 H          25.2917   43.8022  -11.2576 H       1  UNL1        0.0694
     74 H          26.9335   44.0216  -10.7314 H       1  UNL1        0.0694
     75 H          26.8804   42.0662  -12.2239 H       1  UNL1        0.0262
     76 H          25.6303   41.3042  -11.2627 H       1  UNL1        0.0262
     77 H          27.2565   41.5069  -10.6028 H       1  UNL1        0.0262
     78 H          19.6008   43.0123   -9.1499 H       1  UNL1        0.1494
     79 H          22.7370   41.2767   -3.0372 H       1  UNL1        0.0462
     80 H          21.7191   42.6778   -3.1886 H       1  UNL1        0.0462
     81 H          20.5193   40.8084   -2.0703 H       1  UNL1        0.0245
     82 H          20.6937   39.7969   -3.4896 H       1  UNL1        0.0245
     83 H          19.7041   41.2569   -3.5640 H       1  UNL1        0.0245
     84 H          17.7067   38.4522  -10.5354 H       1  UNL1        0.0232
     85 H          19.3589   38.0860  -10.0514 H       1  UNL1        0.0232
     86 H          19.0609   39.2917  -11.2845 H       1  UNL1        0.0232
     87 H          16.0241   42.3421  -11.5478 H       1  UNL1        0.2099
@<TRIPOS>BOND
     1     1     2    1
     2     1    43    1
     3     1    44    1
     4     1    45    1
     5     2     3    1
     6     2    46    1
     7     2    47    1
     8     3     4    1
     9     3    48    1
    10     3    49    1
    11     4     5    1
    12     4    50    1
    13     4    51    1
    14     5     6   am
    15     5    52    1
    16     6     7    2
    17     6     8    1
    18     8    39    1
    19     8     9    1
    20     8    10    1
    21     9    53    1
    22     9    54    1
    23     9    55    1
    24    10    11    1
    25    10    56    1
    26    10    57    1
    27    11    40    1
    28    11    12    1
    29    11    38    1
    30    12    41    1
    31    12    34    1
    32    12    13    1
    33    13    14    1
    34    13    58    1
    35    13    59    1
    36    14    42    1
    37    14    15    1
    38    14    37    1
    39    15    16    1
    40    15    60    1
    41    15    61    1
    42    16    17    1
    43    16    62    1
    44    16    63    1
    45    17    18    1
    46    17    64    1
    47    17    65    1
    48    18    19    1
    49    18    66    1
    50    18    67    1
    51    19    20    1
    52    19    68    1
    53    19    69    1
    54    20    21   am
    55    20    35    1
    56    21    22    2
    57    21    23    1
    58    23    28   ar
    59    23    24   ar
    60    24    25   ar
    61    24    70    1
    62    25    26   ar
    63    25    32    1
    64    26    27   ar
    65    26    71    1
    66    27    28   ar
    67    27    29    1
    68    28    72    1
    69    29    30    1
    70    30    31    1
    71    30    73    1
    72    30    74    1
    73    31    75    1
    74    31    76    1
    75    31    77    1
    76    32    33    2
    77    32    34   am
    78    34    78    1
    79    35    36    1
    80    35    79    1
    81    35    80    1
    82    36    81    1
    83    36    82    1
    84    36    83    1
    85    37    84    1
    86    37    85    1
    87    37    86    1
    88    38    87    1
