@<TRIPOS>MOLECULE
BACE_12.smi:1
 78 81 0 0 0
SMALL
GASTEIGER
****
Structure written by MMmdl.
@<TRIPOS>ATOM
      1 C          31.4851   42.3165  -12.4317 C.3     1  UNL1       -0.0586
      2 C          30.1341   42.0188  -13.1030 C.3     1  UNL1       -0.0215
      3 C          30.1842   42.3067  -14.6120 C.3     1  UNL1       -0.0586
      4 C          28.9953   42.7527  -12.4101 C.ar    1  UNL1       -0.0445
      5 C          28.9147   44.1628  -12.4485 C.ar    1  UNL1       -0.0583
      6 C          27.8593   44.8309  -11.7962 C.ar    1  UNL1       -0.0612
      7 C          26.8828   44.0954  -11.0954 C.ar    1  UNL1       -0.0573
      8 C          26.9528   42.6869  -11.0475 C.ar    1  UNL1       -0.0333
      9 C          28.0122   42.0265  -11.7042 C.ar    1  UNL1       -0.0539
     10 C          25.8952   41.8890  -10.3057 C.3     1  UNL1        0.0213
     11 N          24.5649   42.1524  -10.8399 N.3     1  UNL1       -0.3095
     12 C          23.5111   41.3443  -10.2397 C.3     1  UNL1        0.0240
     13 C          22.1160   41.8225  -10.6966 C.3     1  UNL1        0.0862
     14 C          20.9919   41.2786   -9.7836 C.3     1  UNL1        0.0545
     15 C          20.9033   39.7318   -9.7839 C.3     1  UNL1       -0.0067
     16 C          19.7876   39.2122   -8.9026 C.ar    1  UNL1       -0.0453
     17 C          19.8980   39.3509   -7.5037 C.ar    1  UNL1       -0.0585
     18 C          18.8385   38.9505   -6.6733 C.ar    1  UNL1       -0.0612
     19 C          17.6704   38.4198   -7.2414 C.ar    1  UNL1       -0.0586
     20 C          17.5654   38.2275   -8.6329 C.ar    1  UNL1       -0.0471
     21 C          18.6304   38.6324   -9.4667 C.ar    1  UNL1       -0.0553
     22 C          16.3088   37.5925   -9.2096 C.3     1  UNL1       -0.0276
     23 C          15.0968   38.5406   -9.2165 C.3     1  UNL1       -0.0476
     24 C          15.1950   39.6706  -10.2538 C.3     1  UNL1       -0.0371
     25 C          14.4493   40.9314   -9.7925 C.3     1  UNL1        0.0104
     26 N          14.5082   42.0169  -10.7617 N.pl3   1  UNL1       -0.3289
     27 C          15.6176   42.8642  -10.8407 C.ar    1  UNL1        0.1232
     28 C          16.8706   42.5623  -10.2638 C.ar    1  UNL1       -0.0095
     29 C          17.9457   43.4486  -10.4743 C.ar    1  UNL1        0.0450
     30 C          17.7098   44.6361  -11.1923 C.ar    1  UNL1        0.0122
     31 C          16.4180   44.8671  -11.7157 C.ar    1  UNL1        0.2168
     32 N          15.4070   43.9887  -11.5542 N.ar    1  UNL1       -0.1981
     33 O          16.0547   45.9731  -12.4533 O.3     1  UNL1       -0.4796
     34 C          17.0671   46.9255  -12.7538 C.3     1  UNL1        0.0804
     35 C          19.3119   43.1369   -9.9450 C.2     1  UNL1        0.2446
     36 O          20.0305   44.0173   -9.4701 O.2     1  UNL1       -0.2702
     37 N          19.6928   41.8622  -10.1185 N.am    1  UNL1       -0.3057
     38 O          21.8587   41.3909  -12.0208 O.3     1  UNL1       -0.3887
     39 H          22.1074   42.9126  -10.6815 H       1  UNL1        0.0624
     40 H          21.2194   41.5963   -8.7647 H       1  UNL1        0.0527
     41 H          31.4602   42.0565  -11.3734 H       1  UNL1        0.0235
     42 H          31.7450   43.3719  -12.5130 H       1  UNL1        0.0235
     43 H          32.2907   41.7482  -12.8945 H       1  UNL1        0.0235
     44 H          29.9498   40.9496  -12.9974 H       1  UNL1        0.0343
     45 H          29.2592   42.0025  -15.0982 H       1  UNL1        0.0235
     46 H          30.9910   41.7475  -15.0901 H       1  UNL1        0.0235
     47 H          30.3463   43.3655  -14.8213 H       1  UNL1        0.0235
     48 H          29.6624   44.7350  -12.9769 H       1  UNL1        0.0620
     49 H          27.8017   45.9086  -11.8303 H       1  UNL1        0.0618
     50 H          26.0746   44.6105  -10.5976 H       1  UNL1        0.0621
     51 H          28.0702   40.9488  -11.6683 H       1  UNL1        0.0623
     52 H          26.1297   40.8250  -10.3729 H       1  UNL1        0.0473
     53 H          25.9322   42.1546   -9.2455 H       1  UNL1        0.0473
     54 H          24.5788   41.9559  -11.8391 H       1  UNL1        0.1223
     55 H          23.6578   40.2886  -10.4695 H       1  UNL1        0.0450
     56 H          23.5701   41.4352   -9.1552 H       1  UNL1        0.0450
     57 H          20.7561   39.3564  -10.7971 H       1  UNL1        0.0332
     58 H          21.8372   39.2921   -9.4325 H       1  UNL1        0.0332
     59 H          20.7784   39.7946   -7.0614 H       1  UNL1        0.0620
     60 H          18.9025   39.0825   -5.6050 H       1  UNL1        0.0618
     61 H          16.8534   38.1510   -6.5910 H       1  UNL1        0.0620
     62 H          18.5466   38.5135  -10.5372 H       1  UNL1        0.0623
     63 H          16.5085   37.2106  -10.2113 H       1  UNL1        0.0313
     64 H          16.0717   36.7227   -8.5958 H       1  UNL1        0.0313
     65 H          14.1856   37.9705   -9.4050 H       1  UNL1        0.0269
     66 H          14.9752   38.9534   -8.2125 H       1  UNL1        0.0269
     67 H          16.2398   39.8946  -10.4458 H       1  UNL1        0.0280
     68 H          14.7944   39.3452  -11.2125 H       1  UNL1        0.0280
     69 H          13.3965   40.6878   -9.6406 H       1  UNL1        0.0461
     70 H          14.8291   41.2757   -8.8287 H       1  UNL1        0.0461
     71 H          13.6216   42.4041  -11.0468 H       1  UNL1        0.1475
     72 H          17.0250   41.6777   -9.6697 H       1  UNL1        0.0659
     73 H          18.5257   45.3314  -11.3360 H       1  UNL1        0.0678
     74 H          16.6450   47.7157  -13.3763 H       1  UNL1        0.0660
     75 H          17.8921   46.4721  -13.3098 H       1  UNL1        0.0660
     76 H          17.4553   47.3893  -11.8436 H       1  UNL1        0.0660
     77 H          19.0230   41.2366  -10.5398 H       1  UNL1        0.1494
     78 H          22.6902   41.1905  -12.4423 H       1  UNL1        0.2099
@<TRIPOS>BOND
     1     1     2    1
     2     1    41    1
     3     1    42    1
     4     1    43    1
     5     2     3    1
     6     2     4    1
     7     2    44    1
     8     3    45    1
     9     3    46    1
    10     3    47    1
    11     4     9   ar
    12     4     5   ar
    13     5     6   ar
    14     5    48    1
    15     6     7   ar
    16     6    49    1
    17     7     8   ar
    18     7    50    1
    19     8     9   ar
    20     8    10    1
    21     9    51    1
    22    10    11    1
    23    10    52    1
    24    10    53    1
    25    11    12    1
    26    11    54    1
    27    12    13    1
    28    12    55    1
    29    12    56    1
    30    13    39    1
    31    13    14    1
    32    13    38    1
    33    14    40    1
    34    14    37    1
    35    14    15    1
    36    15    16    1
    37    15    57    1
    38    15    58    1
    39    16    21   ar
    40    16    17   ar
    41    17    18   ar
    42    17    59    1
    43    18    19   ar
    44    18    60    1
    45    19    20   ar
    46    19    61    1
    47    20    21   ar
    48    20    22    1
    49    21    62    1
    50    22    23    1
    51    22    63    1
    52    22    64    1
    53    23    24    1
    54    23    65    1
    55    23    66    1
    56    24    25    1
    57    24    67    1
    58    24    68    1
    59    25    26    1
    60    25    69    1
    61    25    70    1
    62    26    27    1
    63    26    71    1
    64    27    32   ar
    65    27    28   ar
    66    28    29   ar
    67    28    72    1
    68    29    30   ar
    69    29    35    1
    70    30    31   ar
    71    30    73    1
    72    31    32   ar
    73    31    33    1
    74    33    34    1
    75    34    74    1
    76    34    75    1
    77    34    76    1
    78    35    36    2
    79    35    37   am
    80    37    77    1
    81    38    78    1
