@<TRIPOS>MOLECULE
BACE_16.smi:1
 84 87 0 0 0
SMALL
GASTEIGER
****
Structure written by MMmdl.
@<TRIPOS>ATOM
      1 C          22.5729   42.9816   -3.3355 C.3     1  UNL1       -0.0586
      2 C          21.1592   42.5409   -3.7418 C.3     1  UNL1       -0.0215
      3 C          20.6940   41.3129   -2.9411 C.3     1  UNL1       -0.0586
      4 C          21.0464   42.2983   -5.2426 C.ar    1  UNL1       -0.0445
      5 C          20.0741   42.9885   -5.9976 C.ar    1  UNL1       -0.0583
      6 C          19.9183   42.7207   -7.3711 C.ar    1  UNL1       -0.0612
      7 C          20.7441   41.7723   -8.0013 C.ar    1  UNL1       -0.0573
      8 C          21.7530   41.1059   -7.2680 C.ar    1  UNL1       -0.0333
      9 C          21.8871   41.3638   -5.8869 C.ar    1  UNL1       -0.0539
     10 C          22.6811   40.0913   -7.9206 C.3     1  UNL1        0.0213
     11 N          22.8598   40.2199   -9.3725 N.3     1  UNL1       -0.3095
     12 C          23.3948   41.4969   -9.8799 C.3     1  UNL1        0.0240
     13 C          24.8101   41.8254   -9.3662 C.3     1  UNL1        0.0862
     14 C          25.2173   43.3090   -9.6171 C.3     1  UNL1        0.0545
     15 C          26.1058   43.5840  -10.8679 C.3     1  UNL1       -0.0066
     16 C          27.6128   43.4492  -10.6487 C.ar    1  UNL1       -0.0421
     17 C          28.2907   42.2820  -11.0583 C.ar    1  UNL1       -0.0583
     18 C          29.6720   42.1503  -10.8367 C.ar    1  UNL1       -0.0580
     19 C          30.3895   43.1825  -10.1988 C.ar    1  UNL1       -0.0199
     20 C          29.7332   44.3789   -9.8105 C.ar    1  UNL1        0.1208
     21 C          28.3498   44.4988  -10.0580 C.ar    1  UNL1       -0.0167
     22 O          30.3546   45.4630   -9.2244 O.3     1  UNL1       -0.4920
     23 C          31.6076   45.2947   -8.5677 C.3     1  UNL1        0.0897
     24 C          31.4005   44.8009   -7.1266 C.3     1  UNL1       -0.0156
     25 C          30.8656   45.9154   -6.2066 C.3     1  UNL1       -0.0156
     26 C          30.5053   45.4223   -4.7960 C.3     1  UNL1        0.0897
     27 O          29.3791   44.5506   -4.8473 O.3     1  UNL1       -0.4918
     28 C          28.1502   45.1271   -5.0818 C.ar    1  UNL1        0.1247
     29 C          27.3082   44.5063   -6.0220 C.ar    1  UNL1       -0.0076
     30 C          26.0403   45.0421   -6.3299 C.ar    1  UNL1        0.0436
     31 C          25.5936   46.1911   -5.6451 C.ar    1  UNL1       -0.0076
     32 C          26.4208   46.8285   -4.6870 C.ar    1  UNL1        0.1253
     33 C          27.6959   46.2898   -4.4174 C.ar    1  UNL1        0.0218
     34 O          26.0523   47.9543   -3.9835 O.3     1  UNL1       -0.4844
     35 C          24.7976   48.5472   -4.2988 C.3     1  UNL1        0.1470
     36 C          24.5957   49.8390   -3.5039 C.2     1  UNL1        0.1673
     37 O          23.6078   50.5484   -3.6992 O.2     1  UNL1       -0.2941
     38 C          25.6453   50.2358   -2.4704 C.3     1  UNL1       -0.0026
     39 C          25.1654   44.3916   -7.3605 C.2     1  UNL1        0.2446
     40 O          23.9387   44.4118   -7.2615 O.2     1  UNL1       -0.2702
     41 N          25.8179   43.8833   -8.4167 N.am    1  UNL1       -0.3057
     42 O          25.6836   40.9499  -10.0395 O.3     1  UNL1       -0.3887
     43 H          24.8597   41.6213   -8.2992 H       1  UNL1        0.0624
     44 H          24.2943   43.8622   -9.7944 H       1  UNL1        0.0527
     45 H          22.8702   43.8783   -3.8798 H       1  UNL1        0.0235
     46 H          23.3185   42.2112   -3.5352 H       1  UNL1        0.0235
     47 H          22.6191   43.2147   -2.2715 H       1  UNL1        0.0235
     48 H          20.4842   43.3586   -3.4876 H       1  UNL1        0.0343
     49 H          19.6664   41.0484   -3.1945 H       1  UNL1        0.0235
     50 H          20.7230   41.5054   -1.8693 H       1  UNL1        0.0235
     51 H          21.3204   40.4413   -3.1394 H       1  UNL1        0.0235
     52 H          19.4153   43.6978   -5.5213 H       1  UNL1        0.0620
     53 H          19.1572   43.2318   -7.9419 H       1  UNL1        0.0618
     54 H          20.6096   41.5672   -9.0535 H       1  UNL1        0.0621
     55 H          22.6326   40.8320   -5.3142 H       1  UNL1        0.0623
     56 H          23.6442   40.1067   -7.4133 H       1  UNL1        0.0473
     57 H          22.2662   39.1048   -7.7116 H       1  UNL1        0.0473
     58 H          23.4602   39.4548   -9.6753 H       1  UNL1        0.1223
     59 H          23.3925   41.4884  -10.9714 H       1  UNL1        0.0450
     60 H          22.7205   42.3065   -9.6014 H       1  UNL1        0.0450
     61 H          25.7931   42.9621  -11.7077 H       1  UNL1        0.0332
     62 H          25.9293   44.6087  -11.1956 H       1  UNL1        0.0332
     63 H          27.7521   41.4753  -11.5325 H       1  UNL1        0.0620
     64 H          30.1794   41.2501  -11.1552 H       1  UNL1        0.0619
     65 H          31.4484   43.0341  -10.0553 H       1  UNL1        0.0654
     66 H          27.8469   45.4110   -9.7710 H       1  UNL1        0.0657
     67 H          32.2985   44.6545   -9.1113 H       1  UNL1        0.0696
     68 H          32.0995   46.2663   -8.5431 H       1  UNL1        0.0696
     69 H          30.7300   43.9411   -7.1232 H       1  UNL1        0.0299
     70 H          32.3505   44.4426   -6.7265 H       1  UNL1        0.0299
     71 H          31.6251   46.6928   -6.1201 H       1  UNL1        0.0299
     72 H          30.0025   46.3959   -6.6649 H       1  UNL1        0.0299
     73 H          31.3434   44.8674   -4.3762 H       1  UNL1        0.0696
     74 H          30.3537   46.2639   -4.1222 H       1  UNL1        0.0696
     75 H          27.6599   43.6160   -6.5222 H       1  UNL1        0.0662
     76 H          24.6110   46.5708   -5.8802 H       1  UNL1        0.0662
     77 H          28.3074   46.7702   -3.6713 H       1  UNL1        0.0691
     78 H          24.7480   48.7853   -5.3611 H       1  UNL1        0.0777
     79 H          23.9871   47.8558   -4.0645 H       1  UNL1        0.0777
     80 H          26.5828   50.4897   -2.9656 H       1  UNL1        0.0307
     81 H          25.8299   49.4137   -1.7780 H       1  UNL1        0.0307
     82 H          25.3102   51.1021   -1.8999 H       1  UNL1        0.0307
     83 H          26.8265   43.9314   -8.4087 H       1  UNL1        0.1494
     84 H          25.3838   40.0560   -9.9216 H       1  UNL1        0.2099
@<TRIPOS>BOND
     1     1     2    1
     2     1    45    1
     3     1    46    1
     4     1    47    1
     5     2     3    1
     6     2     4    1
     7     2    48    1
     8     3    49    1
     9     3    50    1
    10     3    51    1
    11     4     9   ar
    12     4     5   ar
    13     5     6   ar
    14     5    52    1
    15     6     7   ar
    16     6    53    1
    17     7     8   ar
    18     7    54    1
    19     8     9   ar
    20     8    10    1
    21     9    55    1
    22    10    11    1
    23    10    56    1
    24    10    57    1
    25    11    12    1
    26    11    58    1
    27    12    13    1
    28    12    59    1
    29    12    60    1
    30    13    43    1
    31    13    14    1
    32    13    42    1
    33    14    44    1
    34    14    41    1
    35    14    15    1
    36    15    16    1
    37    15    61    1
    38    15    62    1
    39    16    21   ar
    40    16    17   ar
    41    17    18   ar
    42    17    63    1
    43    18    19   ar
    44    18    64    1
    45    19    20   ar
    46    19    65    1
    47    20    21   ar
    48    20    22    1
    49    21    66    1
    50    22    23    1
    51    23    24    1
    52    23    67    1
    53    23    68    1
    54    24    25    1
    55    24    69    1
    56    24    70    1
    57    25    26    1
    58    25    71    1
    59    25    72    1
    60    26    27    1
    61    26    73    1
    62    26    74    1
    63    27    28    1
    64    28    33   ar
    65    28    29   ar
    66    29    30   ar
    67    29    75    1
    68    30    31   ar
    69    30    39    1
    70    31    32   ar
    71    31    76    1
    72    32    33   ar
    73    32    34    1
    74    33    77    1
    75    34    35    1
    76    35    36    1
    77    35    78    1
    78    35    79    1
    79    36    37    2
    80    36    38    1
    81    38    80    1
    82    38    81    1
    83    38    82    1
    84    39    40    2
    85    39    41   am
    86    41    83    1
    87    42    84    1
