@<TRIPOS>MOLECULE
BACE_19.smi:1
 76 77 0 0 0
SMALL
GASTEIGER
****
Structure written by MMmdl.
@<TRIPOS>ATOM
      1 C          20.6750   40.6558   -3.2786 C.3     1  UNL1       -0.0652
      2 C          21.7151   40.3790   -4.3660 C.3     1  UNL1       -0.0545
      3 C          21.0863   39.9970   -5.7178 C.3     1  UNL1       -0.0376
      4 C          22.1431   39.7511   -6.7998 C.3     1  UNL1        0.0116
      5 N          22.8741   40.9105   -7.3013 N.am    1  UNL1       -0.3151
      6 C          22.4604   42.1671   -7.5315 C.2     1  UNL1        0.2159
      7 O          21.4231   42.6558   -7.0950 O.2     1  UNL1       -0.2755
      8 C          23.3408   42.9811   -8.4842 C.3     1  UNL1        0.0351
      9 C          23.6927   44.3436   -7.8588 C.3     1  UNL1       -0.0540
     10 C          22.6733   43.1574   -9.8733 C.3     1  UNL1       -0.0143
     11 C          22.3985   41.8461  -10.6668 C.3     1  UNL1        0.0742
     12 C          21.0696   41.0924  -10.3569 C.3     1  UNL1        0.0493
     13 C          20.8821   39.7558  -11.1341 C.3     1  UNL1       -0.0295
     14 C          19.7151   38.8170  -10.7084 C.3     1  UNL1       -0.0418
     15 C          19.7125   38.4609   -9.2004 C.3     1  UNL1       -0.0464
     16 C          18.5430   37.6226   -8.6340 C.3     1  UNL1       -0.0274
     17 C          17.2201   38.3663   -8.5731 C.ar    1  UNL1       -0.0470
     18 C          16.0654   37.8111   -9.1610 C.ar    1  UNL1       -0.0586
     19 C          14.8817   38.5649   -9.2187 C.ar    1  UNL1       -0.0612
     20 C          14.8604   39.8836   -8.7347 C.ar    1  UNL1       -0.0570
     21 C          15.9888   40.4259   -8.0901 C.ar    1  UNL1       -0.0263
     22 C          17.1547   39.6449   -7.9778 C.ar    1  UNL1       -0.0538
     23 C          15.9233   41.8221   -7.4973 C.3     1  UNL1        0.0907
     24 S          17.2164   42.9732   -8.1598 S.O2    1  UNL1       -0.0263
     25 O          16.9051   44.3405   -7.7106 O.2     1  UNL1       -0.1740
     26 O          18.5507   42.4195   -7.8894 O.2     1  UNL1       -0.1740
     27 C          16.9388   42.9177   -9.9882 C.3     1  UNL1        0.0769
     28 C          18.0855   43.5328  -10.8351 C.3     1  UNL1        0.0520
     29 C          19.1543   42.5079  -11.2521 C.2     1  UNL1        0.2177
     30 O          19.2599   42.1962  -12.4381 O.2     1  UNL1       -0.2755
     31 N          19.9093   41.9845  -10.2702 N.am    1  UNL1       -0.3097
     32 C          18.7271   44.8101  -10.2594 C.3     1  UNL1       -0.0526
     33 C          18.3772   39.3460  -11.2103 C.3     1  UNL1       -0.0623
     34 O          22.4597   42.1500  -12.0405 O.3     1  UNL1       -0.3899
     35 H          24.2806   42.4439   -8.6261 H       1  UNL1        0.0392
     36 H          23.2310   41.1633  -10.4881 H       1  UNL1        0.0612
     37 H          21.1767   40.7719   -9.3329 H       1  UNL1        0.0524
     38 H          19.8703   37.8800  -11.2412 H       1  UNL1        0.0299
     39 H          17.6167   43.8374  -11.7724 H       1  UNL1        0.0407
     40 H          21.1559   40.9386   -2.3432 H       1  UNL1        0.0230
     41 H          20.0604   39.7761   -3.0902 H       1  UNL1        0.0230
     42 H          20.0203   41.4785   -3.5709 H       1  UNL1        0.0230
     43 H          22.3352   41.2671   -4.4924 H       1  UNL1        0.0263
     44 H          22.3824   39.5836   -4.0328 H       1  UNL1        0.0263
     45 H          20.5102   39.0772   -5.6386 H       1  UNL1        0.0280
     46 H          20.3556   40.7405   -6.0320 H       1  UNL1        0.0280
     47 H          22.8594   39.0153   -6.4402 H       1  UNL1        0.0462
     48 H          21.6957   39.2757   -7.6588 H       1  UNL1        0.0462
     49 H          23.7762   40.6874   -7.6923 H       1  UNL1        0.1487
     50 H          24.1344   44.2248   -6.8676 H       1  UNL1        0.0237
     51 H          22.8121   44.9815   -7.7578 H       1  UNL1        0.0237
     52 H          24.4181   44.8795   -8.4708 H       1  UNL1        0.0237
     53 H          21.7661   43.7572   -9.7888 H       1  UNL1        0.0298
     54 H          23.3578   43.7691  -10.4650 H       1  UNL1        0.0298
     55 H          20.8097   39.9608  -12.2029 H       1  UNL1        0.0286
     56 H          21.8081   39.1892  -11.0235 H       1  UNL1        0.0286
     57 H          20.6310   37.9100   -9.0032 H       1  UNL1        0.0271
     58 H          19.7585   39.3714   -8.6142 H       1  UNL1        0.0271
     59 H          18.4376   36.6917   -9.1919 H       1  UNL1        0.0313
     60 H          18.7825   37.3577   -7.6056 H       1  UNL1        0.0313
     61 H          16.0915   36.8186   -9.5837 H       1  UNL1        0.0620
     62 H          13.9838   38.1469   -9.6396 H       1  UNL1        0.0618
     63 H          13.9569   40.4590   -8.8386 H       1  UNL1        0.0621
     64 H          18.0125   40.0454   -7.4617 H       1  UNL1        0.0623
     65 H          14.9450   42.2734   -7.6612 H       1  UNL1        0.0549
     66 H          16.0598   41.7504   -6.4202 H       1  UNL1        0.0549
     67 H          16.7513   41.8851  -10.2724 H       1  UNL1        0.0507
     68 H          16.0073   43.4517  -10.1729 H       1  UNL1        0.0507
     69 H          19.6487   42.2546   -9.3256 H       1  UNL1        0.1491
     70 H          19.4383   45.2427  -10.9632 H       1  UNL1        0.0237
     71 H          19.2686   44.6234   -9.3294 H       1  UNL1        0.0237
     72 H          17.9727   45.5686  -10.0518 H       1  UNL1        0.0237
     73 H          17.9845   40.1158  -10.5569 H       1  UNL1        0.0232
     74 H          17.6448   38.5503  -11.2407 H       1  UNL1        0.0232
     75 H          18.4632   39.7602  -12.2079 H       1  UNL1        0.0232
     76 H          23.0277   41.5098  -12.4710 H       1  UNL1        0.2099
@<TRIPOS>BOND
     1     1     2    1
     2     1    40    1
     3     1    41    1
     4     1    42    1
     5     2     3    1
     6     2    43    1
     7     2    44    1
     8     3     4    1
     9     3    45    1
    10     3    46    1
    11     4     5    1
    12     4    47    1
    13     4    48    1
    14     5     6   am
    15     5    49    1
    16     6     7    2
    17     6     8    1
    18     8    35    1
    19     8     9    1
    20     8    10    1
    21     9    50    1
    22     9    51    1
    23     9    52    1
    24    10    11    1
    25    10    53    1
    26    10    54    1
    27    11    36    1
    28    11    12    1
    29    11    34    1
    30    12    37    1
    31    12    31    1
    32    12    13    1
    33    13    14    1
    34    13    55    1
    35    13    56    1
    36    14    38    1
    37    14    15    1
    38    14    33    1
    39    15    16    1
    40    15    57    1
    41    15    58    1
    42    16    17    1
    43    16    59    1
    44    16    60    1
    45    17    22   ar
    46    17    18   ar
    47    18    19   ar
    48    18    61    1
    49    19    20   ar
    50    19    62    1
    51    20    21   ar
    52    20    63    1
    53    21    22   ar
    54    21    23    1
    55    22    64    1
    56    23    24    1
    57    23    65    1
    58    23    66    1
    59    24    25    2
    60    24    26    2
    61    24    27    1
    62    27    28    1
    63    27    67    1
    64    27    68    1
    65    28    39    1
    66    28    29    1
    67    28    32    1
    68    29    30    2
    69    29    31   am
    70    31    69    1
    71    32    70    1
    72    32    71    1
    73    32    72    1
    74    33    73    1
    75    33    74    1
    76    33    75    1
    77    34    76    1
