@<TRIPOS>MOLECULE
BACE_7.smi:1
 99 103 0 0 0
SMALL
GASTEIGER
****
Structure written by MMmdl.
@<TRIPOS>ATOM
      1 C          17.8982   38.1534   -7.0044 C.3     1  UNL1       -0.0624
      2 C          18.0493   38.6072   -8.4675 C.3     1  UNL1       -0.0421
      3 C          17.0656   37.8731   -9.4073 C.3     1  UNL1       -0.0504
      4 C          15.6375   38.4510   -9.3474 C.3     1  UNL1       -0.0528
      5 C          15.4916   39.8044  -10.0750 C.3     1  UNL1       -0.0516
      6 C          14.3406   40.6540   -9.5133 C.3     1  UNL1       -0.0371
      7 C          14.1690   42.0289  -10.1847 C.3     1  UNL1        0.0156
      8 N          15.3528   42.9074  -10.0298 N.am    1  UNL1       -0.2907
      9 C          15.4469   43.7084   -8.9379 C.2     1  UNL1        0.2471
     10 O          14.4692   44.2675   -8.4391 O.2     1  UNL1       -0.2700
     11 C          16.8144   43.9038   -8.3353 C.ar    1  UNL1        0.0384
     12 C          17.2280   45.1886   -7.9195 C.ar    1  UNL1       -0.0373
     13 C          18.5046   45.3756   -7.3468 C.ar    1  UNL1        0.0383
     14 C          19.3771   44.2785   -7.2015 C.ar    1  UNL1       -0.0373
     15 C          18.9790   42.9883   -7.6055 C.ar    1  UNL1        0.0381
     16 C          17.6815   42.8050   -8.1355 C.ar    1  UNL1       -0.0375
     17 C          19.9242   41.8344   -7.4239 C.2     1  UNL1        0.2444
     18 O          20.7371   41.8112   -6.5002 O.2     1  UNL1       -0.2702
     19 N          19.8473   40.8854   -8.3663 N.am    1  UNL1       -0.3058
     20 C          20.4752   39.5638   -8.3123 C.3     1  UNL1        0.0545
     21 C          19.5162   38.5433   -8.9751 C.3     1  UNL1       -0.0293
     22 C          21.9005   39.5440   -8.9506 C.3     1  UNL1        0.1130
     23 C          22.1948   40.6515   -9.9975 C.3     1  UNL1       -0.0050
     24 N          23.6074   40.6675  -10.4398 N.4     1  UNL1        0.2321
     25 C          24.4947   41.5881   -9.7022 C.3     1  UNL1       -0.0076
     26 C          25.4886   42.2354  -10.6493 C.ar    1  UNL1       -0.0027
     27 C          25.0818   43.3238  -11.4481 C.ar    1  UNL1       -0.0535
     28 C          25.9920   43.9236  -12.3381 C.ar    1  UNL1       -0.0611
     29 C          27.3084   43.4336  -12.4352 C.ar    1  UNL1       -0.0583
     30 C          27.7264   42.3444  -11.6401 C.ar    1  UNL1       -0.0444
     31 C          26.8085   41.7502  -10.7474 C.ar    1  UNL1       -0.0501
     32 C          29.1550   41.8206  -11.7377 C.3     1  UNL1       -0.0215
     33 C          30.1698   42.8537  -11.2233 C.3     1  UNL1       -0.0586
     34 C          29.4960   41.3512  -13.1607 C.3     1  UNL1       -0.0586
     35 O          22.8598   39.5792   -7.9122 O.3     1  UNL1       -0.3847
     36 C          18.9467   46.6965   -6.9285 C.ar    1  UNL1        0.2271
     37 N          18.2115   47.7742   -6.6494 N.ar    1  UNL1       -0.2175
     38 C          19.1370   48.7527   -6.3280 C.ar    1  UNL1        0.0663
     39 C          20.3951   48.2157   -6.4158 C.ar    1  UNL1        0.1125
     40 O          20.2872   46.9088   -6.7945 O.2     1  UNL1       -0.4436
     41 C          16.0166   43.2882  -11.3033 C.3     1  UNL1        0.0487
     42 C          17.5567   43.1623  -11.2899 C.3     1  UNL1       -0.0422
     43 C          15.4815   44.6114  -11.8802 C.ar    1  UNL1       -0.0273
     44 C          16.3385   45.6919  -12.2066 C.ar    1  UNL1       -0.0568
     45 C          15.8210   46.8720  -12.7743 C.ar    1  UNL1       -0.0614
     46 C          14.4432   46.9902  -13.0320 C.ar    1  UNL1       -0.0617
     47 C          13.5765   45.9349  -12.6968 C.ar    1  UNL1       -0.0614
     48 C          14.0941   44.7598  -12.1200 C.ar    1  UNL1       -0.0568
     49 H          17.7386   39.6438   -8.4727 H       1  UNL1        0.0299
     50 H          20.5625   39.2677   -7.2650 H       1  UNL1        0.0526
     51 H          22.0481   38.5759   -9.4320 H       1  UNL1        0.0666
     52 H          15.7370   42.5374  -12.0396 H       1  UNL1        0.0548
     53 H          18.0601   37.0809   -6.8954 H       1  UNL1        0.0232
     54 H          16.8932   38.3645   -6.6370 H       1  UNL1        0.0232
     55 H          18.5823   38.6683   -6.3328 H       1  UNL1        0.0232
     56 H          17.4102   37.9259  -10.4397 H       1  UNL1        0.0268
     57 H          17.0484   36.8119   -9.1561 H       1  UNL1        0.0268
     58 H          14.9371   37.7386   -9.7831 H       1  UNL1        0.0265
     59 H          15.3337   38.5459   -8.3033 H       1  UNL1        0.0265
     60 H          16.4128   40.3776  -10.0034 H       1  UNL1        0.0266
     61 H          15.3411   39.6281  -11.1396 H       1  UNL1        0.0266
     62 H          13.4100   40.0953   -9.6289 H       1  UNL1        0.0280
     63 H          14.4646   40.7946   -8.4381 H       1  UNL1        0.0280
     64 H          13.9158   41.8558  -11.2296 H       1  UNL1        0.0465
     65 H          13.2802   42.5062   -9.7667 H       1  UNL1        0.0465
     66 H          16.5664   46.0327   -8.0433 H       1  UNL1        0.0633
     67 H          20.3594   44.4202   -6.7727 H       1  UNL1        0.0633
     68 H          17.3383   41.8177   -8.4017 H       1  UNL1        0.0633
     69 H          19.1614   41.0261   -9.0934 H       1  UNL1        0.1494
     70 H          19.9020   37.5318   -8.8451 H       1  UNL1        0.0286
     71 H          19.5219   38.7277  -10.0507 H       1  UNL1        0.0286
     72 H          21.5697   40.4720  -10.8742 H       1  UNL1        0.0840
     73 H          21.9208   41.6468   -9.6414 H       1  UNL1        0.0840
     74 H          23.9935   39.7300  -10.3785 H       1  UNL1        0.2018
     75 H          23.9338   42.3834   -9.2081 H       1  UNL1        0.0866
     76 H          25.0109   41.0404   -8.9124 H       1  UNL1        0.0866
     77 H          24.0714   43.7020  -11.3838 H       1  UNL1        0.0622
     78 H          25.6797   44.7566  -12.9500 H       1  UNL1        0.0618
     79 H          27.9981   43.9046  -13.1192 H       1  UNL1        0.0620
     80 H          27.1214   40.9218  -10.1315 H       1  UNL1        0.0625
     81 H          29.2384   40.9506  -11.0870 H       1  UNL1        0.0343
     82 H          29.9519   43.1387  -10.1939 H       1  UNL1        0.0235
     83 H          30.1600   43.7591  -11.8300 H       1  UNL1        0.0235
     84 H          31.1820   42.4519  -11.2453 H       1  UNL1        0.0235
     85 H          28.8602   40.5207  -13.4614 H       1  UNL1        0.0235
     86 H          30.5246   41.0054  -13.2336 H       1  UNL1        0.0235
     87 H          29.3774   42.1484  -13.8946 H       1  UNL1        0.0235
     88 H          23.5464   38.9611   -8.1176 H       1  UNL1        0.2101
     89 H          18.8347   49.7504   -6.0407 H       1  UNL1        0.0862
     90 H          21.3921   48.5970   -6.2483 H       1  UNL1        0.1046
     91 H          17.9615   43.2457  -12.2982 H       1  UNL1        0.0251
     92 H          17.8697   42.1913  -10.9058 H       1  UNL1        0.0251
     93 H          18.0429   43.9294  -10.6891 H       1  UNL1        0.0251
     94 H          17.4034   45.6350  -12.0381 H       1  UNL1        0.0621
     95 H          16.4872   47.6840  -13.0286 H       1  UNL1        0.0618
     96 H          14.0529   47.8864  -13.4916 H       1  UNL1        0.0618
     97 H          12.5161   46.0186  -12.8971 H       1  UNL1        0.0618
     98 H          13.4086   43.9573  -11.8907 H       1  UNL1        0.0621
     99 H          23.6451   40.9474  -11.4165 H       1  UNL1        0.2018
@<TRIPOS>BOND
     1     1     2    1
     2     1    53    1
     3     1    54    1
     4     1    55    1
     5     2    49    1
     6     2    21    1
     7     2     3    1
     8     3     4    1
     9     3    56    1
    10     3    57    1
    11     4     5    1
    12     4    58    1
    13     4    59    1
    14     5     6    1
    15     5    60    1
    16     5    61    1
    17     6     7    1
    18     6    62    1
    19     6    63    1
    20     7     8    1
    21     7    64    1
    22     7    65    1
    23     8     9   am
    24     8    41    1
    25     9    10    2
    26     9    11    1
    27    11    16   ar
    28    11    12   ar
    29    12    13   ar
    30    12    66    1
    31    13    14   ar
    32    13    36    1
    33    14    15   ar
    34    14    67    1
    35    15    16   ar
    36    15    17    1
    37    16    68    1
    38    17    18    2
    39    17    19   am
    40    19    20    1
    41    19    69    1
    42    20    50    1
    43    20    21    1
    44    20    22    1
    45    21    70    1
    46    21    71    1
    47    22    51    1
    48    22    23    1
    49    22    35    1
    50    23    24    1
    51    23    72    1
    52    23    73    1
    53    24    25    1
    54    24    74    1
    55    24    99    1
    56    25    26    1
    57    25    75    1
    58    25    76    1
    59    26    31   ar
    60    26    27   ar
    61    27    28   ar
    62    27    77    1
    63    28    29   ar
    64    28    78    1
    65    29    30   ar
    66    29    79    1
    67    30    31   ar
    68    30    32    1
    69    31    80    1
    70    32    33    1
    71    32    34    1
    72    32    81    1
    73    33    82    1
    74    33    83    1
    75    33    84    1
    76    34    85    1
    77    34    86    1
    78    34    87    1
    79    35    88    1
    80    36    40   ar
    81    36    37   ar
    82    37    38   ar
    83    38    39   ar
    84    38    89    1
    85    39    40   ar
    86    39    90    1
    87    41    52    1
    88    41    42    1
    89    41    43    1
    90    42    91    1
    91    42    92    1
    92    42    93    1
    93    43    48   ar
    94    43    44   ar
    95    44    45   ar
    96    44    94    1
    97    45    46   ar
    98    45    95    1
    99    46    47   ar
   100    46    96    1
   101    47    48   ar
   102    47    97    1
   103    48    98    1
