@<TRIPOS>MOLECULE
BACE_7.smi:1
 99 103 0 0 0
SMALL
GASTEIGER
****
Structure written by MMmdl.
@<TRIPOS>ATOM
      1 C          17.9175   38.2125   -7.0058 C.3     1  UNL1       -0.0624
      2 C          18.0632   38.7078   -8.4544 C.3     1  UNL1       -0.0421
      3 C          17.1166   37.9559   -9.4187 C.3     1  UNL1       -0.0504
      4 C          15.6726   38.4913   -9.3849 C.3     1  UNL1       -0.0528
      5 C          15.4986   39.8504  -10.0989 C.3     1  UNL1       -0.0516
      6 C          14.3170   40.6549   -9.5364 C.3     1  UNL1       -0.0371
      7 C          14.0785   42.0257  -10.1952 C.3     1  UNL1        0.0156
      8 N          15.2319   42.9411  -10.0453 N.am    1  UNL1       -0.2907
      9 C          15.3040   43.7443   -8.9541 C.2     1  UNL1        0.2471
     10 O          14.3100   44.2640   -8.4386 O.2     1  UNL1       -0.2700
     11 C          16.6643   43.9840   -8.3605 C.ar    1  UNL1        0.0384
     12 C          17.0368   45.2813   -7.9590 C.ar    1  UNL1       -0.0373
     13 C          18.2907   45.5058   -7.3520 C.ar    1  UNL1        0.0383
     14 C          19.1952   44.4376   -7.1861 C.ar    1  UNL1       -0.0373
     15 C          18.8495   43.1378   -7.5996 C.ar    1  UNL1        0.0381
     16 C          17.5601   42.9118   -8.1409 C.ar    1  UNL1       -0.0375
     17 C          19.8330   42.0134   -7.4184 C.2     1  UNL1        0.2444
     18 O          20.6567   42.0265   -6.5054 O.2     1  UNL1       -0.2702
     19 N          19.7833   41.0536   -8.3526 N.am    1  UNL1       -0.3058
     20 C          20.4606   39.7548   -8.2966 C.3     1  UNL1        0.0545
     21 C          19.5352   38.6950   -8.9495 C.3     1  UNL1       -0.0293
     22 C          21.8779   39.7712   -8.9578 C.3     1  UNL1        0.1130
     23 C          22.1520   40.9286   -9.9534 C.3     1  UNL1       -0.0050
     24 N          23.5513   40.9485  -10.4391 N.4     1  UNL1        0.2321
     25 C          24.4439   41.8820   -9.7196 C.3     1  UNL1       -0.0076
     26 C          25.5494   42.3761  -10.6293 C.ar    1  UNL1       -0.0027
     27 C          26.7427   41.6412  -10.7658 C.ar    1  UNL1       -0.0535
     28 C          27.7751   42.1232  -11.5924 C.ar    1  UNL1       -0.0611
     29 C          27.6200   43.3418  -12.2821 C.ar    1  UNL1       -0.0583
     30 C          26.4230   44.0864  -12.1602 C.ar    1  UNL1       -0.0444
     31 C          25.3896   43.5863  -11.3375 C.ar    1  UNL1       -0.0501
     32 C          26.2063   45.4235  -12.8732 C.3     1  UNL1       -0.0215
     33 C          27.2325   45.7405  -13.9752 C.3     1  UNL1       -0.0586
     34 C          26.1329   46.5814  -11.8636 C.3     1  UNL1       -0.0586
     35 O          22.8604   39.7519   -7.9430 O.3     1  UNL1       -0.3847
     36 C          18.6717   46.8383   -6.9134 C.ar    1  UNL1        0.2271
     37 N          19.6494   47.1807   -6.0768 N.ar    1  UNL1       -0.2175
     38 C          19.6192   48.5638   -6.0344 C.ar    1  UNL1        0.0663
     39 C          18.5970   48.9895   -6.8407 C.ar    1  UNL1        0.1125
     40 O          17.9771   47.9055   -7.3958 O.2     1  UNL1       -0.4436
     41 C          15.9150   43.3107  -11.3074 C.3     1  UNL1        0.0487
     42 C          17.4529   43.1609  -11.2863 C.3     1  UNL1       -0.0422
     43 C          15.4028   44.6369  -11.9001 C.ar    1  UNL1       -0.0273
     44 C          16.2746   45.7120  -12.1998 C.ar    1  UNL1       -0.0568
     45 C          15.7808   46.8917  -12.7950 C.ar    1  UNL1       -0.0614
     46 C          14.4127   47.0133  -13.0989 C.ar    1  UNL1       -0.0617
     47 C          13.5310   45.9634  -12.7824 C.ar    1  UNL1       -0.0614
     48 C          14.0237   44.7879  -12.1830 C.ar    1  UNL1       -0.0568
     49 H          17.7198   39.7357   -8.4418 H       1  UNL1        0.0299
     50 H          20.5653   39.4728   -7.2455 H       1  UNL1        0.0526
     51 H          22.0148   38.8290   -9.4923 H       1  UNL1        0.0666
     52 H          15.6280   42.5627  -12.0372 H       1  UNL1        0.0548
     53 H          18.0603   37.1354   -6.9296 H       1  UNL1        0.0232
     54 H          16.9219   38.4368   -6.6215 H       1  UNL1        0.0232
     55 H          18.6224   38.6996   -6.3325 H       1  UNL1        0.0232
     56 H          17.4824   38.0275  -10.4421 H       1  UNL1        0.0268
     57 H          17.1244   36.8923   -9.1778 H       1  UNL1        0.0268
     58 H          15.0044   37.7641   -9.8471 H       1  UNL1        0.0265
     59 H          15.3479   38.5611   -8.3454 H       1  UNL1        0.0265
     60 H          16.4009   40.4490  -10.0019 H       1  UNL1        0.0266
     61 H          15.3700   39.6866  -11.1702 H       1  UNL1        0.0266
     62 H          13.4082   40.0603   -9.6421 H       1  UNL1        0.0280
     63 H          14.4601   40.7983   -8.4641 H       1  UNL1        0.0280
     64 H          13.8131   41.8642  -11.2396 H       1  UNL1        0.0465
     65 H          13.1809   42.4643   -9.7539 H       1  UNL1        0.0465
     66 H          16.3486   46.1017   -8.1008 H       1  UNL1        0.0633
     67 H          20.1618   44.6186   -6.7352 H       1  UNL1        0.0633
     68 H          17.2526   41.9117   -8.4034 H       1  UNL1        0.0633
     69 H          19.0837   41.1623   -9.0712 H       1  UNL1        0.1494
     70 H          19.9557   37.6981   -8.8066 H       1  UNL1        0.0286
     71 H          19.5425   38.8705  -10.0271 H       1  UNL1        0.0286
     72 H          21.4964   40.8036  -10.8161 H       1  UNL1        0.0840
     73 H          21.9046   41.8992   -9.5250 H       1  UNL1        0.0840
     74 H          23.9437   40.0186  -10.3867 H       1  UNL1        0.2018
     75 H          23.8980   42.7538   -9.3576 H       1  UNL1        0.0866
     76 H          24.8603   41.3896   -8.8413 H       1  UNL1        0.0866
     77 H          26.8675   40.7072  -10.2370 H       1  UNL1        0.0622
     78 H          28.6894   41.5606  -11.6954 H       1  UNL1        0.0618
     79 H          28.4401   43.6836  -12.8977 H       1  UNL1        0.0620
     80 H          24.4726   44.1497  -11.2342 H       1  UNL1        0.0625
     81 H          25.2346   45.3499  -13.3612 H       1  UNL1        0.0343
     82 H          27.2662   44.9515  -14.7252 H       1  UNL1        0.0235
     83 H          28.2359   45.8708  -13.5681 H       1  UNL1        0.0235
     84 H          26.9724   46.6655  -14.4888 H       1  UNL1        0.0235
     85 H          25.3308   46.4350  -11.1393 H       1  UNL1        0.0235
     86 H          25.9443   47.5314  -12.3662 H       1  UNL1        0.0235
     87 H          27.0672   46.6799  -11.3073 H       1  UNL1        0.0235
     88 H          23.4742   39.0525   -8.1285 H       1  UNL1        0.2101
     89 H          20.3157   49.1324   -5.4391 H       1  UNL1        0.0862
     90 H          18.2092   49.9614   -7.1061 H       1  UNL1        0.1046
     91 H          17.8621   43.2386  -12.2942 H       1  UNL1        0.0251
     92 H          17.7473   42.1850  -10.8990 H       1  UNL1        0.0251
     93 H          17.9489   43.9221  -10.6836 H       1  UNL1        0.0251
     94 H          17.3307   45.6529  -11.9928 H       1  UNL1        0.0621
     95 H          16.4598   47.6977  -13.0315 H       1  UNL1        0.0618
     96 H          14.0416   47.9084  -13.5775 H       1  UNL1        0.0618
     97 H          12.4785   46.0524  -13.0178 H       1  UNL1        0.0618
     98 H          13.3310   43.9899  -11.9694 H       1  UNL1        0.0621
     99 H          23.5553   41.2199  -11.4186 H       1  UNL1        0.2018
@<TRIPOS>BOND
     1     1     2    1
     2     1    53    1
     3     1    54    1
     4     1    55    1
     5     2    49    1
     6     2    21    1
     7     2     3    1
     8     3     4    1
     9     3    56    1
    10     3    57    1
    11     4     5    1
    12     4    58    1
    13     4    59    1
    14     5     6    1
    15     5    60    1
    16     5    61    1
    17     6     7    1
    18     6    62    1
    19     6    63    1
    20     7     8    1
    21     7    64    1
    22     7    65    1
    23     8     9   am
    24     8    41    1
    25     9    10    2
    26     9    11    1
    27    11    16   ar
    28    11    12   ar
    29    12    13   ar
    30    12    66    1
    31    13    14   ar
    32    13    36    1
    33    14    15   ar
    34    14    67    1
    35    15    16   ar
    36    15    17    1
    37    16    68    1
    38    17    18    2
    39    17    19   am
    40    19    20    1
    41    19    69    1
    42    20    50    1
    43    20    21    1
    44    20    22    1
    45    21    70    1
    46    21    71    1
    47    22    51    1
    48    22    23    1
    49    22    35    1
    50    23    24    1
    51    23    72    1
    52    23    73    1
    53    24    25    1
    54    24    74    1
    55    24    99    1
    56    25    26    1
    57    25    75    1
    58    25    76    1
    59    26    31   ar
    60    26    27   ar
    61    27    28   ar
    62    27    77    1
    63    28    29   ar
    64    28    78    1
    65    29    30   ar
    66    29    79    1
    67    30    31   ar
    68    30    32    1
    69    31    80    1
    70    32    33    1
    71    32    34    1
    72    32    81    1
    73    33    82    1
    74    33    83    1
    75    33    84    1
    76    34    85    1
    77    34    86    1
    78    34    87    1
    79    35    88    1
    80    36    40   ar
    81    36    37   ar
    82    37    38   ar
    83    38    39   ar
    84    38    89    1
    85    39    40   ar
    86    39    90    1
    87    41    52    1
    88    41    42    1
    89    41    43    1
    90    42    91    1
    91    42    92    1
    92    42    93    1
    93    43    48   ar
    94    43    44   ar
    95    44    45   ar
    96    44    94    1
    97    45    46   ar
    98    45    95    1
    99    46    47   ar
   100    46    96    1
   101    47    48   ar
   102    47    97    1
   103    48    98    1
