@<TRIPOS>MOLECULE
BACE_17.smi:1
 62 64 0 0 0
SMALL
GASTEIGER
****
Structure written by MMmdl.
@<TRIPOS>ATOM
      1 C          18.4203   49.2357   -7.1675 C.3     1  UNL1        0.0031
      2 N          19.3881   48.1402   -7.2789 N.am    1  UNL1       -0.3036
      3 C          20.5118   48.4376   -8.1721 C.3     1  UNL1        0.0031
      4 C          19.2711   47.0026   -6.5468 C.2     1  UNL1        0.2463
      5 O          18.4601   46.8857   -5.6268 O.2     1  UNL1       -0.2700
      6 C          20.1665   45.8372   -6.8808 C.ar    1  UNL1        0.0410
      7 C          20.8792   45.1682   -5.8575 C.ar    1  UNL1       -0.0078
      8 C          20.2452   45.3478   -8.2058 C.ar    1  UNL1       -0.0373
      9 C          21.0688   44.2470   -8.5182 C.ar    1  UNL1        0.0409
     10 C          21.8280   43.6421   -7.4976 C.ar    1  UNL1       -0.0078
     11 C          21.7101   44.0634   -6.1630 C.ar    1  UNL1        0.1219
     12 C          21.1391   43.7184   -9.9164 C.2     1  UNL1        0.2445
     13 O          21.1487   44.4712  -10.8912 O.2     1  UNL1       -0.2702
     14 N          21.1117   42.3807   -9.9931 N.am    1  UNL1       -0.3056
     15 C          21.1689   41.5641  -11.1987 C.3     1  UNL1        0.0554
     16 C          19.8974   41.7390  -12.0846 C.3     1  UNL1        0.0968
     17 O          20.0603   40.9500  -13.2398 O.3     1  UNL1       -0.3877
     18 C          18.4993   41.4650  -11.4808 C.3     1  UNL1        0.0719
     19 O          18.1232   42.4461  -10.5359 O.3     1  UNL1       -0.3924
     20 C          21.5743   40.1020  -10.8447 C.3     1  UNL1       -0.0066
     21 C          20.7436   39.4403   -9.7526 C.ar    1  UNL1       -0.0421
     22 C          20.9844   39.7380   -8.3936 C.ar    1  UNL1       -0.0167
     23 C          20.1585   39.1950   -7.3792 C.ar    1  UNL1        0.1208
     24 C          19.1098   38.3294   -7.7461 C.ar    1  UNL1       -0.0199
     25 C          18.9024   37.9817   -9.0938 C.ar    1  UNL1       -0.0580
     26 C          19.7256   38.5265  -10.0946 C.ar    1  UNL1       -0.0583
     27 O          20.3065   39.4639   -6.0371 O.3     1  UNL1       -0.4920
     28 C          21.2087   40.4883   -5.6423 C.3     1  UNL1        0.0897
     29 C          21.0783   40.7121   -4.1279 C.3     1  UNL1       -0.0156
     30 C          22.0907   41.7070   -3.5205 C.3     1  UNL1       -0.0156
     31 C          21.8973   43.1747   -3.9404 C.3     1  UNL1        0.0897
     32 O          22.4409   43.3545   -5.2403 O.3     1  UNL1       -0.4919
     33 H          21.9965   41.9540  -11.7949 H       1  UNL1        0.0528
     34 H          19.8688   42.7658  -12.4399 H       1  UNL1        0.0635
     35 H          17.9787   49.4334   -8.1452 H       1  UNL1        0.0428
     36 H          18.9187   50.1472   -6.8370 H       1  UNL1        0.0428
     37 H          17.6028   49.0365   -6.4749 H       1  UNL1        0.0428
     38 H          21.4586   48.0958   -7.7500 H       1  UNL1        0.0428
     39 H          20.6124   49.5100   -8.3506 H       1  UNL1        0.0428
     40 H          20.3769   47.9632   -9.1456 H       1  UNL1        0.0428
     41 H          20.7991   45.5183   -4.8403 H       1  UNL1        0.0662
     42 H          19.6566   45.8032   -8.9893 H       1  UNL1        0.0633
     43 H          22.4822   42.8117   -7.7219 H       1  UNL1        0.0662
     44 H          21.0077   41.8783   -9.1235 H       1  UNL1        0.1494
     45 H          20.0534   40.0394  -12.9822 H       1  UNL1        0.2100
     46 H          17.7547   41.4888  -12.2758 H       1  UNL1        0.0583
     47 H          18.4197   40.4845  -11.0260 H       1  UNL1        0.0583
     48 H          18.2243   43.3032  -10.9220 H       1  UNL1        0.2095
     49 H          21.5802   39.4726  -11.7348 H       1  UNL1        0.0332
     50 H          22.6097   40.1015  -10.5008 H       1  UNL1        0.0332
     51 H          21.7973   40.4026   -8.1481 H       1  UNL1        0.0657
     52 H          18.4626   37.9223   -6.9825 H       1  UNL1        0.0654
     53 H          18.1022   37.3057   -9.3575 H       1  UNL1        0.0619
     54 H          19.5456   38.2664  -11.1276 H       1  UNL1        0.0620
     55 H          22.2338   40.2119   -5.8933 H       1  UNL1        0.0696
     56 H          20.9544   41.4056   -6.1686 H       1  UNL1        0.0696
     57 H          20.0591   41.0266   -3.8913 H       1  UNL1        0.0299
     58 H          21.2158   39.7499   -3.6352 H       1  UNL1        0.0299
     59 H          21.9899   41.6549   -2.4385 H       1  UNL1        0.0299
     60 H          23.1116   41.3877   -3.7377 H       1  UNL1        0.0299
     61 H          20.8404   43.4374   -3.8631 H       1  UNL1        0.0696
     62 H          22.4545   43.8212   -3.2604 H       1  UNL1        0.0696
@<TRIPOS>BOND
     1     1     2    1
     2     1    35    1
     3     1    36    1
     4     1    37    1
     5     2     3    1
     6     2     4   am
     7     3    38    1
     8     3    39    1
     9     3    40    1
    10     4     5    2
    11     4     6    1
    12     6     7   ar
    13     6     8   ar
    14     7    11   ar
    15     7    41    1
    16     8     9   ar
    17     8    42    1
    18     9    10   ar
    19     9    12    1
    20    10    11   ar
    21    10    43    1
    22    11    32    1
    23    12    13    2
    24    12    14   am
    25    14    15    1
    26    14    44    1
    27    15    33    1
    28    15    16    1
    29    15    20    1
    30    16    34    1
    31    16    17    1
    32    16    18    1
    33    17    45    1
    34    18    19    1
    35    18    46    1
    36    18    47    1
    37    19    48    1
    38    20    21    1
    39    20    49    1
    40    20    50    1
    41    21    26   ar
    42    21    22   ar
    43    22    23   ar
    44    22    51    1
    45    23    24   ar
    46    23    27    1
    47    24    25   ar
    48    24    52    1
    49    25    26   ar
    50    25    53    1
    51    26    54    1
    52    27    28    1
    53    28    29    1
    54    28    55    1
    55    28    56    1
    56    29    30    1
    57    29    57    1
    58    29    58    1
    59    30    31    1
    60    30    59    1
    61    30    60    1
    62    31    32    1
    63    31    61    1
    64    31    62    1
