@<TRIPOS>MOLECULE
BACE_9.smi:1
 87 89 0 0 0
SMALL
GASTEIGER
****
Structure written by MMmdl.
@<TRIPOS>ATOM
      1 C          20.7493   46.0781   -7.2247 C.3     1  UNL1       -0.0624
      2 C          20.5133   44.7823   -8.0161 C.3     1  UNL1       -0.0421
      3 C          21.8467   44.1798   -8.4949 C.3     1  UNL1       -0.0504
      4 C          21.6924   42.7488   -9.0304 C.3     1  UNL1       -0.0528
      5 C          23.0362   42.0406   -9.2668 C.3     1  UNL1       -0.0530
      6 C          22.8596   40.5958   -9.7552 C.3     1  UNL1       -0.0530
      7 C          22.4269   39.6220   -8.6371 C.3     1  UNL1       -0.0516
      8 C          21.8597   38.2824   -9.1427 C.3     1  UNL1       -0.0375
      9 C          20.3386   38.3000   -9.3785 C.3     1  UNL1        0.0091
     10 N          19.9669   39.1445  -10.5009 N.pl3   1  UNL1       -0.3438
     11 C          18.6891   39.7120  -10.4728 C.ar    1  UNL1        0.0282
     12 C          17.5496   38.9636  -10.1030 C.ar    1  UNL1       -0.0355
     13 C          16.2743   39.5612  -10.1123 C.ar    1  UNL1       -0.0195
     14 C          16.1411   40.9209  -10.4667 C.ar    1  UNL1       -0.0442
     15 C          17.2775   41.6812  -10.8166 C.ar    1  UNL1        0.0388
     16 C          18.5450   41.0638  -10.8383 C.ar    1  UNL1       -0.0287
     17 C          17.1190   43.1081  -11.2479 C.2     1  UNL1        0.2444
     18 O          16.5190   43.3607  -12.2908 O.2     1  UNL1       -0.2702
     19 N          17.6509   44.0908  -10.4983 N.am    1  UNL1       -0.3060
     20 C          18.2870   44.0240   -9.1766 C.3     1  UNL1        0.0508
     21 C          19.4940   45.0004   -9.1620 C.3     1  UNL1       -0.0295
     22 C          17.1975   44.2621   -8.0827 C.3     1  UNL1        0.0859
     23 C          16.7104   45.7196   -7.9350 C.3     1  UNL1        0.0240
     24 N          17.7795   46.5866   -7.4332 N.3     1  UNL1       -0.3095
     25 C          17.4571   48.0155   -7.4392 C.3     1  UNL1        0.0213
     26 C          18.6503   48.9524   -7.5220 C.ar    1  UNL1       -0.0333
     27 C          18.6073   50.1298   -8.2989 C.ar    1  UNL1       -0.0573
     28 C          19.7244   50.9820   -8.3407 C.ar    1  UNL1       -0.0612
     29 C          20.8790   50.6784   -7.5945 C.ar    1  UNL1       -0.0583
     30 C          20.9324   49.5069   -6.8089 C.ar    1  UNL1       -0.0445
     31 C          19.8084   48.6540   -6.7739 C.ar    1  UNL1       -0.0539
     32 C          22.1915   49.1740   -6.0147 C.3     1  UNL1       -0.0215
     33 C          22.1999   49.8682   -4.6414 C.3     1  UNL1       -0.0586
     34 C          23.4667   49.4863   -6.8141 C.3     1  UNL1       -0.0586
     35 O          16.0522   43.4728   -8.3399 O.3     1  UNL1       -0.3887
     36 C          15.0583   38.7403   -9.7279 C.3     1  UNL1        0.0724
     37 O          15.1645   38.2230   -8.4079 O.3     1  UNL1       -0.3784
     38 C          15.0394   39.2345   -7.4226 C.3     1  UNL1        0.0369
     39 H          20.1188   44.0545   -7.3189 H       1  UNL1        0.0299
     40 H          18.6935   43.0225   -9.0423 H       1  UNL1        0.0524
     41 H          17.5998   43.9539   -7.1168 H       1  UNL1        0.0624
     42 H          21.1933   46.8531   -7.8462 H       1  UNL1        0.0232
     43 H          21.4199   45.9083   -6.3809 H       1  UNL1        0.0232
     44 H          19.8185   46.4715   -6.8171 H       1  UNL1        0.0232
     45 H          22.3136   44.8135   -9.2504 H       1  UNL1        0.0268
     46 H          22.5403   44.1536   -7.6529 H       1  UNL1        0.0268
     47 H          21.0969   42.1722   -8.3229 H       1  UNL1        0.0265
     48 H          21.1251   42.7642   -9.9602 H       1  UNL1        0.0265
     49 H          23.6049   42.5989  -10.0124 H       1  UNL1        0.0265
     50 H          23.6387   42.0484   -8.3564 H       1  UNL1        0.0265
     51 H          22.1542   40.5905  -10.5848 H       1  UNL1        0.0265
     52 H          23.8026   40.2367  -10.1764 H       1  UNL1        0.0265
     53 H          23.2996   39.4249   -8.0149 H       1  UNL1        0.0266
     54 H          21.6993   40.0818   -7.9695 H       1  UNL1        0.0266
     55 H          22.3889   37.9478  -10.0362 H       1  UNL1        0.0280
     56 H          22.0585   37.5276   -8.3806 H       1  UNL1        0.0280
     57 H          19.9864   37.2859   -9.5725 H       1  UNL1        0.0461
     58 H          19.8319   38.6478   -8.4782 H       1  UNL1        0.0461
     59 H          20.7050   39.7428  -10.8363 H       1  UNL1        0.1461
     60 H          17.6446   37.9233   -9.8282 H       1  UNL1        0.0639
     61 H          15.1631   41.3802  -10.4756 H       1  UNL1        0.0628
     62 H          19.4105   41.6368  -11.1371 H       1  UNL1        0.0643
     63 H          17.4980   45.0252  -10.8431 H       1  UNL1        0.1494
     64 H          19.1267   46.0253   -9.1555 H       1  UNL1        0.0286
     65 H          20.0230   44.9145  -10.1112 H       1  UNL1        0.0286
     66 H          16.3005   46.0887   -8.8692 H       1  UNL1        0.0450
     67 H          15.8696   45.7474   -7.2420 H       1  UNL1        0.0450
     68 H          17.9902   46.2898   -6.4845 H       1  UNL1        0.1223
     69 H          16.8199   48.2341   -8.2955 H       1  UNL1        0.0473
     70 H          16.8621   48.2671   -6.5590 H       1  UNL1        0.0473
     71 H          17.7258   50.3903   -8.8672 H       1  UNL1        0.0621
     72 H          19.6870   51.8747   -8.9430 H       1  UNL1        0.0618
     73 H          21.7244   51.3549   -7.6272 H       1  UNL1        0.0620
     74 H          19.8374   47.7588   -6.1682 H       1  UNL1        0.0623
     75 H          22.1885   48.0977   -5.8314 H       1  UNL1        0.0343
     76 H          21.3005   49.6316   -4.0711 H       1  UNL1        0.0235
     77 H          22.2512   50.9525   -4.7376 H       1  UNL1        0.0235
     78 H          23.0575   49.5488   -4.0504 H       1  UNL1        0.0235
     79 H          23.4802   48.9349   -7.7523 H       1  UNL1        0.0235
     80 H          24.3595   49.2002   -6.2590 H       1  UNL1        0.0235
     81 H          23.5444   50.5491   -7.0482 H       1  UNL1        0.0235
     82 H          15.7854   43.0521   -7.5353 H       1  UNL1        0.2099
     83 H          14.1755   39.3811   -9.8042 H       1  UNL1        0.0610
     84 H          14.9269   37.9206  -10.4344 H       1  UNL1        0.0610
     85 H          15.1217   38.7931   -6.4293 H       1  UNL1        0.0524
     86 H          14.0748   39.7379   -7.4935 H       1  UNL1        0.0524
     87 H          15.8322   39.9787   -7.5280 H       1  UNL1        0.0524
@<TRIPOS>BOND
     1     1     2    1
     2     1    42    1
     3     1    43    1
     4     1    44    1
     5     2    39    1
     6     2    21    1
     7     2     3    1
     8     3     4    1
     9     3    45    1
    10     3    46    1
    11     4     5    1
    12     4    47    1
    13     4    48    1
    14     5     6    1
    15     5    49    1
    16     5    50    1
    17     6     7    1
    18     6    51    1
    19     6    52    1
    20     7     8    1
    21     7    53    1
    22     7    54    1
    23     8     9    1
    24     8    55    1
    25     8    56    1
    26     9    10    1
    27     9    57    1
    28     9    58    1
    29    10    11    1
    30    10    59    1
    31    11    16   ar
    32    11    12   ar
    33    12    13   ar
    34    12    60    1
    35    13    14   ar
    36    13    36    1
    37    14    15   ar
    38    14    61    1
    39    15    16   ar
    40    15    17    1
    41    16    62    1
    42    17    18    2
    43    17    19   am
    44    19    20    1
    45    19    63    1
    46    20    40    1
    47    20    21    1
    48    20    22    1
    49    21    64    1
    50    21    65    1
    51    22    41    1
    52    22    23    1
    53    22    35    1
    54    23    24    1
    55    23    66    1
    56    23    67    1
    57    24    25    1
    58    24    68    1
    59    25    26    1
    60    25    69    1
    61    25    70    1
    62    26    31   ar
    63    26    27   ar
    64    27    28   ar
    65    27    71    1
    66    28    29   ar
    67    28    72    1
    68    29    30   ar
    69    29    73    1
    70    30    31   ar
    71    30    32    1
    72    31    74    1
    73    32    33    1
    74    32    34    1
    75    32    75    1
    76    33    76    1
    77    33    77    1
    78    33    78    1
    79    34    79    1
    80    34    80    1
    81    34    81    1
    82    35    82    1
    83    36    37    1
    84    36    83    1
    85    36    84    1
    86    37    38    1
    87    38    85    1
    88    38    86    1
    89    38    87    1
