@<TRIPOS>MOLECULE
BACE_12.smi:1
 79 82 0 0 0
SMALL
GASTEIGER
****
Structure written by MMmdl.
@<TRIPOS>ATOM
      1 C          29.4447   41.3499  -13.5974 C.3     1  UNL1       -0.0586
      2 C          29.6935   42.3775  -12.4883 C.3     1  UNL1       -0.0215
      3 C          30.4575   41.7593  -11.3071 C.3     1  UNL1       -0.0586
      4 C          28.3986   43.0437  -12.0414 C.ar    1  UNL1       -0.0444
      5 C          28.1830   44.4096  -12.3230 C.ar    1  UNL1       -0.0583
      6 C          27.0121   45.0515  -11.8790 C.ar    1  UNL1       -0.0611
      7 C          26.0518   44.3322  -11.1438 C.ar    1  UNL1       -0.0535
      8 C          26.2461   42.9615  -10.8730 C.ar    1  UNL1       -0.0027
      9 C          27.4158   42.3179  -11.3315 C.ar    1  UNL1       -0.0501
     10 C          25.2296   42.1937  -10.0505 C.3     1  UNL1       -0.0076
     11 N          24.0624   41.7497  -10.8400 N.4     1  UNL1        0.2321
     12 C          23.1089   42.8027  -11.2576 C.3     1  UNL1       -0.0049
     13 C          21.6861   42.2689  -11.5601 C.3     1  UNL1        0.1133
     14 C          20.9434   41.6913  -10.3246 C.3     1  UNL1        0.0583
     15 C          21.3475   40.2421   -9.9491 C.3     1  UNL1       -0.0066
     16 C          20.4422   39.6147   -8.9113 C.ar    1  UNL1       -0.0453
     17 C          20.5120   40.0332   -7.5664 C.ar    1  UNL1       -0.0585
     18 C          19.6599   39.4588   -6.6064 C.ar    1  UNL1       -0.0612
     19 C          18.7353   38.4712   -6.9884 C.ar    1  UNL1       -0.0586
     20 C          18.6707   38.0432   -8.3305 C.ar    1  UNL1       -0.0471
     21 C          19.5240   38.6162   -9.2918 C.ar    1  UNL1       -0.0553
     22 C          17.7118   36.9407   -8.7251 C.3     1  UNL1       -0.0276
     23 C          16.2446   37.3615   -8.6346 C.3     1  UNL1       -0.0476
     24 C          15.7869   38.3597   -9.7010 C.3     1  UNL1       -0.0371
     25 C          14.9159   39.4831   -9.1161 C.3     1  UNL1        0.0104
     26 N          14.4598   40.4166  -10.1361 N.pl3   1  UNL1       -0.3289
     27 C          15.2159   41.5599  -10.4222 C.ar    1  UNL1        0.1232
     28 C          16.6084   41.6363  -10.1902 C.ar    1  UNL1       -0.0095
     29 C          17.2982   42.8183  -10.5363 C.ar    1  UNL1        0.0450
     30 C          16.5506   43.8961  -11.0551 C.ar    1  UNL1        0.0122
     31 C          15.1644   43.7377  -11.2399 C.ar    1  UNL1        0.2168
     32 N          14.5157   42.5832  -10.9533 N.ar    1  UNL1       -0.1981
     33 O          14.4445   44.7860  -11.7755 O.3     1  UNL1       -0.4796
     34 C          13.0748   44.5617  -12.0918 C.3     1  UNL1        0.0804
     35 C          18.7812   42.9453  -10.3311 C.2     1  UNL1        0.2447
     36 O          19.2986   44.0384  -10.0985 O.2     1  UNL1       -0.2702
     37 N          19.4910   41.8143  -10.4885 N.am    1  UNL1       -0.3055
     38 O          21.6600   41.3502  -12.6425 O.3     1  UNL1       -0.3847
     39 H          21.1297   43.1391  -11.9078 H       1  UNL1        0.0666
     40 H          21.1918   42.3137   -9.4620 H       1  UNL1        0.0529
     41 H          28.9121   41.7911  -14.4391 H       1  UNL1        0.0235
     42 H          28.8602   40.5049  -13.2341 H       1  UNL1        0.0235
     43 H          30.3853   40.9502  -13.9782 H       1  UNL1        0.0235
     44 H          30.3345   43.1527  -12.9097 H       1  UNL1        0.0343
     45 H          30.6686   42.5058  -10.5407 H       1  UNL1        0.0235
     46 H          31.4095   41.3506  -11.6408 H       1  UNL1        0.0235
     47 H          29.8969   40.9501  -10.8397 H       1  UNL1        0.0235
     48 H          28.9218   44.9749  -12.8718 H       1  UNL1        0.0620
     49 H          26.8619   46.1008  -12.0881 H       1  UNL1        0.0618
     50 H          25.1709   44.8428  -10.7821 H       1  UNL1        0.0622
     51 H          27.5770   41.2707  -11.1148 H       1  UNL1        0.0625
     52 H          25.7089   41.3024   -9.6400 H       1  UNL1        0.0866
     53 H          24.9072   42.7915   -9.1966 H       1  UNL1        0.0866
     54 H          24.3808   41.2736  -11.6840 H       1  UNL1        0.2018
     55 H          23.0329   43.5554  -10.4712 H       1  UNL1        0.0840
     56 H          23.5113   43.3109  -12.1351 H       1  UNL1        0.0840
     57 H          21.3436   39.5987  -10.8298 H       1  UNL1        0.0332
     58 H          22.3619   40.2068   -9.5558 H       1  UNL1        0.0332
     59 H          21.2119   40.7994   -7.2656 H       1  UNL1        0.0620
     60 H          19.7028   39.7797   -5.5757 H       1  UNL1        0.0618
     61 H          18.0798   38.0305   -6.2480 H       1  UNL1        0.0620
     62 H          19.4713   38.2879  -10.3207 H       1  UNL1        0.0623
     63 H          17.9420   36.5720   -9.7252 H       1  UNL1        0.0313
     64 H          17.8717   36.1056   -8.0441 H       1  UNL1        0.0313
     65 H          15.6600   36.4553   -8.7446 H       1  UNL1        0.0269
     66 H          16.0283   37.7510   -7.6400 H       1  UNL1        0.0269
     67 H          16.6442   38.7672  -10.2343 H       1  UNL1        0.0280
     68 H          15.2111   37.8134  -10.4400 H       1  UNL1        0.0280
     69 H          14.0339   39.0547   -8.6384 H       1  UNL1        0.0461
     70 H          15.4513   40.0176   -8.3300 H       1  UNL1        0.0461
     71 H          13.4529   40.4957  -10.2277 H       1  UNL1        0.1475
     72 H          17.1461   40.8138   -9.7438 H       1  UNL1        0.0659
     73 H          17.0312   44.8292  -11.3133 H       1  UNL1        0.0678
     74 H          12.6539   45.4675  -12.5284 H       1  UNL1        0.0660
     75 H          12.4934   44.3200  -11.1998 H       1  UNL1        0.0660
     76 H          12.9622   43.7580  -12.8217 H       1  UNL1        0.0660
     77 H          18.9816   40.9680  -10.6968 H       1  UNL1        0.1494
     78 H          22.5433   41.0423  -12.8403 H       1  UNL1        0.2101
     79 H          23.5648   41.0796  -10.2739 H       1  UNL1        0.2018
@<TRIPOS>BOND
     1     1     2    1
     2     1    41    1
     3     1    42    1
     4     1    43    1
     5     2     3    1
     6     2     4    1
     7     2    44    1
     8     3    45    1
     9     3    46    1
    10     3    47    1
    11     4     9   ar
    12     4     5   ar
    13     5     6   ar
    14     5    48    1
    15     6     7   ar
    16     6    49    1
    17     7     8   ar
    18     7    50    1
    19     8     9   ar
    20     8    10    1
    21     9    51    1
    22    10    11    1
    23    10    52    1
    24    10    53    1
    25    11    12    1
    26    11    54    1
    27    11    79    1
    28    12    13    1
    29    12    55    1
    30    12    56    1
    31    13    39    1
    32    13    14    1
    33    13    38    1
    34    14    40    1
    35    14    37    1
    36    14    15    1
    37    15    16    1
    38    15    57    1
    39    15    58    1
    40    16    21   ar
    41    16    17   ar
    42    17    18   ar
    43    17    59    1
    44    18    19   ar
    45    18    60    1
    46    19    20   ar
    47    19    61    1
    48    20    21   ar
    49    20    22    1
    50    21    62    1
    51    22    23    1
    52    22    63    1
    53    22    64    1
    54    23    24    1
    55    23    65    1
    56    23    66    1
    57    24    25    1
    58    24    67    1
    59    24    68    1
    60    25    26    1
    61    25    69    1
    62    25    70    1
    63    26    27    1
    64    26    71    1
    65    27    32   ar
    66    27    28   ar
    67    28    29   ar
    68    28    72    1
    69    29    30   ar
    70    29    35    1
    71    30    31   ar
    72    30    73    1
    73    31    32   ar
    74    31    33    1
    75    33    34    1
    76    34    74    1
    77    34    75    1
    78    34    76    1
    79    35    36    2
    80    35    37   am
    81    37    77    1
    82    38    78    1
