@<TRIPOS>MOLECULE
BACE_10.smi:1
 85 87 0 0 0
SMALL
GASTEIGER
****
Structure written by MMmdl.
@<TRIPOS>ATOM
      1 C          21.4519   38.3835   -8.4293 C.3     1  UNL1       -0.0623
      2 C          20.5726   39.3655   -9.2208 C.3     1  UNL1       -0.0400
      3 C          19.6627   38.6191  -10.2195 C.3     1  UNL1       -0.0268
      4 C          18.5890   37.7010   -9.6145 C.3     1  UNL1        0.0479
      5 O          17.6050   38.4663   -8.9393 O.3     1  UNL1       -0.3797
      6 C          16.3547   37.7957   -8.8537 C.3     1  UNL1        0.0477
      7 C          15.3630   38.5677   -7.9714 C.3     1  UNL1       -0.0281
      8 C          15.2623   40.0611   -8.2967 C.3     1  UNL1       -0.0354
      9 C          16.2409   40.8858   -7.4509 C.3     1  UNL1        0.0092
     10 N          16.0598   42.3132   -7.6400 N.pl3   1  UNL1       -0.3438
     11 C          16.7800   43.0286   -8.6012 C.ar    1  UNL1        0.0282
     12 C          16.8095   44.4338   -8.5022 C.ar    1  UNL1       -0.0355
     13 C          17.5125   45.2062   -9.4506 C.ar    1  UNL1       -0.0195
     14 C          18.1740   44.5622  -10.5178 C.ar    1  UNL1       -0.0442
     15 C          18.1658   43.1552  -10.6093 C.ar    1  UNL1        0.0388
     16 C          17.4648   42.3920   -9.6571 C.ar    1  UNL1       -0.0287
     17 C          18.8854   42.4648  -11.7236 C.2     1  UNL1        0.2444
     18 O          18.4603   42.5571  -12.8702 O.2     1  UNL1       -0.2702
     19 N          19.9828   41.7502  -11.4236 N.am    1  UNL1       -0.3060
     20 C          20.7457   41.7802  -10.1723 C.3     1  UNL1        0.0508
     21 C          21.4593   40.4281   -9.9235 C.3     1  UNL1       -0.0294
     22 C          21.6662   43.0337  -10.1691 C.3     1  UNL1        0.0859
     23 C          22.3650   43.3821   -8.8267 C.3     1  UNL1        0.0240
     24 N          21.5740   44.2357   -7.9231 N.3     1  UNL1       -0.3095
     25 C          20.4521   43.6514   -7.1776 C.3     1  UNL1        0.0213
     26 C          20.8535   42.7860   -5.9917 C.ar    1  UNL1       -0.0333
     27 C          21.4254   41.5101   -6.1804 C.ar    1  UNL1       -0.0573
     28 C          21.7798   40.7131   -5.0755 C.ar    1  UNL1       -0.0612
     29 C          21.5312   41.1746   -3.7703 C.ar    1  UNL1       -0.0583
     30 C          20.9162   42.4293   -3.5663 C.ar    1  UNL1       -0.0445
     31 C          20.6039   43.2384   -4.6796 C.ar    1  UNL1       -0.0539
     32 C          20.5355   42.8938   -2.1696 C.3     1  UNL1       -0.0215
     33 C          21.7544   43.3501   -1.3593 C.3     1  UNL1       -0.0586
     34 C          19.7166   41.8280   -1.4322 C.3     1  UNL1       -0.0586
     35 O          22.6698   42.8291  -11.1460 O.3     1  UNL1       -0.3887
     36 C          17.5516   46.7198   -9.3488 C.3     1  UNL1        0.0724
     37 O          17.2723   47.1932   -8.0397 O.3     1  UNL1       -0.3784
     38 C          17.4107   48.5983   -7.9273 C.3     1  UNL1        0.0369
     39 H          19.9343   39.8678   -8.4924 H       1  UNL1        0.0299
     40 H          20.0452   41.8885   -9.3581 H       1  UNL1        0.0524
     41 H          21.1047   43.9127  -10.4881 H       1  UNL1        0.0624
     42 H          22.0408   37.7468   -9.0886 H       1  UNL1        0.0232
     43 H          20.8399   37.7500   -7.7910 H       1  UNL1        0.0232
     44 H          22.1462   38.9045   -7.7703 H       1  UNL1        0.0232
     45 H          19.1572   39.3258  -10.8751 H       1  UNL1        0.0290
     46 H          20.2971   38.0142  -10.8581 H       1  UNL1        0.0290
     47 H          18.1298   37.1492  -10.4348 H       1  UNL1        0.0560
     48 H          19.0128   36.9554   -8.9427 H       1  UNL1        0.0560
     49 H          15.9374   37.6847   -9.8555 H       1  UNL1        0.0560
     50 H          16.4902   36.7919   -8.4480 H       1  UNL1        0.0560
     51 H          14.3722   38.1287   -8.0862 H       1  UNL1        0.0288
     52 H          15.6182   38.4457   -6.9175 H       1  UNL1        0.0288
     53 H          15.4045   40.2332   -9.3637 H       1  UNL1        0.0281
     54 H          14.2512   40.3921   -8.0677 H       1  UNL1        0.0281
     55 H          16.0476   40.6785   -6.3986 H       1  UNL1        0.0461
     56 H          17.2772   40.5981   -7.6278 H       1  UNL1        0.0461
     57 H          15.6585   42.8134   -6.8455 H       1  UNL1        0.1461
     58 H          16.2896   44.9195   -7.6894 H       1  UNL1        0.0639
     59 H          18.7047   45.1484  -11.2546 H       1  UNL1        0.0628
     60 H          17.4606   41.3156   -9.7500 H       1  UNL1        0.0643
     61 H          20.4236   41.2649  -12.1893 H       1  UNL1        0.1494
     62 H          22.3298   40.6115   -9.2955 H       1  UNL1        0.0286
     63 H          21.8752   40.0283  -10.8504 H       1  UNL1        0.0286
     64 H          22.7404   42.4993   -8.3160 H       1  UNL1        0.0450
     65 H          23.2654   43.9467   -9.0711 H       1  UNL1        0.0450
     66 H          21.2695   45.0750   -8.4076 H       1  UNL1        0.1223
     67 H          19.8539   44.4702   -6.7772 H       1  UNL1        0.0473
     68 H          19.7601   43.1159   -7.8147 H       1  UNL1        0.0473
     69 H          21.5884   41.1295   -7.1732 H       1  UNL1        0.0621
     70 H          22.2210   39.7384   -5.2284 H       1  UNL1        0.0618
     71 H          21.7900   40.5487   -2.9297 H       1  UNL1        0.0620
     72 H          20.1371   44.1995   -4.5254 H       1  UNL1        0.0623
     73 H          19.8751   43.7500   -2.2788 H       1  UNL1        0.0343
     74 H          22.3097   44.1460   -1.8525 H       1  UNL1        0.0235
     75 H          22.4597   42.5499   -1.2401 H       1  UNL1        0.0235
     76 H          21.4641   43.7033   -0.3698 H       1  UNL1        0.0235
     77 H          18.8599   41.5445   -2.0391 H       1  UNL1        0.0235
     78 H          19.3406   42.1976   -0.4781 H       1  UNL1        0.0235
     79 H          20.2892   40.9217   -1.2396 H       1  UNL1        0.0235
     80 H          23.1201   42.0149  -10.9708 H       1  UNL1        0.2099
     81 H          18.5423   47.0611   -9.6563 H       1  UNL1        0.0610
     82 H          16.8314   47.1351  -10.0540 H       1  UNL1        0.0610
     83 H          17.1641   48.9132   -6.9136 H       1  UNL1        0.0524
     84 H          16.7418   49.1178   -8.6141 H       1  UNL1        0.0524
     85 H          18.4356   48.9083   -8.1361 H       1  UNL1        0.0524
@<TRIPOS>BOND
     1     1     2    1
     2     1    42    1
     3     1    43    1
     4     1    44    1
     5     2    39    1
     6     2    21    1
     7     2     3    1
     8     3     4    1
     9     3    45    1
    10     3    46    1
    11     4     5    1
    12     4    47    1
    13     4    48    1
    14     5     6    1
    15     6     7    1
    16     6    49    1
    17     6    50    1
    18     7     8    1
    19     7    51    1
    20     7    52    1
    21     8     9    1
    22     8    53    1
    23     8    54    1
    24     9    10    1
    25     9    55    1
    26     9    56    1
    27    10    11    1
    28    10    57    1
    29    11    16   ar
    30    11    12   ar
    31    12    13   ar
    32    12    58    1
    33    13    14   ar
    34    13    36    1
    35    14    15   ar
    36    14    59    1
    37    15    16   ar
    38    15    17    1
    39    16    60    1
    40    17    18    2
    41    17    19   am
    42    19    20    1
    43    19    61    1
    44    20    40    1
    45    20    21    1
    46    20    22    1
    47    21    62    1
    48    21    63    1
    49    22    41    1
    50    22    23    1
    51    22    35    1
    52    23    24    1
    53    23    64    1
    54    23    65    1
    55    24    25    1
    56    24    66    1
    57    25    26    1
    58    25    67    1
    59    25    68    1
    60    26    31   ar
    61    26    27   ar
    62    27    28   ar
    63    27    69    1
    64    28    29   ar
    65    28    70    1
    66    29    30   ar
    67    29    71    1
    68    30    31   ar
    69    30    32    1
    70    31    72    1
    71    32    33    1
    72    32    34    1
    73    32    73    1
    74    33    74    1
    75    33    75    1
    76    33    76    1
    77    34    77    1
    78    34    78    1
    79    34    79    1
    80    35    80    1
    81    36    37    1
    82    36    81    1
    83    36    82    1
    84    37    38    1
    85    38    83    1
    86    38    84    1
    87    38    85    1
