@<TRIPOS>MOLECULE
BACE_2.smi:1
 96 98 0 0 0
SMALL
GASTEIGER
****
Structure written by MMmdl.
@<TRIPOS>ATOM
      1 C          19.7545   39.2436   -7.9415 C.ar    1  UNL1       -0.0192
      2 C          19.9276   39.4886   -6.5654 C.ar    1  UNL1       -0.0548
      3 C          20.9311   40.3740   -6.1287 C.ar    1  UNL1       -0.0441
      4 C          21.1187   40.6392   -4.6417 C.3     1  UNL1       -0.0215
      5 C          22.4212   40.0206   -4.1036 C.3     1  UNL1       -0.0586
      6 C          21.0123   42.1368   -4.3032 C.3     1  UNL1       -0.0586
      7 C          21.7644   41.0101   -7.0684 C.ar    1  UNL1       -0.0463
      8 C          21.5945   40.7653   -8.4468 C.ar    1  UNL1        0.0420
      9 C          20.5758   39.8842   -8.8905 C.ar    1  UNL1        0.1298
     10 C          22.5096   41.4460   -9.4484 C.3     1  UNL1        0.0105
     11 C          22.4062   40.7994  -10.8322 C.3     1  UNL1        0.0341
     12 C          20.9382   40.5123  -11.1640 C.3     1  UNL1        0.1105
     13 O          20.3724   39.6019  -10.2232 O.3     1  UNL1       -0.4855
     14 C          20.1256   41.8039  -11.1782 C.3     1  UNL1       -0.0250
     15 C          20.8253   39.9044  -12.5592 C.3     1  UNL1       -0.0250
     16 N          23.9010   41.4132   -8.9721 N.4     1  UNL1        0.2345
     17 C          24.5754   42.7195   -8.7722 C.3     1  UNL1       -0.0047
     18 C          23.7860   43.6867   -7.8554 C.3     1  UNL1        0.1130
     19 O          23.3234   42.9731   -6.7232 O.3     1  UNL1       -0.3847
     20 C          24.6242   44.9180   -7.3938 C.3     1  UNL1        0.0543
     21 N          23.7773   45.8780   -6.6743 N.am    1  UNL1       -0.3083
     22 C          23.8649   47.2077   -6.6783 C.2     1  UNL1        0.2336
     23 O          24.7534   47.8161   -7.2516 O.2     1  UNL1       -0.2738
     24 C          22.7429   47.9538   -5.9215 C.3     1  UNL1        0.0991
     25 C          21.7630   48.6101   -6.8898 C.3     1  UNL1       -0.0379
     26 C          25.8791   44.5613   -6.5431 C.3     1  UNL1       -0.0293
     27 C          27.1484   45.3418   -6.9446 C.3     1  UNL1       -0.0421
     28 C          27.4954   44.9882   -8.3879 C.3     1  UNL1       -0.0624
     29 C          28.3816   45.0495   -6.0626 C.3     1  UNL1       -0.0504
     30 C          28.3021   45.5717   -4.6110 C.3     1  UNL1       -0.0528
     31 C          28.1300   47.0993   -4.5095 C.3     1  UNL1       -0.0530
     32 C          28.2158   47.6328   -3.0663 C.3     1  UNL1       -0.0531
     33 C          28.0514   49.1658   -2.9612 C.3     1  UNL1       -0.0530
     34 C          26.6494   49.6991   -3.3271 C.3     1  UNL1       -0.0526
     35 C          25.5685   49.3971   -2.2677 C.3     1  UNL1       -0.0448
     36 C          24.1268   49.6659   -2.7623 C.3     1  UNL1        0.0242
     37 C          23.5747   48.5691   -3.6801 C.2     1  UNL1        0.2159
     38 O          23.4148   47.4438   -3.2370 O.2     1  UNL1       -0.2756
     39 N          23.2805   48.9217   -4.9408 N.am    1  UNL1       -0.2932
     40 C          23.5374   50.2904   -5.3412 C.3     1  UNL1        0.0039
     41 H          22.2201   42.4950   -9.5097 H       1  UNL1        0.0906
     42 H          22.9151   44.0399   -8.4092 H       1  UNL1        0.0666
     43 H          24.9734   45.4165   -8.2980 H       1  UNL1        0.0526
     44 H          22.1625   47.2031   -5.3850 H       1  UNL1        0.0594
     45 H          26.9480   46.4132   -6.9580 H       1  UNL1        0.0299
     46 H          18.9836   38.5623   -8.2699 H       1  UNL1        0.0654
     47 H          19.2904   38.9964   -5.8456 H       1  UNL1        0.0622
     48 H          20.3012   40.1447   -4.1154 H       1  UNL1        0.0343
     49 H          22.4540   38.9474   -4.2949 H       1  UNL1        0.0235
     50 H          22.5042   40.1599   -3.0252 H       1  UNL1        0.0235
     51 H          23.3055   40.4669   -4.5591 H       1  UNL1        0.0235
     52 H          20.0577   42.5469   -4.6346 H       1  UNL1        0.0235
     53 H          21.8055   42.7201   -4.7715 H       1  UNL1        0.0235
     54 H          21.0790   42.3005   -3.2271 H       1  UNL1        0.0235
     55 H          22.5366   41.6839   -6.7275 H       1  UNL1        0.0626
     56 H          22.8617   41.4402  -11.5871 H       1  UNL1        0.0362
     57 H          22.9601   39.8607  -10.8425 H       1  UNL1        0.0362
     58 H          20.5149   42.5078  -11.9147 H       1  UNL1        0.0268
     59 H          20.1237   42.3117  -10.2141 H       1  UNL1        0.0268
     60 H          19.0834   41.6092  -11.4341 H       1  UNL1        0.0268
     61 H          21.2496   40.5626  -13.3184 H       1  UNL1        0.0268
     62 H          19.7849   39.7194  -12.8292 H       1  UNL1        0.0268
     63 H          21.3480   38.9493  -12.6227 H       1  UNL1        0.0268
     64 H          23.8852   40.9508   -8.0743 H       1  UNL1        0.2021
     65 H          25.6077   42.5856   -8.4457 H       1  UNL1        0.0840
     66 H          24.6346   43.1562   -9.7695 H       1  UNL1        0.0840
     67 H          24.0721   42.6855   -6.2235 H       1  UNL1        0.2101
     68 H          23.0030   45.4865   -6.1572 H       1  UNL1        0.1491
     69 H          21.3515   47.8829   -7.5911 H       1  UNL1        0.0252
     70 H          22.2339   49.4010   -7.4747 H       1  UNL1        0.0252
     71 H          20.9201   49.0537   -6.3587 H       1  UNL1        0.0252
     72 H          25.6617   44.6913   -5.4829 H       1  UNL1        0.0286
     73 H          26.0867   43.4978   -6.6610 H       1  UNL1        0.0286
     74 H          28.3984   45.4983   -8.7221 H       1  UNL1        0.0232
     75 H          26.7046   45.2779   -9.0788 H       1  UNL1        0.0232
     76 H          27.6624   43.9172   -8.5087 H       1  UNL1        0.0232
     77 H          28.5389   43.9714   -6.0330 H       1  UNL1        0.0268
     78 H          29.2718   45.4560   -6.5425 H       1  UNL1        0.0268
     79 H          29.1860   45.2633   -4.0526 H       1  UNL1        0.0265
     80 H          27.4607   45.0848   -4.1180 H       1  UNL1        0.0265
     81 H          28.8853   47.5931   -5.1209 H       1  UNL1        0.0265
     82 H          27.1648   47.3695   -4.9378 H       1  UNL1        0.0265
     83 H          29.1857   47.3605   -2.6501 H       1  UNL1        0.0265
     84 H          27.4793   47.1291   -2.4402 H       1  UNL1        0.0265
     85 H          28.3036   49.4881   -1.9510 H       1  UNL1        0.0265
     86 H          28.7906   49.6409   -3.6062 H       1  UNL1        0.0265
     87 H          26.3485   49.3144   -4.3016 H       1  UNL1        0.0265
     88 H          26.7073   50.7795   -3.4589 H       1  UNL1        0.0265
     89 H          25.6475   48.3699   -1.9117 H       1  UNL1        0.0270
     90 H          25.7655   50.0150   -1.3916 H       1  UNL1        0.0270
     91 H          24.0640   50.6435   -3.2403 H       1  UNL1        0.0358
     92 H          23.4519   49.7212   -1.9083 H       1  UNL1        0.0358
     93 H          23.1524   50.5343   -6.3294 H       1  UNL1        0.0429
     94 H          24.6069   50.5038   -5.3514 H       1  UNL1        0.0429
     95 H          23.0443   50.9944   -4.6695 H       1  UNL1        0.0429
     96 H          24.4547   40.8510   -9.6024 H       1  UNL1        0.2021
@<TRIPOS>BOND
     1     1     9   ar
     2     1     2   ar
     3     1    46    1
     4     2     3   ar
     5     2    47    1
     6     3     4    1
     7     3     7   ar
     8     4     5    1
     9     4     6    1
    10     4    48    1
    11     5    49    1
    12     5    50    1
    13     5    51    1
    14     6    52    1
    15     6    53    1
    16     6    54    1
    17     7     8   ar
    18     7    55    1
    19     8     9   ar
    20     8    10    1
    21     9    13    1
    22    10    41    1
    23    10    11    1
    24    10    16    1
    25    11    12    1
    26    11    56    1
    27    11    57    1
    28    12    13    1
    29    12    14    1
    30    12    15    1
    31    14    58    1
    32    14    59    1
    33    14    60    1
    34    15    61    1
    35    15    62    1
    36    15    63    1
    37    16    17    1
    38    16    64    1
    39    16    96    1
    40    17    18    1
    41    17    65    1
    42    17    66    1
    43    18    42    1
    44    18    19    1
    45    18    20    1
    46    19    67    1
    47    20    43    1
    48    20    21    1
    49    20    26    1
    50    21    22   am
    51    21    68    1
    52    22    23    2
    53    22    24    1
    54    24    44    1
    55    24    39    1
    56    24    25    1
    57    25    69    1
    58    25    70    1
    59    25    71    1
    60    26    27    1
    61    26    72    1
    62    26    73    1
    63    27    45    1
    64    27    28    1
    65    27    29    1
    66    28    74    1
    67    28    75    1
    68    28    76    1
    69    29    30    1
    70    29    77    1
    71    29    78    1
    72    30    31    1
    73    30    79    1
    74    30    80    1
    75    31    32    1
    76    31    81    1
    77    31    82    1
    78    32    33    1
    79    32    83    1
    80    32    84    1
    81    33    34    1
    82    33    85    1
    83    33    86    1
    84    34    35    1
    85    34    87    1
    86    34    88    1
    87    35    36    1
    88    35    89    1
    89    35    90    1
    90    36    37    1
    91    36    91    1
    92    36    92    1
    93    37    38    2
    94    37    39   am
    95    39    40    1
    96    40    93    1
    97    40    94    1
    98    40    95    1
