@<TRIPOS>MOLECULE
BACE_18.smi:1
 66 67 0 0 0
SMALL
GASTEIGER
****
Structure written by MMmdl.
@<TRIPOS>ATOM
      1 O          13.4899   44.5526   -7.8867 O.3     1  UNL1       -0.3924
      2 C          14.6674   44.6845   -8.6550 C.3     1  UNL1        0.0719
      3 C          15.7811   43.6877   -8.2613 C.3     1  UNL1        0.0965
      4 O          16.9996   44.0191   -8.8881 O.3     1  UNL1       -0.3877
      5 C          15.4420   42.1657   -8.3476 C.3     1  UNL1        0.0517
      6 N          14.6983   41.7008   -9.5309 N.am    1  UNL1       -0.3059
      7 C          15.0454   41.6537  -10.8298 C.2     1  UNL1        0.2445
      8 O          14.4466   40.9500  -11.6398 O.2     1  UNL1       -0.2702
      9 C          16.6190   41.2410   -7.9475 C.3     1  UNL1       -0.0294
     10 C          16.3392   39.7172   -7.8118 C.3     1  UNL1       -0.0421
     11 C          15.0193   39.4056   -7.0748 C.3     1  UNL1       -0.0624
     12 C          17.4878   38.9854   -7.0697 C.3     1  UNL1       -0.0504
     13 C          18.9039   39.1144   -7.6557 C.3     1  UNL1       -0.0528
     14 C          19.1293   38.2560   -8.9095 C.3     1  UNL1       -0.0530
     15 C          20.5689   38.3564   -9.4537 C.3     1  UNL1       -0.0530
     16 C          20.6573   39.0677  -10.8106 C.3     1  UNL1       -0.0500
     17 C          20.3455   40.5670  -10.7327 C.3     1  UNL1       -0.0186
     18 C          20.1136   41.1661  -12.1253 C.3     1  UNL1        0.0896
     19 O          19.7957   42.5480  -12.0398 O.3     1  UNL1       -0.4919
     20 C          18.4806   42.9276  -11.8999 C.ar    1  UNL1        0.1219
     21 C          17.4466   42.0656  -11.4620 C.ar    1  UNL1       -0.0078
     22 C          16.1346   42.5521  -11.3200 C.ar    1  UNL1        0.0409
     23 C          18.1777   44.2733  -12.1931 C.ar    1  UNL1       -0.0078
     24 C          16.8613   44.7711  -12.0700 C.ar    1  UNL1        0.0410
     25 C          15.8374   43.8786  -11.6974 C.ar    1  UNL1       -0.0373
     26 C          16.5197   46.2110  -12.3619 C.2     1  UNL1        0.2463
     27 O          15.5178   46.4612  -13.0370 O.2     1  UNL1       -0.2700
     28 N          17.2987   47.1938  -11.8442 N.am    1  UNL1       -0.3036
     29 C          17.0793   48.5878  -12.2363 C.3     1  UNL1        0.0031
     30 C          18.3020   47.0115  -10.7904 C.3     1  UNL1        0.0031
     31 H          16.0600   43.9019   -7.2400 H       1  UNL1        0.0635
     32 H          14.7051   42.0357   -7.5547 H       1  UNL1        0.0525
     33 H          16.2561   39.2972   -8.8145 H       1  UNL1        0.0299
     34 H          13.1313   43.6890   -8.0395 H       1  UNL1        0.2095
     35 H          14.3683   44.5730   -9.6879 H       1  UNL1        0.0583
     36 H          15.0357   45.7047   -8.5413 H       1  UNL1        0.0583
     37 H          17.6634   43.4221   -8.5763 H       1  UNL1        0.2100
     38 H          13.8894   41.1353   -9.3014 H       1  UNL1        0.1494
     39 H          17.4351   41.3820   -8.6538 H       1  UNL1        0.0286
     40 H          16.9872   41.6049   -6.9906 H       1  UNL1        0.0286
     41 H          14.9939   39.8649   -6.0846 H       1  UNL1        0.0232
     42 H          14.8890   38.3319   -6.9324 H       1  UNL1        0.0232
     43 H          14.1446   39.7480   -7.6251 H       1  UNL1        0.0232
     44 H          17.5113   39.3407   -6.0403 H       1  UNL1        0.0268
     45 H          17.2600   37.9231   -6.9923 H       1  UNL1        0.0268
     46 H          19.1556   40.1570   -7.8425 H       1  UNL1        0.0265
     47 H          19.6080   38.7820   -6.8918 H       1  UNL1        0.0265
     48 H          18.9168   37.2159   -8.6615 H       1  UNL1        0.0265
     49 H          18.4066   38.5230   -9.6811 H       1  UNL1        0.0265
     50 H          21.2277   38.8419   -8.7327 H       1  UNL1        0.0265
     51 H          20.9674   37.3501   -9.5712 H       1  UNL1        0.0265
     52 H          21.6599   38.9502  -11.2218 H       1  UNL1        0.0266
     53 H          19.9819   38.5760  -11.5123 H       1  UNL1        0.0266
     54 H          19.4715   40.7331  -10.1079 H       1  UNL1        0.0298
     55 H          21.1658   41.0876  -10.2372 H       1  UNL1        0.0298
     56 H          21.0299   41.0769  -12.7100 H       1  UNL1        0.0696
     57 H          19.3527   40.6160  -12.6821 H       1  UNL1        0.0696
     58 H          17.6351   41.0316  -11.2169 H       1  UNL1        0.0662
     59 H          18.9755   44.9250  -12.5167 H       1  UNL1        0.0662
     60 H          14.8157   44.2254  -11.6777 H       1  UNL1        0.0633
     61 H          16.9408   48.6782  -13.3149 H       1  UNL1        0.0428
     62 H          17.9256   49.2229  -11.9722 H       1  UNL1        0.0428
     63 H          16.1915   48.9849  -11.7445 H       1  UNL1        0.0428
     64 H          18.0649   46.1765  -10.1312 H       1  UNL1        0.0428
     65 H          18.3696   47.8926  -10.1510 H       1  UNL1        0.0428
     66 H          19.2878   46.8424  -11.2238 H       1  UNL1        0.0428
@<TRIPOS>BOND
     1     1     2    1
     2     1    34    1
     3     2     3    1
     4     2    35    1
     5     2    36    1
     6     3    31    1
     7     3     4    1
     8     3     5    1
     9     4    37    1
    10     5    32    1
    11     5     6    1
    12     5     9    1
    13     6     7   am
    14     6    38    1
    15     7    22    1
    16     7     8    2
    17     9    10    1
    18     9    39    1
    19     9    40    1
    20    10    33    1
    21    10    11    1
    22    10    12    1
    23    11    41    1
    24    11    42    1
    25    11    43    1
    26    12    13    1
    27    12    44    1
    28    12    45    1
    29    13    14    1
    30    13    46    1
    31    13    47    1
    32    14    15    1
    33    14    48    1
    34    14    49    1
    35    15    16    1
    36    15    50    1
    37    15    51    1
    38    16    17    1
    39    16    52    1
    40    16    53    1
    41    17    18    1
    42    17    54    1
    43    17    55    1
    44    18    19    1
    45    18    56    1
    46    18    57    1
    47    19    20    1
    48    20    21   ar
    49    20    23   ar
    50    21    22   ar
    51    21    58    1
    52    22    25   ar
    53    23    24   ar
    54    23    59    1
    55    24    25   ar
    56    24    26    1
    57    25    60    1
    58    26    27    2
    59    26    28   am
    60    28    29    1
    61    28    30    1
    62    29    61    1
    63    29    62    1
    64    29    63    1
    65    30    64    1
    66    30    65    1
    67    30    66    1
