@<TRIPOS>MOLECULE
BACE_20.smi:1
 78 79 0 0 0
SMALL
GASTEIGER
****
Structure written by MMmdl.
@<TRIPOS>ATOM
      1 C          29.3845   44.8285   -4.5143 C.3     1  UNL1       -0.0652
      2 C          30.7213   45.2091   -5.1739 C.3     1  UNL1       -0.0545
      3 C          31.0004   44.4991   -6.5128 C.3     1  UNL1       -0.0377
      4 C          29.8705   44.6627   -7.5406 C.3     1  UNL1        0.0104
      5 N          30.2235   44.1037   -8.8403 N.pl3   1  UNL1       -0.3289
      6 C          29.2786   43.4722   -9.6623 C.ar    1  UNL1        0.1232
      7 C          27.8908   43.4948   -9.3973 C.ar    1  UNL1       -0.0095
      8 C          27.0120   42.7878  -10.2445 C.ar    1  UNL1        0.0450
      9 C          27.5600   42.1373  -11.3690 C.ar    1  UNL1        0.0122
     10 C          28.9503   42.1890  -11.5757 C.ar    1  UNL1        0.2168
     11 N          29.7972   42.8298  -10.7289 N.ar    1  UNL1       -0.1981
     12 O          29.4669   41.5659  -12.6925 O.3     1  UNL1       -0.4796
     13 C          30.8460   41.7500  -12.9926 C.3     1  UNL1        0.0804
     14 C          25.5369   42.7578   -9.9468 C.2     1  UNL1        0.2446
     15 O          25.0309   43.6174   -9.2263 O.2     1  UNL1       -0.2702
     16 N          24.8547   41.7069  -10.4396 N.am    1  UNL1       -0.3057
     17 C          23.4488   41.3552  -10.1898 C.3     1  UNL1        0.0533
     18 C          23.3076   40.9357   -8.6976 C.3     1  UNL1       -0.0068
     19 C          22.0625   40.1268   -8.3613 C.ar    1  UNL1       -0.0455
     20 C          21.1679   40.5788   -7.3640 C.ar    1  UNL1       -0.0585
     21 C          19.9850   39.8620   -7.0923 C.ar    1  UNL1       -0.0615
     22 C          19.6868   38.6938   -7.8178 C.ar    1  UNL1       -0.0617
     23 C          20.5804   38.2363   -8.8050 C.ar    1  UNL1       -0.0615
     24 C          21.7759   38.9325   -9.0558 C.ar    1  UNL1       -0.0585
     25 C          22.4863   42.4914  -10.6781 C.3     1  UNL1        0.0745
     26 C          20.9619   42.2054  -10.6724 C.3     1  UNL1       -0.0143
     27 C          20.3217   41.4706  -11.8802 C.3     1  UNL1        0.0351
     28 C          21.0078   40.1656  -12.3397 C.3     1  UNL1       -0.0540
     29 C          18.8187   41.2769  -11.6222 C.2     1  UNL1        0.2159
     30 O          18.0098   42.0785  -12.0917 O.2     1  UNL1       -0.2755
     31 N          18.4609   40.2357  -10.8563 N.am    1  UNL1       -0.3151
     32 C          17.0979   39.8810  -10.4804 C.3     1  UNL1        0.0116
     33 C          16.6775   40.5643   -9.1684 C.3     1  UNL1       -0.0376
     34 C          15.2459   40.2176   -8.7185 C.3     1  UNL1       -0.0545
     35 C          15.0676   38.7569   -8.2674 C.3     1  UNL1       -0.0652
     36 O          22.8606   42.9500  -11.9691 O.3     1  UNL1       -0.3899
     37 H          23.2931   40.4730  -10.8043 H       1  UNL1        0.0527
     38 H          22.6190   43.3426  -10.0109 H       1  UNL1        0.0612
     39 H          20.3766   42.1491  -12.7251 H       1  UNL1        0.0392
     40 H          29.3165   45.2458   -3.5109 H       1  UNL1        0.0230
     41 H          29.2604   43.7508   -4.4401 H       1  UNL1        0.0230
     42 H          28.5398   45.2143   -5.0850 H       1  UNL1        0.0230
     43 H          31.5375   44.9849   -4.4845 H       1  UNL1        0.0263
     44 H          30.7500   46.2899   -5.3195 H       1  UNL1        0.0263
     45 H          31.1674   43.4360   -6.3339 H       1  UNL1        0.0280
     46 H          31.9347   44.8863   -6.9234 H       1  UNL1        0.0280
     47 H          29.6233   45.7157   -7.6705 H       1  UNL1        0.0461
     48 H          28.9889   44.1653   -7.1396 H       1  UNL1        0.0461
     49 H          31.1993   44.0220   -9.0804 H       1  UNL1        0.1475
     50 H          27.4815   44.0279   -8.5525 H       1  UNL1        0.0659
     51 H          26.9385   41.6036  -12.0720 H       1  UNL1        0.0678
     52 H          31.0879   41.2211  -13.9145 H       1  UNL1        0.0660
     53 H          31.4863   41.3518  -12.2034 H       1  UNL1        0.0660
     54 H          31.0790   42.8044  -13.1458 H       1  UNL1        0.0660
     55 H          25.3800   41.0485  -10.9968 H       1  UNL1        0.1494
     56 H          24.1594   40.3155   -8.4146 H       1  UNL1        0.0332
     57 H          23.3538   41.8162   -8.0546 H       1  UNL1        0.0332
     58 H          21.3730   41.4894   -6.8202 H       1  UNL1        0.0620
     59 H          19.2891   40.2151   -6.3444 H       1  UNL1        0.0618
     60 H          18.7705   38.1541   -7.6208 H       1  UNL1        0.0618
     61 H          20.3467   37.3493   -9.3688 H       1  UNL1        0.0618
     62 H          22.4602   38.5576   -9.8032 H       1  UNL1        0.0620
     63 H          20.4711   43.1798  -10.6189 H       1  UNL1        0.0298
     64 H          20.6667   41.7273   -9.7467 H       1  UNL1        0.0298
     65 H          22.0416   40.3290  -12.6523 H       1  UNL1        0.0237
     66 H          20.4845   39.7457  -13.1989 H       1  UNL1        0.0237
     67 H          21.0089   39.4040  -11.5616 H       1  UNL1        0.0237
     68 H          19.1964   39.6473  -10.4945 H       1  UNL1        0.1487
     69 H          17.0621   38.7968  -10.3723 H       1  UNL1        0.0462
     70 H          16.4043   40.1364  -11.2805 H       1  UNL1        0.0462
     71 H          16.7488   41.6476   -9.2893 H       1  UNL1        0.0280
     72 H          17.3714   40.3030   -8.3687 H       1  UNL1        0.0280
     73 H          14.5368   40.4462   -9.5168 H       1  UNL1        0.0263
     74 H          14.9768   40.8622   -7.8816 H       1  UNL1        0.0263
     75 H          14.0484   38.5849   -7.9226 H       1  UNL1        0.0230
     76 H          15.7372   38.5152   -7.4388 H       1  UNL1        0.0230
     77 H          15.2594   38.0530   -9.0751 H       1  UNL1        0.0230
     78 H          23.1735   42.2039  -12.4669 H       1  UNL1        0.2099
@<TRIPOS>BOND
     1     1     2    1
     2     1    40    1
     3     1    41    1
     4     1    42    1
     5     2     3    1
     6     2    43    1
     7     2    44    1
     8     3     4    1
     9     3    45    1
    10     3    46    1
    11     4     5    1
    12     4    47    1
    13     4    48    1
    14     5     6    1
    15     5    49    1
    16     6    11   ar
    17     6     7   ar
    18     7     8   ar
    19     7    50    1
    20     8     9   ar
    21     8    14    1
    22     9    10   ar
    23     9    51    1
    24    10    11   ar
    25    10    12    1
    26    12    13    1
    27    13    52    1
    28    13    53    1
    29    13    54    1
    30    14    15    2
    31    14    16   am
    32    16    17    1
    33    16    55    1
    34    17    37    1
    35    17    18    1
    36    17    25    1
    37    18    19    1
    38    18    56    1
    39    18    57    1
    40    19    24   ar
    41    19    20   ar
    42    20    21   ar
    43    20    58    1
    44    21    22   ar
    45    21    59    1
    46    22    23   ar
    47    22    60    1
    48    23    24   ar
    49    23    61    1
    50    24    62    1
    51    25    38    1
    52    25    26    1
    53    25    36    1
    54    26    27    1
    55    26    63    1
    56    26    64    1
    57    27    39    1
    58    27    28    1
    59    27    29    1
    60    28    65    1
    61    28    66    1
    62    28    67    1
    63    29    30    2
    64    29    31   am
    65    31    32    1
    66    31    68    1
    67    32    33    1
    68    32    69    1
    69    32    70    1
    70    33    34    1
    71    33    71    1
    72    33    72    1
    73    34    35    1
    74    34    73    1
    75    34    74    1
    76    35    75    1
    77    35    76    1
    78    35    77    1
    79    36    78    1
