@<TRIPOS>MOLECULE
BACE_6.smi:1
 82 84 0 0 0
SMALL
GASTEIGER
****
Structure written by MMmdl.
@<TRIPOS>ATOM
      1 C          16.9838   51.9185  -12.6701 C.3     1  UNL1       -0.0493
      2 C          17.7788   50.7374  -13.2462 C.3     1  UNL1        0.0121
      3 N          17.1832   49.4475  -12.8496 N.am    1  UNL1       -0.2978
      4 C          17.8036   48.8617  -11.6375 C.3     1  UNL1        0.0150
      5 C          16.8622   48.6991  -10.4207 C.3     1  UNL1       -0.0371
      6 C          17.6066   48.3514   -9.1143 C.3     1  UNL1       -0.0516
      7 C          18.3563   47.0004   -9.0949 C.3     1  UNL1       -0.0528
      8 C          17.4693   45.7731   -8.8102 C.3     1  UNL1       -0.0504
      9 C          18.2073   44.4082   -8.9160 C.3     1  UNL1       -0.0421
     10 C          17.2505   43.2002   -8.7181 C.3     1  UNL1       -0.0295
     11 C          16.6099   42.6026   -9.9983 C.3     1  UNL1        0.0508
     12 N          15.8733   43.6361  -10.7307 N.am    1  UNL1       -0.3060
     13 C          16.2438   44.1588  -11.9099 C.2     1  UNL1        0.2444
     14 O          17.1876   43.7497  -12.5876 O.2     1  UNL1       -0.2702
     15 C          15.4695   45.3591  -12.3543 C.ar    1  UNL1        0.0374
     16 C          14.0578   45.3573  -12.3611 C.ar    1  UNL1       -0.0496
     17 C          13.3594   46.4825  -12.8391 C.ar    1  UNL1       -0.0603
     18 C          14.0653   47.6263  -13.2577 C.ar    1  UNL1       -0.0496
     19 C          15.4771   47.6582  -13.2066 C.ar    1  UNL1        0.0376
     20 C          16.1696   46.4878  -12.8281 C.ar    1  UNL1       -0.0375
     21 C          16.1930   48.9146  -13.6260 C.2     1  UNL1        0.2466
     22 O          15.7766   49.4823  -14.6375 O.2     1  UNL1       -0.2700
     23 C          15.7510   41.3180   -9.7595 C.3     1  UNL1        0.0859
     24 C          14.8998   41.3000   -8.4639 C.3     1  UNL1        0.0240
     25 N          15.6425   40.9411   -7.2439 N.3     1  UNL1       -0.3095
     26 C          15.9194   39.5093   -7.0625 C.3     1  UNL1        0.0213
     27 C          17.1432   39.0023   -7.8052 C.ar    1  UNL1       -0.0333
     28 C          17.0340   37.8902   -8.6635 C.ar    1  UNL1       -0.0573
     29 C          18.1571   37.4386   -9.3795 C.ar    1  UNL1       -0.0612
     30 C          19.3928   38.0976   -9.2380 C.ar    1  UNL1       -0.0583
     31 C          19.5222   39.1964   -8.3623 C.ar    1  UNL1       -0.0445
     32 C          18.3906   39.6414   -7.6460 C.ar    1  UNL1       -0.0539
     33 C          20.8592   39.9083   -8.2006 C.3     1  UNL1       -0.0215
     34 C          21.2534   40.6503   -9.4870 C.3     1  UNL1       -0.0586
     35 C          21.9697   38.9487   -7.7375 C.3     1  UNL1       -0.0586
     36 O          14.8597   41.1191  -10.8501 O.3     1  UNL1       -0.3887
     37 C          19.3675   44.3137   -7.9057 C.3     1  UNL1       -0.0624
     38 H          18.6513   44.3315   -9.9091 H       1  UNL1        0.0299
     39 H          17.4427   42.2745  -10.6233 H       1  UNL1        0.0524
     40 H          16.4154   40.4594   -9.7718 H       1  UNL1        0.0624
     41 H          17.4286   52.8656  -12.9719 H       1  UNL1        0.0245
     42 H          16.9662   51.8912  -11.5807 H       1  UNL1        0.0245
     43 H          15.9526   51.9148  -13.0253 H       1  UNL1        0.0245
     44 H          17.8260   50.8316  -14.3329 H       1  UNL1        0.0462
     45 H          18.8207   50.8116  -12.9347 H       1  UNL1        0.0462
     46 H          18.2967   47.9283  -11.8919 H       1  UNL1        0.0464
     47 H          18.6291   49.4902  -11.3017 H       1  UNL1        0.0464
     48 H          16.3451   49.6450  -10.2652 H       1  UNL1        0.0280
     49 H          16.0831   47.9591  -10.5971 H       1  UNL1        0.0280
     50 H          18.3307   49.1429   -8.9158 H       1  UNL1        0.0266
     51 H          16.9053   48.3869   -8.2801 H       1  UNL1        0.0266
     52 H          18.9120   46.8532  -10.0199 H       1  UNL1        0.0265
     53 H          19.1120   47.0664   -8.3126 H       1  UNL1        0.0265
     54 H          17.0311   45.8705   -7.8171 H       1  UNL1        0.0268
     55 H          16.6314   45.8008   -9.5017 H       1  UNL1        0.0268
     56 H          17.8021   42.3887   -8.2447 H       1  UNL1        0.0286
     57 H          16.4837   43.4768   -7.9935 H       1  UNL1        0.0286
     58 H          15.0674   44.0242  -10.2668 H       1  UNL1        0.1494
     59 H          13.5113   44.4797  -12.0418 H       1  UNL1        0.0625
     60 H          12.2814   46.4753  -12.8844 H       1  UNL1        0.0618
     61 H          13.5168   48.4829  -13.6279 H       1  UNL1        0.0625
     62 H          17.2465   46.4441  -12.8778 H       1  UNL1        0.0633
     63 H          14.4427   42.2805   -8.3346 H       1  UNL1        0.0450
     64 H          14.0671   40.6054   -8.5804 H       1  UNL1        0.0450
     65 H          15.1248   41.2656   -6.4227 H       1  UNL1        0.1223
     66 H          16.1029   39.3165   -6.0091 H       1  UNL1        0.0473
     67 H          15.0433   38.9110   -7.3145 H       1  UNL1        0.0473
     68 H          16.0889   37.3787   -8.7719 H       1  UNL1        0.0621
     69 H          18.0712   36.5874  -10.0393 H       1  UNL1        0.0618
     70 H          20.2459   37.7506   -9.8015 H       1  UNL1        0.0620
     71 H          18.4685   40.4842   -6.9738 H       1  UNL1        0.0623
     72 H          20.7380   40.6597   -7.4193 H       1  UNL1        0.0343
     73 H          20.4828   41.3657   -9.7812 H       1  UNL1        0.0235
     74 H          21.4014   39.9571  -10.3155 H       1  UNL1        0.0235
     75 H          22.1807   41.2076   -9.3526 H       1  UNL1        0.0235
     76 H          21.6956   38.4572   -6.8018 H       1  UNL1        0.0235
     77 H          22.9072   39.4813   -7.5681 H       1  UNL1        0.0235
     78 H          22.1678   38.1712   -8.4759 H       1  UNL1        0.0235
     79 H          14.2941   40.3928  -10.6295 H       1  UNL1        0.2099
     80 H          19.0071   44.4200   -6.8819 H       1  UNL1        0.0232
     81 H          20.1247   45.0782   -8.0798 H       1  UNL1        0.0232
     82 H          19.8787   43.3518   -7.9752 H       1  UNL1        0.0232
@<TRIPOS>BOND
     1     1     2    1
     2     1    41    1
     3     1    42    1
     4     1    43    1
     5     2     3    1
     6     2    44    1
     7     2    45    1
     8     3    21   am
     9     3     4    1
    10     4     5    1
    11     4    46    1
    12     4    47    1
    13     5     6    1
    14     5    48    1
    15     5    49    1
    16     6     7    1
    17     6    50    1
    18     6    51    1
    19     7     8    1
    20     7    52    1
    21     7    53    1
    22     8     9    1
    23     8    54    1
    24     8    55    1
    25     9    38    1
    26     9    10    1
    27     9    37    1
    28    10    11    1
    29    10    56    1
    30    10    57    1
    31    11    39    1
    32    11    12    1
    33    11    23    1
    34    12    13   am
    35    12    58    1
    36    13    14    2
    37    13    15    1
    38    15    20   ar
    39    15    16   ar
    40    16    17   ar
    41    16    59    1
    42    17    18   ar
    43    17    60    1
    44    18    19   ar
    45    18    61    1
    46    19    20   ar
    47    19    21    1
    48    20    62    1
    49    21    22    2
    50    23    40    1
    51    23    24    1
    52    23    36    1
    53    24    25    1
    54    24    63    1
    55    24    64    1
    56    25    26    1
    57    25    65    1
    58    26    27    1
    59    26    66    1
    60    26    67    1
    61    27    32   ar
    62    27    28   ar
    63    28    29   ar
    64    28    68    1
    65    29    30   ar
    66    29    69    1
    67    30    31   ar
    68    30    70    1
    69    31    32   ar
    70    31    33    1
    71    32    71    1
    72    33    34    1
    73    33    35    1
    74    33    72    1
    75    34    73    1
    76    34    74    1
    77    34    75    1
    78    35    76    1
    79    35    77    1
    80    35    78    1
    81    36    79    1
    82    37    80    1
    83    37    81    1
    84    37    82    1
