@<TRIPOS>MOLECULE
BACE_17.smi:1
 62 64 0 0 0
SMALL
GASTEIGER
****
Structure written by MMmdl.
@<TRIPOS>ATOM
      1 C          18.7065   49.3361   -6.9405 C.3     1  UNL1        0.0031
      2 N          19.5850   48.1792   -7.1418 N.am    1  UNL1       -0.3036
      3 C          20.7237   48.4298   -8.0316 C.3     1  UNL1        0.0031
      4 C          19.3598   47.0015   -6.5071 C.2     1  UNL1        0.2463
      5 O          18.4943   46.8642   -5.6401 O.2     1  UNL1       -0.2700
      6 C          20.2146   45.8155   -6.8697 C.ar    1  UNL1        0.0410
      7 C          20.9095   45.1191   -5.8559 C.ar    1  UNL1       -0.0078
      8 C          20.2755   45.3394   -8.1996 C.ar    1  UNL1       -0.0373
      9 C          21.0653   44.2148   -8.5195 C.ar    1  UNL1        0.0409
     10 C          21.8082   43.5770   -7.5048 C.ar    1  UNL1       -0.0078
     11 C          21.7080   43.9940   -6.1684 C.ar    1  UNL1        0.1219
     12 C          21.1204   43.6934   -9.9214 C.2     1  UNL1        0.2445
     13 O          21.1388   44.4496  -10.8922 O.2     1  UNL1       -0.2702
     14 N          21.0908   42.3559  -10.0015 N.am    1  UNL1       -0.3056
     15 C          21.1603   41.5398  -11.2063 C.3     1  UNL1        0.0554
     16 C          19.8727   41.6979  -12.0642 C.3     1  UNL1        0.0968
     17 O          20.0599   40.9502  -13.2400 O.3     1  UNL1       -0.3877
     18 C          18.5337   41.3042  -11.3944 C.3     1  UNL1        0.0719
     19 O          17.4809   42.1498  -11.8183 O.3     1  UNL1       -0.3924
     20 C          21.5626   40.0797  -10.8442 C.3     1  UNL1       -0.0066
     21 C          20.7204   39.4189   -9.7593 C.ar    1  UNL1       -0.0421
     22 C          20.9667   39.6924   -8.3960 C.ar    1  UNL1       -0.0167
     23 C          20.1381   39.1409   -7.3868 C.ar    1  UNL1        0.1208
     24 C          19.0795   38.2899   -7.7647 C.ar    1  UNL1       -0.0199
     25 C          18.8604   37.9742   -9.1179 C.ar    1  UNL1       -0.0580
     26 C          19.6848   38.5308  -10.1122 C.ar    1  UNL1       -0.0583
     27 O          20.2999   39.3832   -6.0407 O.3     1  UNL1       -0.4920
     28 C          21.2009   40.4061   -5.6388 C.3     1  UNL1        0.0897
     29 C          21.0846   40.6107   -4.1204 C.3     1  UNL1       -0.0156
     30 C          22.0721   41.6288   -3.5178 C.3     1  UNL1       -0.0156
     31 C          21.8466   43.0863   -3.9530 C.3     1  UNL1        0.0897
     32 O          22.4149   43.2623   -5.2434 O.3     1  UNL1       -0.4919
     33 H          21.9829   41.9361  -11.8078 H       1  UNL1        0.0528
     34 H          19.7956   42.7412  -12.3651 H       1  UNL1        0.0635
     35 H          18.0452   49.4497   -7.7988 H       1  UNL1        0.0428
     36 H          19.2834   50.2535   -6.8390 H       1  UNL1        0.0428
     37 H          18.0851   49.2651   -6.0475 H       1  UNL1        0.0428
     38 H          21.6543   48.0544   -7.5997 H       1  UNL1        0.0428
     39 H          20.8711   49.4951   -8.2249 H       1  UNL1        0.0428
     40 H          20.5758   47.9551   -9.0044 H       1  UNL1        0.0428
     41 H          20.8419   45.4697   -4.8399 H       1  UNL1        0.0662
     42 H          19.7008   45.8219   -8.9773 H       1  UNL1        0.0633
     43 H          22.4388   42.7300   -7.7335 H       1  UNL1        0.0662
     44 H          21.0111   41.8500   -9.1316 H       1  UNL1        0.1494
     45 H          19.9899   40.0312  -13.0245 H       1  UNL1        0.2100
     46 H          18.2554   40.2721  -11.6025 H       1  UNL1        0.0583
     47 H          18.6001   41.4081  -10.3117 H       1  UNL1        0.0583
     48 H          16.7504   42.0040  -11.2377 H       1  UNL1        0.2095
     49 H          21.5731   39.4478  -11.7325 H       1  UNL1        0.0332
     50 H          22.5974   40.0802  -10.4948 H       1  UNL1        0.0332
     51 H          21.7901   40.3424   -8.1401 H       1  UNL1        0.0657
     52 H          18.4368   37.8681   -7.0039 H       1  UNL1        0.0654
     53 H          18.0544   37.3075   -9.3913 H       1  UNL1        0.0619
     54 H          19.5073   38.2867  -11.1494 H       1  UNL1        0.0620
     55 H          22.2248   40.1363   -5.9027 H       1  UNL1        0.0696
     56 H          20.9376   41.3274   -6.1505 H       1  UNL1        0.0696
     57 H          20.0640   40.8954   -3.8629 H       1  UNL1        0.0299
     58 H          21.2607   39.6514   -3.6401 H       1  UNL1        0.0299
     59 H          21.9685   41.5839   -2.4341 H       1  UNL1        0.0299
     60 H          23.0994   41.3308   -3.7286 H       1  UNL1        0.0299
     61 H          20.7825   43.3227   -3.9082 H       1  UNL1        0.0696
     62 H          22.3646   43.7513   -3.2645 H       1  UNL1        0.0696
@<TRIPOS>BOND
     1     1     2    1
     2     1    35    1
     3     1    36    1
     4     1    37    1
     5     2     3    1
     6     2     4   am
     7     3    38    1
     8     3    39    1
     9     3    40    1
    10     4     5    2
    11     4     6    1
    12     6     7   ar
    13     6     8   ar
    14     7    11   ar
    15     7    41    1
    16     8     9   ar
    17     8    42    1
    18     9    10   ar
    19     9    12    1
    20    10    11   ar
    21    10    43    1
    22    11    32    1
    23    12    13    2
    24    12    14   am
    25    14    15    1
    26    14    44    1
    27    15    33    1
    28    15    16    1
    29    15    20    1
    30    16    34    1
    31    16    17    1
    32    16    18    1
    33    17    45    1
    34    18    19    1
    35    18    46    1
    36    18    47    1
    37    19    48    1
    38    20    21    1
    39    20    49    1
    40    20    50    1
    41    21    26   ar
    42    21    22   ar
    43    22    23   ar
    44    22    51    1
    45    23    24   ar
    46    23    27    1
    47    24    25   ar
    48    24    52    1
    49    25    26   ar
    50    25    53    1
    51    26    54    1
    52    27    28    1
    53    28    29    1
    54    28    55    1
    55    28    56    1
    56    29    30    1
    57    29    57    1
    58    29    58    1
    59    30    31    1
    60    30    59    1
    61    30    60    1
    62    31    32    1
    63    31    61    1
    64    31    62    1
