@<TRIPOS>MOLECULE
BACE_13.smi:1
 77 80 0 0 0
SMALL
GASTEIGER
****
Structure written by MMmdl.
@<TRIPOS>ATOM
      1 C          18.1548   43.1427  -13.1126 C.3     1  UNL1        0.0369
      2 O          16.8775   43.6381  -12.7394 O.3     1  UNL1       -0.3784
      3 C          16.9165   44.4945  -11.6037 C.3     1  UNL1        0.0724
      4 C          17.3962   43.7880  -10.3499 C.ar    1  UNL1       -0.0195
      5 C          18.7649   43.8044  -10.0109 C.ar    1  UNL1       -0.0442
      6 C          19.2336   43.0691   -8.9016 C.ar    1  UNL1        0.0388
      7 C          18.3099   42.3835   -8.0853 C.ar    1  UNL1       -0.0287
      8 C          16.9414   42.3611   -8.4213 C.ar    1  UNL1        0.0282
      9 C          16.4876   43.0601   -9.5584 C.ar    1  UNL1       -0.0355
     10 N          16.0600   41.6115   -7.6398 N.pl3   1  UNL1       -0.3438
     11 C          15.2099   40.6266   -8.2974 C.3     1  UNL1        0.0092
     12 C          16.0160   39.4991   -8.9694 C.3     1  UNL1       -0.0344
     13 C          16.7972   38.6352   -7.9636 C.3     1  UNL1       -0.0172
     14 C          17.6650   37.5575   -8.6382 C.3     1  UNL1        0.0896
     15 O          18.7064   38.1298   -9.4298 O.3     1  UNL1       -0.4920
     16 C          19.8282   38.6500   -8.8138 C.ar    1  UNL1        0.1208
     17 C          20.0977   38.5616   -7.4253 C.ar    1  UNL1       -0.0199
     18 C          21.2790   39.1081   -6.8893 C.ar    1  UNL1       -0.0580
     19 C          22.1974   39.7659   -7.7262 C.ar    1  UNL1       -0.0583
     20 C          21.9307   39.8887   -9.1046 C.ar    1  UNL1       -0.0421
     21 C          20.7576   39.3152   -9.6414 C.ar    1  UNL1       -0.0167
     22 C          22.8805   40.6816   -9.9897 C.3     1  UNL1       -0.0064
     23 C          22.8242   42.2156   -9.7462 C.3     1  UNL1        0.0586
     24 N          21.4370   42.6798   -9.7148 N.am    1  UNL1       -0.3055
     25 C          20.7017   42.9583   -8.6261 C.2     1  UNL1        0.2444
     26 O          21.1511   43.0154   -7.4822 O.2     1  UNL1       -0.2702
     27 C          23.6133   43.0623  -10.7813 C.3     1  UNL1        0.1182
     28 C          25.1083   42.6842  -10.9414 C.3     1  UNL1        0.0296
     29 C          25.8308   43.5429  -12.0020 C.3     1  UNL1        0.0935
     30 O          27.1782   43.1068  -12.1502 O.3     1  UNL1       -0.3634
     31 C          27.9631   43.1727  -10.9610 C.3     1  UNL1        0.1216
     32 C          27.2629   42.4043   -9.8224 C.3     1  UNL1       -0.0041
     33 N          25.8498   42.8184   -9.6705 N.4     1  UNL1        0.2346
     34 C          28.3300   44.6267  -10.5896 C.3     1  UNL1        0.0785
     35 O          29.2572   44.6668   -9.5114 O.3     1  UNL1       -0.3802
     36 C          30.6150   44.5240   -9.9010 C.3     1  UNL1        0.0366
     37 O          22.9756   42.9495  -12.0425 O.3     1  UNL1       -0.3843
     38 H          23.2613   42.4002   -8.7641 H       1  UNL1        0.0529
     39 H          23.5468   44.1121  -10.4884 H       1  UNL1        0.0670
     40 H          25.1757   41.6380  -11.2406 H       1  UNL1        0.0900
     41 H          28.8880   42.6470  -11.1957 H       1  UNL1        0.0673
     42 H          18.0965   42.6016  -14.0515 H       1  UNL1        0.0524
     43 H          18.5526   42.4430  -12.3778 H       1  UNL1        0.0524
     44 H          18.8592   43.9638  -13.2396 H       1  UNL1        0.0524
     45 H          15.9117   44.8815  -11.4302 H       1  UNL1        0.0610
     46 H          17.5461   45.3616  -11.8093 H       1  UNL1        0.0610
     47 H          19.4604   44.3453  -10.6360 H       1  UNL1        0.0628
     48 H          18.6618   41.8155   -7.2364 H       1  UNL1        0.0643
     49 H          15.4425   43.0356   -9.8285 H       1  UNL1        0.0639
     50 H          16.3814   41.3453   -6.7149 H       1  UNL1        0.1461
     51 H          14.5680   41.1193   -9.0273 H       1  UNL1        0.0461
     52 H          14.5400   40.2013   -7.5484 H       1  UNL1        0.0461
     53 H          16.6972   39.9153   -9.7117 H       1  UNL1        0.0281
     54 H          15.3268   38.8603   -9.5214 H       1  UNL1        0.0281
     55 H          16.0871   38.1532   -7.2905 H       1  UNL1        0.0298
     56 H          17.4188   39.2673   -7.3305 H       1  UNL1        0.0298
     57 H          17.0387   36.9605   -9.3015 H       1  UNL1        0.0696
     58 H          18.0593   36.8513   -7.9081 H       1  UNL1        0.0696
     59 H          19.4170   38.0742   -6.7444 H       1  UNL1        0.0654
     60 H          21.4755   39.0305   -5.8304 H       1  UNL1        0.0619
     61 H          23.0906   40.1995   -7.3013 H       1  UNL1        0.0620
     62 H          20.5500   39.4042  -10.6974 H       1  UNL1        0.0657
     63 H          22.6554   40.4568  -11.0324 H       1  UNL1        0.0332
     64 H          23.8891   40.3107   -9.8121 H       1  UNL1        0.0332
     65 H          20.9550   42.6594  -10.6011 H       1  UNL1        0.1494
     66 H          25.7905   44.6033  -11.7474 H       1  UNL1        0.0617
     67 H          25.3466   43.4463  -12.9699 H       1  UNL1        0.0617
     68 H          27.7952   42.5551   -8.8823 H       1  UNL1        0.0840
     69 H          27.2856   41.3338  -10.0375 H       1  UNL1        0.0840
     70 H          25.8174   43.7805   -9.3620 H       1  UNL1        0.2019
     71 H          28.7204   45.1631  -11.4571 H       1  UNL1        0.0587
     72 H          27.4410   45.1690  -10.2674 H       1  UNL1        0.0587
     73 H          31.2523   44.5434   -9.0166 H       1  UNL1        0.0524
     74 H          30.9233   45.3480  -10.5460 H       1  UNL1        0.0524
     75 H          30.7967   43.5861  -10.4230 H       1  UNL1        0.0524
     76 H          23.1579   42.0868  -12.4040 H       1  UNL1        0.2101
     77 H          25.4178   42.2361   -8.9667 H       1  UNL1        0.2019
@<TRIPOS>BOND
     1     1     2    1
     2     1    42    1
     3     1    43    1
     4     1    44    1
     5     2     3    1
     6     3     4    1
     7     3    45    1
     8     3    46    1
     9     4     9   ar
    10     4     5   ar
    11     5     6   ar
    12     5    47    1
    13     6    25    1
    14     6     7   ar
    15     7     8   ar
    16     7    48    1
    17     8     9   ar
    18     8    10    1
    19     9    49    1
    20    10    11    1
    21    10    50    1
    22    11    12    1
    23    11    51    1
    24    11    52    1
    25    12    13    1
    26    12    53    1
    27    12    54    1
    28    13    14    1
    29    13    55    1
    30    13    56    1
    31    14    15    1
    32    14    57    1
    33    14    58    1
    34    15    16    1
    35    16    21   ar
    36    16    17   ar
    37    17    18   ar
    38    17    59    1
    39    18    19   ar
    40    18    60    1
    41    19    20   ar
    42    19    61    1
    43    20    21   ar
    44    20    22    1
    45    21    62    1
    46    22    23    1
    47    22    63    1
    48    22    64    1
    49    23    38    1
    50    23    24    1
    51    23    27    1
    52    24    25   am
    53    24    65    1
    54    25    26    2
    55    27    39    1
    56    27    28    1
    57    27    37    1
    58    28    40    1
    59    28    33    1
    60    28    29    1
    61    29    30    1
    62    29    66    1
    63    29    67    1
    64    30    31    1
    65    31    41    1
    66    31    32    1
    67    31    34    1
    68    32    33    1
    69    32    68    1
    70    32    69    1
    71    33    70    1
    72    33    77    1
    73    34    35    1
    74    34    71    1
    75    34    72    1
    76    35    36    1
    77    36    73    1
    78    36    74    1
    79    36    75    1
    80    37    76    1
