@<TRIPOS>MOLECULE
BACE_13.smi:1
 76 79 0 0 0
SMALL
GASTEIGER
****
Structure written by MMmdl.
@<TRIPOS>ATOM
      1 C          16.6915   45.4040  -12.4886 C.3     1  UNL1        0.0369
      2 O          16.8043   44.0324  -12.8413 O.3     1  UNL1       -0.3784
      3 C          18.1010   43.5008  -12.6292 C.3     1  UNL1        0.0724
      4 C          18.3887   43.2443  -11.1653 C.ar    1  UNL1       -0.0195
      5 C          19.7115   43.2840  -10.6855 C.ar    1  UNL1       -0.0442
      6 C          19.9777   43.0390   -9.3203 C.ar    1  UNL1        0.0388
      7 C          18.9035   42.7935   -8.4338 C.ar    1  UNL1       -0.0287
      8 C          17.5792   42.7281   -8.9166 C.ar    1  UNL1        0.0282
      9 C          17.3326   42.9429  -10.2855 C.ar    1  UNL1       -0.0355
     10 N          16.5327   42.4446   -8.0324 N.pl3   1  UNL1       -0.3438
     11 C          15.4898   41.5043   -8.4360 C.3     1  UNL1        0.0092
     12 C          16.0390   40.0883   -8.6873 C.3     1  UNL1       -0.0344
     13 C          16.5769   39.4249   -7.4091 C.3     1  UNL1       -0.0172
     14 C          17.4145   38.1634   -7.6856 C.3     1  UNL1        0.0896
     15 O          18.5962   38.4453   -8.4390 O.3     1  UNL1       -0.4920
     16 C          19.6839   39.0187   -7.8106 C.ar    1  UNL1        0.1208
     17 C          19.7287   39.3496   -6.4351 C.ar    1  UNL1       -0.0199
     18 C          20.8729   39.9447   -5.8737 C.ar    1  UNL1       -0.0580
     19 C          21.9973   40.2049   -6.6748 C.ar    1  UNL1       -0.0583
     20 C          21.9736   39.8818   -8.0448 C.ar    1  UNL1       -0.0421
     21 C          20.8197   39.2877   -8.6034 C.ar    1  UNL1       -0.0167
     22 C          23.1870   40.1806   -8.9104 C.3     1  UNL1       -0.0066
     23 C          23.4747   41.6817   -9.1879 C.3     1  UNL1        0.0548
     24 N          22.2258   42.3143   -9.6095 N.am    1  UNL1       -0.3057
     25 C          21.3879   43.0010   -8.8161 C.2     1  UNL1        0.2444
     26 O          21.6867   43.4450   -7.7087 O.2     1  UNL1       -0.2702
     27 C          24.5589   41.8585  -10.2880 C.3     1  UNL1        0.0912
     28 C          25.1335   43.3012  -10.4244 C.3     1  UNL1        0.0591
     29 C          26.2134   43.6874   -9.3848 C.3     1  UNL1        0.0660
     30 O          27.4346   42.9962   -9.6393 O.3     1  UNL1       -0.3714
     31 C          27.9740   43.2660  -10.9293 C.3     1  UNL1        0.0944
     32 C          26.9381   42.9152  -12.0236 C.3     1  UNL1        0.0248
     33 N          25.6444   43.5635  -11.7785 N.3     1  UNL1       -0.3065
     34 C          29.2394   42.3948  -11.0881 C.3     1  UNL1        0.0747
     35 O          30.1890   42.5490  -10.0387 O.3     1  UNL1       -0.3804
     36 C          30.8066   43.8241   -9.9804 C.3     1  UNL1        0.0366
     37 O          25.6105   40.9500  -10.0409 O.3     1  UNL1       -0.3883
     38 H          23.8312   42.1353   -8.2598 H       1  UNL1        0.0527
     39 H          24.1127   41.5718  -11.2392 H       1  UNL1        0.0628
     40 H          24.2907   43.9745  -10.2683 H       1  UNL1        0.0509
     41 H          28.2293   44.3243  -10.9985 H       1  UNL1        0.0632
     42 H          15.6796   45.7497  -12.6920 H       1  UNL1        0.0524
     43 H          17.3752   46.0199  -13.0741 H       1  UNL1        0.0524
     44 H          16.8945   45.5686  -11.4307 H       1  UNL1        0.0524
     45 H          18.8579   44.1585  -13.0590 H       1  UNL1        0.0610
     46 H          18.1754   42.5505  -13.1580 H       1  UNL1        0.0610
     47 H          20.5190   43.4957  -11.3719 H       1  UNL1        0.0628
     48 H          19.1009   42.6048   -7.3878 H       1  UNL1        0.0643
     49 H          16.3238   42.9001  -10.6648 H       1  UNL1        0.0639
     50 H          16.7751   42.3724   -7.0502 H       1  UNL1        0.1461
     51 H          14.9668   41.8742   -9.3165 H       1  UNL1        0.0461
     52 H          14.7451   41.4665   -7.6396 H       1  UNL1        0.0461
     53 H          16.8179   40.1232   -9.4485 H       1  UNL1        0.0281
     54 H          15.2448   39.4644   -9.0971 H       1  UNL1        0.0281
     55 H          15.7380   39.1608   -6.7622 H       1  UNL1        0.0298
     56 H          17.1644   40.1419   -6.8404 H       1  UNL1        0.0298
     57 H          16.8153   37.4539   -8.2581 H       1  UNL1        0.0696
     58 H          17.6604   37.6547   -6.7559 H       1  UNL1        0.0696
     59 H          18.8935   39.1692   -5.7779 H       1  UNL1        0.0654
     60 H          20.8857   40.1992   -4.8240 H       1  UNL1        0.0619
     61 H          22.8672   40.6676   -6.2368 H       1  UNL1        0.0620
     62 H          20.7939   39.0397   -9.6549 H       1  UNL1        0.0657
     63 H          23.0463   39.6762   -9.8655 H       1  UNL1        0.0332
     64 H          24.0519   39.7224   -8.4338 H       1  UNL1        0.0332
     65 H          21.8457   41.9949  -10.4876 H       1  UNL1        0.1494
     66 H          25.8736   43.4497   -8.3765 H       1  UNL1        0.0576
     67 H          26.3953   44.7621   -9.4068 H       1  UNL1        0.0576
     68 H          26.8094   41.8339  -12.0726 H       1  UNL1        0.0450
     69 H          27.3207   43.2119  -12.9998 H       1  UNL1        0.0450
     70 H          24.9757   43.2085  -12.4547 H       1  UNL1        0.1224
     71 H          28.9480   41.3459  -11.0943 H       1  UNL1        0.0586
     72 H          29.7174   42.5836  -12.0505 H       1  UNL1        0.0586
     73 H          31.5995   43.8074   -9.2339 H       1  UNL1        0.0524
     74 H          30.0961   44.5987   -9.6841 H       1  UNL1        0.0524
     75 H          31.2532   44.0997  -10.9387 H       1  UNL1        0.0524
     76 H          25.2709   40.0607  -10.0402 H       1  UNL1        0.2099
@<TRIPOS>BOND
     1     1     2    1
     2     1    42    1
     3     1    43    1
     4     1    44    1
     5     2     3    1
     6     3     4    1
     7     3    45    1
     8     3    46    1
     9     4     9   ar
    10     4     5   ar
    11     5     6   ar
    12     5    47    1
    13     6    25    1
    14     6     7   ar
    15     7     8   ar
    16     7    48    1
    17     8     9   ar
    18     8    10    1
    19     9    49    1
    20    10    11    1
    21    10    50    1
    22    11    12    1
    23    11    51    1
    24    11    52    1
    25    12    13    1
    26    12    53    1
    27    12    54    1
    28    13    14    1
    29    13    55    1
    30    13    56    1
    31    14    15    1
    32    14    57    1
    33    14    58    1
    34    15    16    1
    35    16    21   ar
    36    16    17   ar
    37    17    18   ar
    38    17    59    1
    39    18    19   ar
    40    18    60    1
    41    19    20   ar
    42    19    61    1
    43    20    21   ar
    44    20    22    1
    45    21    62    1
    46    22    23    1
    47    22    63    1
    48    22    64    1
    49    23    38    1
    50    23    24    1
    51    23    27    1
    52    24    25   am
    53    24    65    1
    54    25    26    2
    55    27    39    1
    56    27    28    1
    57    27    37    1
    58    28    40    1
    59    28    33    1
    60    28    29    1
    61    29    30    1
    62    29    66    1
    63    29    67    1
    64    30    31    1
    65    31    41    1
    66    31    32    1
    67    31    34    1
    68    32    33    1
    69    32    68    1
    70    32    69    1
    71    33    70    1
    72    34    35    1
    73    34    71    1
    74    34    72    1
    75    35    36    1
    76    36    73    1
    77    36    74    1
    78    36    75    1
    79    37    76    1
