@<TRIPOS>MOLECULE
BACE_4.smi:1
 90 92 0 0 0
SMALL
GASTEIGER
****
Structure written by MMmdl.
@<TRIPOS>ATOM
      1 C          19.9230   39.6633  -11.3769 C.3     1  UNL1       -0.0624
      2 C          19.9053   39.1900   -9.9097 C.3     1  UNL1       -0.0421
      3 C          18.6194   38.3954   -9.5621 C.3     1  UNL1       -0.0504
      4 C          17.2873   38.9039  -10.1577 C.3     1  UNL1       -0.0528
      5 C          16.7893   40.2663   -9.6611 C.3     1  UNL1       -0.0530
      6 C          15.4549   40.6535  -10.3237 C.3     1  UNL1       -0.0510
      7 C          14.8865   42.0020   -9.8510 C.3     1  UNL1       -0.0294
      8 C          15.7529   43.2143  -10.2203 C.3     1  UNL1        0.0483
      9 O          15.8251   43.3641  -11.6351 O.3     1  UNL1       -0.3706
     10 C          16.6661   44.4340  -12.0566 C.3     1  UNL1        0.1238
     11 C          18.1438   43.9939  -12.0394 C.2     1  UNL1        0.2417
     12 O          18.4600   43.1124  -12.8398 O.2     1  UNL1       -0.2731
     13 N          19.0328   44.5694  -11.1827 N.am    1  UNL1       -0.2914
     14 C          20.4696   44.1965  -11.2045 C.3     1  UNL1        0.0991
     15 C          20.9080   43.4349   -9.9429 C.2     1  UNL1        0.2336
     16 O          21.0370   44.0115   -8.8637 O.2     1  UNL1       -0.2738
     17 N          21.1782   42.1312  -10.1077 N.am    1  UNL1       -0.3083
     18 C          21.4675   41.1641   -9.0473 C.3     1  UNL1        0.0543
     19 C          20.2083   40.2807   -8.8455 C.3     1  UNL1       -0.0293
     20 C          22.7797   40.3811   -9.3390 C.3     1  UNL1        0.1130
     21 C          24.0815   41.1875   -9.1352 C.3     1  UNL1       -0.0044
     22 N          24.1814   42.3631  -10.0288 N.4     1  UNL1        0.2365
     23 C          25.3233   43.2788   -9.7852 C.3     1  UNL1        0.0145
     24 C          24.8437   44.6560   -9.3574 C.3     1  UNL1        0.0032
     25 C          25.5187   43.7551   -8.3552 C.3     1  UNL1        0.0032
     26 C          26.4733   43.1012  -10.7425 C.ar    1  UNL1        0.0035
     27 C          27.2125   41.9007  -10.7644 C.ar    1  UNL1       -0.0529
     28 C          28.3021   41.7500  -11.6394 C.ar    1  UNL1       -0.0610
     29 C          28.6842   42.8013  -12.4893 C.ar    1  UNL1       -0.0580
     30 C          27.9739   44.0247  -12.4812 C.ar    1  UNL1       -0.0415
     31 C          26.8606   44.1448  -11.6151 C.ar    1  UNL1       -0.0493
     32 C          28.4094   45.2288  -13.3391 C.3     1  UNL1       -0.0127
     33 C          28.8866   46.3633  -12.4109 C.3     1  UNL1       -0.0560
     34 C          29.5653   44.8916  -14.3078 C.3     1  UNL1       -0.0560
     35 C          27.2297   45.7389  -14.1886 C.3     1  UNL1       -0.0560
     36 O          22.8599   39.2978   -8.4398 O.3     1  UNL1       -0.3847
     37 C          21.3552   45.4393  -11.4425 C.3     1  UNL1       -0.0379
     38 C          18.6053   45.5671  -10.1883 C.3     1  UNL1        0.0040
     39 H          20.7152   38.4653   -9.8273 H       1  UNL1        0.0299
     40 H          20.6761   43.5315  -12.0397 H       1  UNL1        0.0594
     41 H          21.6140   41.6975   -8.1057 H       1  UNL1        0.0526
     42 H          22.7611   39.9662  -10.3471 H       1  UNL1        0.0666
     43 H          19.6506   38.8449  -12.0396 H       1  UNL1        0.0232
     44 H          20.9107   39.9919  -11.6955 H       1  UNL1        0.0232
     45 H          19.2241   40.4809  -11.5530 H       1  UNL1        0.0232
     46 H          18.7552   37.3775   -9.9312 H       1  UNL1        0.0268
     47 H          18.5213   38.2907   -8.4800 H       1  UNL1        0.0268
     48 H          16.5190   38.1579   -9.9510 H       1  UNL1        0.0265
     49 H          17.3700   38.9502  -11.2400 H       1  UNL1        0.0265
     50 H          16.6797   40.2510   -8.5753 H       1  UNL1        0.0265
     51 H          17.5304   41.0241   -9.9027 H       1  UNL1        0.0265
     52 H          14.7171   39.8781  -10.1135 H       1  UNL1        0.0266
     53 H          15.5755   40.6685  -11.4073 H       1  UNL1        0.0266
     54 H          13.8887   42.1347  -10.2704 H       1  UNL1        0.0287
     55 H          14.7528   41.9702   -8.7694 H       1  UNL1        0.0287
     56 H          16.7424   43.1114   -9.7780 H       1  UNL1        0.0560
     57 H          15.3112   44.1141   -9.7894 H       1  UNL1        0.0560
     58 H          16.4502   45.3463  -11.5040 H       1  UNL1        0.0657
     59 H          16.4199   44.6582  -13.0930 H       1  UNL1        0.0657
     60 H          21.0175   41.7440  -11.0276 H       1  UNL1        0.1491
     61 H          20.3044   39.7800   -7.8811 H       1  UNL1        0.0286
     62 H          19.3500   40.9375   -8.7192 H       1  UNL1        0.0286
     63 H          24.9476   40.5500   -9.3077 H       1  UNL1        0.0840
     64 H          24.1282   41.4893   -8.0918 H       1  UNL1        0.0840
     65 H          23.3302   42.8933   -9.9102 H       1  UNL1        0.2023
     66 H          25.4093   45.5415   -9.6385 H       1  UNL1        0.0329
     67 H          23.7775   44.8220   -9.2134 H       1  UNL1        0.0329
     68 H          24.8762   43.4174   -7.5439 H       1  UNL1        0.0329
     69 H          26.5284   44.0251   -8.0514 H       1  UNL1        0.0329
     70 H          26.9627   41.0833  -10.1051 H       1  UNL1        0.0622
     71 H          28.8641   40.8286  -11.6466 H       1  UNL1        0.0618
     72 H          29.5416   42.6415  -13.1241 H       1  UNL1        0.0620
     73 H          26.3152   45.0754  -11.6007 H       1  UNL1        0.0625
     74 H          28.0969   46.7009  -11.7390 H       1  UNL1        0.0238
     75 H          29.2158   47.2319  -12.9815 H       1  UNL1        0.0238
     76 H          29.7263   46.0424  -11.7920 H       1  UNL1        0.0238
     77 H          29.2948   44.0863  -14.9911 H       1  UNL1        0.0238
     78 H          30.4695   44.5948  -13.7748 H       1  UNL1        0.0238
     79 H          29.8333   45.7543  -14.9185 H       1  UNL1        0.0238
     80 H          26.8603   44.9501  -14.8372 H       1  UNL1        0.0238
     81 H          27.5290   46.5752  -14.8217 H       1  UNL1        0.0238
     82 H          26.3930   46.0853  -13.5825 H       1  UNL1        0.0238
     83 H          23.5267   38.7004   -8.7668 H       1  UNL1        0.2101
     84 H          22.3911   45.1483  -11.6192 H       1  UNL1        0.0252
     85 H          21.3565   46.1245  -10.5938 H       1  UNL1        0.0252
     86 H          21.0233   46.0035  -12.3132 H       1  UNL1        0.0252
     87 H          19.4023   45.8650   -9.5095 H       1  UNL1        0.0429
     88 H          17.7991   45.1861   -9.5611 H       1  UNL1        0.0429
     89 H          18.2617   46.4764  -10.6812 H       1  UNL1        0.0429
     90 H          24.2275   42.0427  -10.9865 H       1  UNL1        0.2023
@<TRIPOS>BOND
     1     1     2    1
     2     1    43    1
     3     1    44    1
     4     1    45    1
     5     2    39    1
     6     2    19    1
     7     2     3    1
     8     3     4    1
     9     3    46    1
    10     3    47    1
    11     4     5    1
    12     4    48    1
    13     4    49    1
    14     5     6    1
    15     5    50    1
    16     5    51    1
    17     6     7    1
    18     6    52    1
    19     6    53    1
    20     7     8    1
    21     7    54    1
    22     7    55    1
    23     8     9    1
    24     8    56    1
    25     8    57    1
    26     9    10    1
    27    10    11    1
    28    10    58    1
    29    10    59    1
    30    11    12    2
    31    11    13   am
    32    13    14    1
    33    13    38    1
    34    14    40    1
    35    14    15    1
    36    14    37    1
    37    15    16    2
    38    15    17   am
    39    17    18    1
    40    17    60    1
    41    18    41    1
    42    18    19    1
    43    18    20    1
    44    19    61    1
    45    19    62    1
    46    20    42    1
    47    20    21    1
    48    20    36    1
    49    21    22    1
    50    21    63    1
    51    21    64    1
    52    22    23    1
    53    22    65    1
    54    22    90    1
    55    23    25    1
    56    23    24    1
    57    23    26    1
    58    24    25    1
    59    24    66    1
    60    24    67    1
    61    25    68    1
    62    25    69    1
    63    26    31   ar
    64    26    27   ar
    65    27    28   ar
    66    27    70    1
    67    28    29   ar
    68    28    71    1
    69    29    30   ar
    70    29    72    1
    71    30    31   ar
    72    30    32    1
    73    31    73    1
    74    32    33    1
    75    32    34    1
    76    32    35    1
    77    33    74    1
    78    33    75    1
    79    33    76    1
    80    34    77    1
    81    34    78    1
    82    34    79    1
    83    35    80    1
    84    35    81    1
    85    35    82    1
    86    36    83    1
    87    37    84    1
    88    37    85    1
    89    37    86    1
    90    38    87    1
    91    38    88    1
    92    38    89    1
