@<TRIPOS>MOLECULE
BACE_10.smi:1
 86 88 0 0 0
SMALL
GASTEIGER
****
Structure written by MMmdl.
@<TRIPOS>ATOM
      1 C          20.7010   38.4600   -7.2326 C.3     1  UNL1       -0.0623
      2 C          20.0551   39.3164   -8.3361 C.3     1  UNL1       -0.0400
      3 C          19.3258   38.4233   -9.3729 C.3     1  UNL1       -0.0268
      4 C          17.9794   37.8711   -8.8794 C.3     1  UNL1        0.0479
      5 O          17.1823   38.9856   -8.5218 O.3     1  UNL1       -0.3797
      6 C          15.8397   38.6718   -8.1982 C.3     1  UNL1        0.0477
      7 C          15.2617   39.8000   -7.3357 C.3     1  UNL1       -0.0281
      8 C          15.5058   41.1992   -7.9184 C.3     1  UNL1       -0.0354
      9 C          14.8911   41.3921   -9.3076 C.3     1  UNL1        0.0092
     10 N          15.1419   42.7339   -9.8064 N.pl3   1  UNL1       -0.3438
     11 C          16.3037   43.0734  -10.5148 C.ar    1  UNL1        0.0282
     12 C          16.4039   44.4069  -10.9511 C.ar    1  UNL1       -0.0355
     13 C          17.4718   44.8227  -11.7669 C.ar    1  UNL1       -0.0195
     14 C          18.4601   43.8912  -12.1407 C.ar    1  UNL1       -0.0442
     15 C          18.4269   42.5711  -11.6386 C.ar    1  UNL1        0.0388
     16 C          17.3407   42.1604  -10.8290 C.ar    1  UNL1       -0.0287
     17 C          19.4913   41.5986  -12.0522 C.2     1  UNL1        0.2444
     18 O          19.6601   41.3497  -13.2399 O.2     1  UNL1       -0.2702
     19 N          20.2720   41.0191  -11.1289 N.am    1  UNL1       -0.3058
     20 C          20.5621   41.4645   -9.7672 C.3     1  UNL1        0.0545
     21 C          21.1139   40.2614   -8.9529 C.3     1  UNL1       -0.0292
     22 C          21.5765   42.6577   -9.7715 C.3     1  UNL1        0.1130
     23 C          22.6535   42.6809  -10.8889 C.3     1  UNL1       -0.0050
     24 N          23.5786   41.5264  -10.8396 N.4     1  UNL1        0.2321
     25 C          24.6115   41.5399   -9.7781 C.3     1  UNL1       -0.0076
     26 C          25.7186   42.5439  -10.0397 C.ar    1  UNL1       -0.0027
     27 C          25.6105   43.8578   -9.5392 C.ar    1  UNL1       -0.0535
     28 C          26.6457   44.7848   -9.7562 C.ar    1  UNL1       -0.0611
     29 C          27.7983   44.3996  -10.4643 C.ar    1  UNL1       -0.0583
     30 C          27.9274   43.0841  -10.9580 C.ar    1  UNL1       -0.0444
     31 C          26.8816   42.1570  -10.7418 C.ar    1  UNL1       -0.0501
     32 C          29.2050   42.6857  -11.6887 C.3     1  UNL1       -0.0215
     33 C          28.9271   41.9447  -13.0046 C.3     1  UNL1       -0.0586
     34 C          30.1357   41.8781  -10.7748 C.3     1  UNL1       -0.0586
     35 O          20.8575   43.8705   -9.8429 O.3     1  UNL1       -0.3847
     36 C          17.5657   46.2667  -12.2256 C.3     1  UNL1        0.0724
     37 O          16.6252   46.5816  -13.2399 O.3     1  UNL1       -0.3784
     38 C          15.4392   47.2099  -12.7846 C.3     1  UNL1        0.0369
     39 H          19.3191   39.9549   -7.8449 H       1  UNL1        0.0299
     40 H          19.6421   41.7856   -9.2751 H       1  UNL1        0.0526
     41 H          22.0728   42.7119   -8.8026 H       1  UNL1        0.0666
     42 H          21.5347   37.8769   -7.6250 H       1  UNL1        0.0232
     43 H          19.9895   37.7636   -6.7876 H       1  UNL1        0.0232
     44 H          21.0859   39.0831   -6.4241 H       1  UNL1        0.0232
     45 H          19.0998   38.9845  -10.2752 H       1  UNL1        0.0290
     46 H          19.9750   37.6037   -9.6854 H       1  UNL1        0.0290
     47 H          17.4969   37.3008   -9.6756 H       1  UNL1        0.0560
     48 H          18.1071   37.2051   -8.0242 H       1  UNL1        0.0560
     49 H          15.2619   38.5289   -9.1125 H       1  UNL1        0.0560
     50 H          15.7799   37.7449   -7.6398 H       1  UNL1        0.0560
     51 H          14.1944   39.6329   -7.1806 H       1  UNL1        0.0288
     52 H          15.7152   39.7546   -6.3435 H       1  UNL1        0.0288
     53 H          15.0849   41.9393   -7.2401 H       1  UNL1        0.0281
     54 H          16.5791   41.3995   -7.9500 H       1  UNL1        0.0281
     55 H          15.2540   40.6495  -10.0182 H       1  UNL1        0.0461
     56 H          13.8116   41.2464   -9.2438 H       1  UNL1        0.0461
     57 H          14.4796   43.4512   -9.5536 H       1  UNL1        0.1461
     58 H          15.6409   45.1151  -10.6669 H       1  UNL1        0.0639
     59 H          19.2595   44.1996  -12.8031 H       1  UNL1        0.0628
     60 H          17.3045   41.1370  -10.4840 H       1  UNL1        0.0643
     61 H          20.8467   40.2689  -11.4805 H       1  UNL1        0.1494
     62 H          21.6961   40.6567   -8.1191 H       1  UNL1        0.0286
     63 H          21.8250   39.6813   -9.5419 H       1  UNL1        0.0286
     64 H          22.1830   42.6920  -11.8717 H       1  UNL1        0.0840
     65 H          23.2241   43.6073  -10.8467 H       1  UNL1        0.0840
     66 H          23.0264   40.6923  -10.7177 H       1  UNL1        0.2018
     67 H          24.1636   41.7158   -8.8007 H       1  UNL1        0.0866
     68 H          25.0630   40.5501   -9.7243 H       1  UNL1        0.0866
     69 H          24.7354   44.1610   -8.9837 H       1  UNL1        0.0622
     70 H          26.5581   45.7916   -9.3726 H       1  UNL1        0.0618
     71 H          28.5913   45.1174  -10.6128 H       1  UNL1        0.0620
     72 H          26.9763   41.1398  -11.0979 H       1  UNL1        0.0625
     73 H          29.7303   43.6038  -11.9548 H       1  UNL1        0.0343
     74 H          28.2700   42.5375  -13.6399 H       1  UNL1        0.0235
     75 H          28.4602   40.9752  -12.8382 H       1  UNL1        0.0235
     76 H          29.8497   41.7639  -13.5579 H       1  UNL1        0.0235
     77 H          30.3866   42.4405   -9.8747 H       1  UNL1        0.0235
     78 H          31.0672   41.6296  -11.2815 H       1  UNL1        0.0235
     79 H          29.6616   40.9481  -10.4768 H       1  UNL1        0.0235
     80 H          20.2259   43.8976   -9.1374 H       1  UNL1        0.2101
     81 H          17.4810   46.9374  -11.3692 H       1  UNL1        0.0610
     82 H          18.5600   46.4344  -12.6387 H       1  UNL1        0.0610
     83 H          14.8105   47.4499  -13.6420 H       1  UNL1        0.0524
     84 H          15.6624   48.1416  -12.2625 H       1  UNL1        0.0524
     85 H          14.8596   46.5650  -12.1256 H       1  UNL1        0.0524
     86 H          24.0447   41.4301  -11.7409 H       1  UNL1        0.2018
@<TRIPOS>BOND
     1     1     2    1
     2     1    42    1
     3     1    43    1
     4     1    44    1
     5     2    39    1
     6     2    21    1
     7     2     3    1
     8     3     4    1
     9     3    45    1
    10     3    46    1
    11     4     5    1
    12     4    47    1
    13     4    48    1
    14     5     6    1
    15     6     7    1
    16     6    49    1
    17     6    50    1
    18     7     8    1
    19     7    51    1
    20     7    52    1
    21     8     9    1
    22     8    53    1
    23     8    54    1
    24     9    10    1
    25     9    55    1
    26     9    56    1
    27    10    11    1
    28    10    57    1
    29    11    16   ar
    30    11    12   ar
    31    12    13   ar
    32    12    58    1
    33    13    14   ar
    34    13    36    1
    35    14    15   ar
    36    14    59    1
    37    15    16   ar
    38    15    17    1
    39    16    60    1
    40    17    18    2
    41    17    19   am
    42    19    20    1
    43    19    61    1
    44    20    40    1
    45    20    21    1
    46    20    22    1
    47    21    62    1
    48    21    63    1
    49    22    41    1
    50    22    23    1
    51    22    35    1
    52    23    24    1
    53    23    64    1
    54    23    65    1
    55    24    25    1
    56    24    66    1
    57    24    86    1
    58    25    26    1
    59    25    67    1
    60    25    68    1
    61    26    31   ar
    62    26    27   ar
    63    27    28   ar
    64    27    69    1
    65    28    29   ar
    66    28    70    1
    67    29    30   ar
    68    29    71    1
    69    30    31   ar
    70    30    32    1
    71    31    72    1
    72    32    33    1
    73    32    34    1
    74    32    73    1
    75    33    74    1
    76    33    75    1
    77    33    76    1
    78    34    77    1
    79    34    78    1
    80    34    79    1
    81    35    80    1
    82    36    37    1
    83    36    81    1
    84    36    82    1
    85    37    38    1
    86    38    83    1
    87    38    84    1
    88    38    85    1
