@<TRIPOS>MOLECULE
BACE_13.smi:1
 76 79 0 0 0
SMALL
GASTEIGER
****
Structure written by MMmdl.
@<TRIPOS>ATOM
      1 C          20.2737   42.9081   -1.0942 C.3     1  UNL1        0.0369
      2 O          20.0673   42.9477   -2.4966 O.3     1  UNL1       -0.3784
      3 C          21.1886   42.4866   -3.2348 C.3     1  UNL1        0.0724
      4 C          20.8203   42.1582   -4.6746 C.ar    1  UNL1       -0.0195
      5 C          20.0609   43.0695   -5.4324 C.ar    1  UNL1       -0.0442
      6 C          19.7130   42.7687   -6.7672 C.ar    1  UNL1        0.0388
      7 C          20.1526   41.5517   -7.3377 C.ar    1  UNL1       -0.0287
      8 C          20.9176   40.6300   -6.5824 C.ar    1  UNL1        0.0282
      9 C          21.2457   40.9452   -5.2482 C.ar    1  UNL1       -0.0355
     10 N          21.3741   39.4100   -7.1075 N.pl3   1  UNL1       -0.3438
     11 C          20.7304   38.8394   -8.2844 C.3     1  UNL1        0.0092
     12 C          21.3735   39.3236   -9.5955 C.3     1  UNL1       -0.0344
     13 C          20.3975   39.2013  -10.7748 C.3     1  UNL1       -0.0172
     14 C          20.9383   39.7426  -12.1149 C.3     1  UNL1        0.0896
     15 O          21.6703   40.9641  -12.0051 O.3     1  UNL1       -0.4920
     16 C          21.0260   42.1474  -11.7118 C.ar    1  UNL1        0.1208
     17 C          21.8427   43.2868  -11.5670 C.ar    1  UNL1       -0.0199
     18 C          21.2869   44.5373  -11.2384 C.ar    1  UNL1       -0.0580
     19 C          19.9015   44.6580  -11.0303 C.ar    1  UNL1       -0.0583
     20 C          19.0689   43.5275  -11.1602 C.ar    1  UNL1       -0.0421
     21 C          19.6277   42.2851  -11.5325 C.ar    1  UNL1       -0.0167
     22 C          17.6054   43.6114  -10.8671 C.3     1  UNL1       -0.0066
     23 C          17.2539   44.0233   -9.4071 C.3     1  UNL1        0.0548
     24 N          18.0481   43.2542   -8.4402 N.am    1  UNL1       -0.3057
     25 C          18.9409   43.7656   -7.5829 C.2     1  UNL1        0.2444
     26 O          19.1118   44.9627   -7.4205 O.2     1  UNL1       -0.2702
     27 C          15.7416   43.9222   -9.0352 C.3     1  UNL1        0.0912
     28 C          15.2851   42.5592   -8.5227 C.3     1  UNL1        0.0591
     29 C          14.8576   41.6694   -9.7076 C.3     1  UNL1        0.0660
     30 O          14.4582   40.3866   -9.2253 O.3     1  UNL1       -0.3714
     31 C          15.5303   39.7241   -8.5549 C.3     1  UNL1        0.0944
     32 C          15.9765   40.5598   -7.3379 C.3     1  UNL1        0.0248
     33 N          16.3576   41.9164   -7.7522 N.3     1  UNL1       -0.3065
     34 C          16.6932   39.4910   -9.5150 C.3     1  UNL1        0.0747
     35 O          17.1994   38.1789   -9.3242 O.3     1  UNL1       -0.3804
     36 C          16.4815   37.4466   -8.3449 C.3     1  UNL1        0.0366
     37 O          15.4626   44.8908   -8.0388 O.3     1  UNL1       -0.3883
     38 H          17.5376   45.0708   -9.3088 H       1  UNL1        0.0527
     39 H          15.1464   44.1914   -9.9085 H       1  UNL1        0.0628
     40 H          14.4229   42.7470   -7.8829 H       1  UNL1        0.0509
     41 H          15.1908   38.7412   -8.2280 H       1  UNL1        0.0632
     42 H          19.3823   43.2740   -0.5844 H       1  UNL1        0.0524
     43 H          21.1113   43.5407   -0.7972 H       1  UNL1        0.0524
     44 H          20.4622   41.8910   -0.7481 H       1  UNL1        0.0524
     45 H          21.6109   41.6050   -2.7496 H       1  UNL1        0.0610
     46 H          21.9680   43.2503   -3.2468 H       1  UNL1        0.0610
     47 H          19.7468   44.0021   -4.9874 H       1  UNL1        0.0628
     48 H          19.9117   41.3483   -8.3706 H       1  UNL1        0.0643
     49 H          21.8303   40.2616   -4.6503 H       1  UNL1        0.0639
     50 H          21.8148   38.7632   -6.4692 H       1  UNL1        0.1461
     51 H          19.6734   39.1054   -8.2770 H       1  UNL1        0.0461
     52 H          20.7561   37.7517   -8.2174 H       1  UNL1        0.0461
     53 H          22.2875   38.7648   -9.7968 H       1  UNL1        0.0281
     54 H          21.6748   40.3668   -9.5001 H       1  UNL1        0.0281
     55 H          19.4691   39.7202  -10.5365 H       1  UNL1        0.0298
     56 H          20.1161   38.1535  -10.8805 H       1  UNL1        0.0298
     57 H          20.1392   39.8348  -12.8505 H       1  UNL1        0.0696
     58 H          21.6305   39.0082  -12.5268 H       1  UNL1        0.0696
     59 H          22.9104   43.2007  -11.7051 H       1  UNL1        0.0654
     60 H          21.9269   45.4005  -11.1306 H       1  UNL1        0.0619
     61 H          19.4857   45.6158  -10.7542 H       1  UNL1        0.0620
     62 H          18.9634   41.4428  -11.6578 H       1  UNL1        0.0657
     63 H          17.1315   42.6557  -11.0911 H       1  UNL1        0.0332
     64 H          17.1731   44.3272  -11.5663 H       1  UNL1        0.0332
     65 H          17.9491   42.2492   -8.4595 H       1  UNL1        0.1494
     66 H          15.6660   41.5672  -10.4316 H       1  UNL1        0.0576
     67 H          14.0201   42.1268  -10.2343 H       1  UNL1        0.0576
     68 H          16.8094   40.0678   -6.8354 H       1  UNL1        0.0450
     69 H          15.1645   40.6024   -6.6120 H       1  UNL1        0.0450
     70 H          16.5485   42.4700   -6.9293 H       1  UNL1        0.1224
     71 H          16.3734   39.6401  -10.5478 H       1  UNL1        0.0586
     72 H          17.4887   40.2099   -9.3114 H       1  UNL1        0.0586
     73 H          16.9160   36.4522   -8.2425 H       1  UNL1        0.0524
     74 H          15.4344   37.3260   -8.6259 H       1  UNL1        0.0524
     75 H          16.5292   37.9338   -7.3700 H       1  UNL1        0.0524
     76 H          15.6564   44.5157   -7.1934 H       1  UNL1        0.2099
@<TRIPOS>BOND
     1     1     2    1
     2     1    42    1
     3     1    43    1
     4     1    44    1
     5     2     3    1
     6     3     4    1
     7     3    45    1
     8     3    46    1
     9     4     9   ar
    10     4     5   ar
    11     5     6   ar
    12     5    47    1
    13     6    25    1
    14     6     7   ar
    15     7     8   ar
    16     7    48    1
    17     8     9   ar
    18     8    10    1
    19     9    49    1
    20    10    11    1
    21    10    50    1
    22    11    12    1
    23    11    51    1
    24    11    52    1
    25    12    13    1
    26    12    53    1
    27    12    54    1
    28    13    14    1
    29    13    55    1
    30    13    56    1
    31    14    15    1
    32    14    57    1
    33    14    58    1
    34    15    16    1
    35    16    21   ar
    36    16    17   ar
    37    17    18   ar
    38    17    59    1
    39    18    19   ar
    40    18    60    1
    41    19    20   ar
    42    19    61    1
    43    20    21   ar
    44    20    22    1
    45    21    62    1
    46    22    23    1
    47    22    63    1
    48    22    64    1
    49    23    38    1
    50    23    24    1
    51    23    27    1
    52    24    25   am
    53    24    65    1
    54    25    26    2
    55    27    39    1
    56    27    28    1
    57    27    37    1
    58    28    40    1
    59    28    33    1
    60    28    29    1
    61    29    30    1
    62    29    66    1
    63    29    67    1
    64    30    31    1
    65    31    41    1
    66    31    32    1
    67    31    34    1
    68    32    33    1
    69    32    68    1
    70    32    69    1
    71    33    70    1
    72    34    35    1
    73    34    71    1
    74    34    72    1
    75    35    36    1
    76    36    73    1
    77    36    74    1
    78    36    75    1
    79    37    76    1
