@<TRIPOS>MOLECULE
BACE_3.smi:1
 85 86 0 0 0
SMALL
GASTEIGER
****
Structure written by MMmdl.
@<TRIPOS>ATOM
      1 C          21.6814   39.4199   -8.4313 C.ar    1  UNL1       -0.0573
      2 C          22.6973   40.3919   -8.4115 C.ar    1  UNL1       -0.0612
      3 C          22.8286   41.2487   -7.3032 C.ar    1  UNL1       -0.0583
      4 C          21.9558   41.1301   -6.1991 C.ar    1  UNL1       -0.0445
      5 C          22.1421   42.0308   -4.9846 C.3     1  UNL1       -0.0215
      6 C          20.8608   42.8037   -4.6320 C.3     1  UNL1       -0.0586
      7 C          22.6724   41.2348   -3.7830 C.3     1  UNL1       -0.0586
      8 C          20.9294   40.1594   -6.2315 C.ar    1  UNL1       -0.0539
      9 C          20.7881   39.3100   -7.3470 C.ar    1  UNL1       -0.0333
     10 C          19.6784   38.2825   -7.3908 C.3     1  UNL1        0.0214
     11 N          18.3872   38.8788   -7.7047 N.3     1  UNL1       -0.3071
     12 C          17.5248   37.9985   -8.4889 C.3     1  UNL1        0.0521
     13 C          16.1030   38.5765   -8.6793 C.3     1  UNL1        0.1962
     14 O          15.4731   38.5500   -7.4159 O.3     1  UNL1       -0.3623
     15 O          15.4469   37.7520   -9.6256 O.3     1  UNL1       -0.3623
     16 C          16.0192   40.0470   -9.1700 C.3     1  UNL1        0.0782
     17 N          16.9233   40.2861  -10.2944 N.am    1  UNL1       -0.3058
     18 C          17.9315   41.1733  -10.3094 C.2     1  UNL1        0.2337
     19 O          18.2299   41.8773   -9.3439 O.2     1  UNL1       -0.2738
     20 C          18.6803   41.3163  -11.6445 C.3     1  UNL1        0.0991
     21 C          19.8088   40.2633  -11.7102 C.3     1  UNL1       -0.0379
     22 C          14.5625   40.4975   -9.4839 C.3     1  UNL1       -0.0269
     23 C          14.2722   42.0136   -9.6370 C.3     1  UNL1       -0.0420
     24 C          14.7457   42.5606  -10.9894 C.3     1  UNL1       -0.0624
     25 C          14.7050   42.8400   -8.3992 C.3     1  UNL1       -0.0504
     26 C          14.6945   44.3714   -8.5567 C.3     1  UNL1       -0.0528
     27 C          16.1156   44.8943   -8.8199 C.3     1  UNL1       -0.0530
     28 C          16.1828   46.3776   -9.1979 C.3     1  UNL1       -0.0531
     29 C          17.6176   46.9219   -9.3121 C.3     1  UNL1       -0.0530
     30 C          18.5334   46.1114  -10.2446 C.3     1  UNL1       -0.0526
     31 C          18.0512   46.0694  -11.7050 C.3     1  UNL1       -0.0448
     32 C          18.8600   45.0962  -12.5761 C.3     1  UNL1        0.0242
     33 C          18.4060   43.6327  -12.4320 C.2     1  UNL1        0.2159
     34 O          17.3178   43.3503  -12.9378 O.2     1  UNL1       -0.2756
     35 N          19.1841   42.7053  -11.8085 N.am    1  UNL1       -0.2932
     36 C          20.4730   43.0443  -11.1798 C.3     1  UNL1        0.0039
     37 H          16.3744   40.6234   -8.3194 H       1  UNL1        0.0552
     38 H          17.9813   41.0652  -12.4399 H       1  UNL1        0.0594
     39 H          13.1851   42.0936   -9.6793 H       1  UNL1        0.0299
     40 H          21.5852   38.7652   -9.2849 H       1  UNL1        0.0621
     41 H          23.3774   40.4743   -9.2469 H       1  UNL1        0.0618
     42 H          23.6169   41.9872   -7.2995 H       1  UNL1        0.0620
     43 H          22.9002   42.7745   -5.2356 H       1  UNL1        0.0343
     44 H          20.5021   43.3801   -5.4855 H       1  UNL1        0.0235
     45 H          21.0364   43.5003   -3.8118 H       1  UNL1        0.0235
     46 H          20.0598   42.1326   -4.3230 H       1  UNL1        0.0235
     47 H          23.6124   40.7378   -4.0274 H       1  UNL1        0.0235
     48 H          21.9664   40.4671   -3.4657 H       1  UNL1        0.0235
     49 H          22.8579   41.8896   -2.9311 H       1  UNL1        0.0235
     50 H          20.2450   40.0645   -5.4014 H       1  UNL1        0.0623
     51 H          19.6276   37.7501   -6.4417 H       1  UNL1        0.0473
     52 H          19.9464   37.5511   -8.1541 H       1  UNL1        0.0473
     53 H          17.8948   39.1042   -6.8431 H       1  UNL1        0.1224
     54 H          17.4568   37.0186   -8.0137 H       1  UNL1        0.0477
     55 H          17.9811   37.8298   -9.4662 H       1  UNL1        0.0477
     56 H          15.6596   37.7223   -6.9619 H       1  UNL1        0.2128
     57 H          15.5770   36.8558   -9.3646 H       1  UNL1        0.2128
     58 H          16.7649   39.7243  -11.1176 H       1  UNL1        0.1492
     59 H          19.3895   39.2570  -11.7503 H       1  UNL1        0.0252
     60 H          20.4703   40.2877  -10.8466 H       1  UNL1        0.0252
     61 H          20.4160   40.3917  -12.6070 H       1  UNL1        0.0252
     62 H          14.1979   39.9729  -10.3680 H       1  UNL1        0.0287
     63 H          13.9339   40.1328   -8.6765 H       1  UNL1        0.0287
     64 H          14.2704   43.5080  -11.2389 H       1  UNL1        0.0232
     65 H          14.4980   41.8578  -11.7800 H       1  UNL1        0.0232
     66 H          15.8163   42.7210  -11.0003 H       1  UNL1        0.0232
     67 H          14.0586   42.5592   -7.5707 H       1  UNL1        0.0268
     68 H          15.6996   42.5603   -8.0610 H       1  UNL1        0.0268
     69 H          14.3253   44.8286   -7.6397 H       1  UNL1        0.0265
     70 H          14.0022   44.6781   -9.3382 H       1  UNL1        0.0265
     71 H          16.7281   44.7159   -7.9342 H       1  UNL1        0.0265
     72 H          16.5642   44.3040   -9.6165 H       1  UNL1        0.0265
     73 H          15.6599   46.9504   -8.4408 H       1  UNL1        0.0265
     74 H          15.6480   46.5454  -10.1304 H       1  UNL1        0.0265
     75 H          17.5852   47.9595   -9.6456 H       1  UNL1        0.0265
     76 H          18.0689   46.9409   -8.3195 H       1  UNL1        0.0265
     77 H          18.6414   45.1004   -9.8514 H       1  UNL1        0.0265
     78 H          19.5366   46.5391  -10.2167 H       1  UNL1        0.0265
     79 H          16.9983   45.7941  -11.7575 H       1  UNL1        0.0270
     80 H          18.1169   47.0719  -12.1288 H       1  UNL1        0.0270
     81 H          19.9242   45.2410  -12.4092 H       1  UNL1        0.0358
     82 H          18.6879   45.3657  -13.6184 H       1  UNL1        0.0358
     83 H          20.7194   42.3792  -10.3539 H       1  UNL1        0.0429
     84 H          20.4833   44.0333  -10.7288 H       1  UNL1        0.0429
     85 H          21.2825   42.9867  -11.9055 H       1  UNL1        0.0429
@<TRIPOS>BOND
     1     1     9   ar
     2     1     2   ar
     3     1    40    1
     4     2     3   ar
     5     2    41    1
     6     3     4   ar
     7     3    42    1
     8     4     5    1
     9     4     8   ar
    10     5     6    1
    11     5     7    1
    12     5    43    1
    13     6    44    1
    14     6    45    1
    15     6    46    1
    16     7    47    1
    17     7    48    1
    18     7    49    1
    19     8     9   ar
    20     8    50    1
    21     9    10    1
    22    10    11    1
    23    10    51    1
    24    10    52    1
    25    11    12    1
    26    11    53    1
    27    12    13    1
    28    12    54    1
    29    12    55    1
    30    13    14    1
    31    13    15    1
    32    13    16    1
    33    14    56    1
    34    15    57    1
    35    16    37    1
    36    16    17    1
    37    16    22    1
    38    17    18   am
    39    17    58    1
    40    18    19    2
    41    18    20    1
    42    20    38    1
    43    20    35    1
    44    20    21    1
    45    21    59    1
    46    21    60    1
    47    21    61    1
    48    22    23    1
    49    22    62    1
    50    22    63    1
    51    23    39    1
    52    23    24    1
    53    23    25    1
    54    24    64    1
    55    24    65    1
    56    24    66    1
    57    25    26    1
    58    25    67    1
    59    25    68    1
    60    26    27    1
    61    26    69    1
    62    26    70    1
    63    27    28    1
    64    27    71    1
    65    27    72    1
    66    28    29    1
    67    28    73    1
    68    28    74    1
    69    29    30    1
    70    29    75    1
    71    29    76    1
    72    30    31    1
    73    30    77    1
    74    30    78    1
    75    31    32    1
    76    31    79    1
    77    31    80    1
    78    32    33    1
    79    32    81    1
    80    32    82    1
    81    33    34    2
    82    33    35   am
    83    35    36    1
    84    36    83    1
    85    36    84    1
    86    36    85    1
