@<TRIPOS>MOLECULE
BACE_4.smi:1
 89 91 0 0 0
SMALL
GASTEIGER
****
Structure written by MMmdl.
@<TRIPOS>ATOM
      1 C          21.2223   45.4610   -5.2401 C.3     1  UNL1       -0.0624
      2 C          22.4370   44.5336   -5.0662 C.3     1  UNL1       -0.0421
      3 C          23.5309   44.5895   -6.1810 C.3     1  UNL1       -0.0504
      4 C          23.3389   45.5667   -7.3637 C.3     1  UNL1       -0.0528
      5 C          23.5069   47.0617   -7.0246 C.3     1  UNL1       -0.0530
      6 C          23.0861   48.0157   -8.1611 C.3     1  UNL1       -0.0510
      7 C          21.5801   48.0350   -8.4989 C.3     1  UNL1       -0.0294
      8 C          20.6725   48.5273   -7.3508 C.3     1  UNL1        0.0483
      9 O          19.3113   48.7541   -7.7272 O.3     1  UNL1       -0.3706
     10 C          18.6060   47.7058   -8.4016 C.3     1  UNL1        0.1238
     11 C          18.4717   46.4122   -7.5614 C.2     1  UNL1        0.2417
     12 O          18.4606   46.5167   -6.3325 O.2     1  UNL1       -0.2731
     13 N          18.3535   45.2126   -8.1964 N.am    1  UNL1       -0.2914
     14 C          18.3648   43.9415   -7.4166 C.3     1  UNL1        0.0991
     15 C          19.7890   43.3590   -7.2582 C.2     1  UNL1        0.2336
     16 O          20.6276   43.5131   -8.1450 O.2     1  UNL1       -0.2738
     17 N          20.0599   42.7216   -6.1040 N.am    1  UNL1       -0.3084
     18 C          21.3460   42.1616   -5.6804 C.3     1  UNL1        0.0505
     19 C          22.0425   43.0903   -4.6392 C.3     1  UNL1       -0.0295
     20 C          21.1207   40.7156   -5.1365 C.3     1  UNL1        0.0859
     21 C          20.7098   39.7152   -6.2340 C.3     1  UNL1        0.0245
     22 N          19.2611   39.6311   -6.4426 N.3     1  UNL1       -0.3042
     23 C          18.7285   38.8820   -7.5880 C.3     1  UNL1        0.0447
     24 C          17.2204   38.7506   -7.6518 C.3     1  UNL1       -0.0285
     25 C          18.0719   37.5494   -7.3282 C.3     1  UNL1       -0.0285
     26 C          19.5256   39.1016   -8.8408 C.ar    1  UNL1       -0.0271
     27 C          20.7684   38.4615   -9.0018 C.ar    1  UNL1       -0.0568
     28 C          21.6292   38.8367  -10.0399 C.ar    1  UNL1       -0.0612
     29 C          21.2264   39.8054  -10.9718 C.ar    1  UNL1       -0.0580
     30 C          19.9450   40.4021  -10.8860 C.ar    1  UNL1       -0.0417
     31 C          19.1066   40.0323   -9.8099 C.ar    1  UNL1       -0.0531
     32 C          19.5230   41.4855  -11.8880 C.3     1  UNL1       -0.0127
     33 C          20.0665   41.1628  -13.2855 C.3     1  UNL1       -0.0560
     34 C          17.9877   41.6279  -12.0107 C.3     1  UNL1       -0.0560
     35 C          20.1137   42.8239  -11.4256 C.3     1  UNL1       -0.0560
     36 O          22.3396   40.2224   -4.6176 O.3     1  UNL1       -0.3887
     37 C          17.4634   42.8492   -8.0212 C.3     1  UNL1       -0.0379
     38 C          18.2374   45.1659   -9.6662 C.3     1  UNL1        0.0040
     39 H          22.9286   44.9309   -4.1794 H       1  UNL1        0.0299
     40 H          17.9454   44.1363   -6.4400 H       1  UNL1        0.0594
     41 H          22.0010   42.0809   -6.5480 H       1  UNL1        0.0524
     42 H          20.3974   40.7162   -4.3216 H       1  UNL1        0.0624
     43 H          21.4264   46.4552   -4.8519 H       1  UNL1        0.0232
     44 H          20.3574   45.0883   -4.6935 H       1  UNL1        0.0232
     45 H          20.9195   45.5694   -6.2735 H       1  UNL1        0.0232
     46 H          24.4983   44.7887   -5.7186 H       1  UNL1        0.0268
     47 H          23.6472   43.5954   -6.6122 H       1  UNL1        0.0268
     48 H          22.3824   45.3762   -7.8418 H       1  UNL1        0.0265
     49 H          24.0761   45.3172   -8.1279 H       1  UNL1        0.0265
     50 H          22.9749   47.3282   -6.1164 H       1  UNL1        0.0265
     51 H          24.5579   47.2395   -6.7917 H       1  UNL1        0.0265
     52 H          23.6422   47.7522   -9.0602 H       1  UNL1        0.0266
     53 H          23.3999   49.0266   -7.9024 H       1  UNL1        0.0266
     54 H          21.4301   48.6879   -9.3595 H       1  UNL1        0.0287
     55 H          21.2674   47.0453   -8.8260 H       1  UNL1        0.0287
     56 H          21.0555   49.4779   -6.9824 H       1  UNL1        0.0560
     57 H          20.7118   47.8504   -6.5031 H       1  UNL1        0.0560
     58 H          19.0852   47.5382   -9.3623 H       1  UNL1        0.0657
     59 H          17.6034   48.0691   -8.6179 H       1  UNL1        0.0657
     60 H          19.2928   42.5852   -5.4609 H       1  UNL1        0.1491
     61 H          21.4134   43.1471   -3.7482 H       1  UNL1        0.0286
     62 H          22.9626   42.6153   -4.2985 H       1  UNL1        0.0286
     63 H          21.0838   38.7108   -6.0248 H       1  UNL1        0.0450
     64 H          21.2142   40.0440   -7.1396 H       1  UNL1        0.0450
     65 H          18.7120   40.4428   -6.1544 H       1  UNL1        0.1229
     66 H          16.6239   39.1440   -6.8300 H       1  UNL1        0.0287
     67 H          16.7320   38.7518   -8.6250 H       1  UNL1        0.0287
     68 H          18.1267   36.7768   -8.0949 H       1  UNL1        0.0287
     69 H          18.0601   37.1937   -6.3001 H       1  UNL1        0.0287
     70 H          21.1020   37.7509   -8.2648 H       1  UNL1        0.0621
     71 H          22.5994   38.3721  -10.1187 H       1  UNL1        0.0618
     72 H          21.9265   40.0817  -11.7443 H       1  UNL1        0.0620
     73 H          18.1366   40.4760   -9.6792 H       1  UNL1        0.0624
     74 H          21.1498   41.2645  -13.3465 H       1  UNL1        0.0238
     75 H          19.6403   41.8172  -14.0393 H       1  UNL1        0.0238
     76 H          19.8128   40.1487  -13.5727 H       1  UNL1        0.0238
     77 H          17.5248   41.9885  -11.0959 H       1  UNL1        0.0238
     78 H          17.5242   40.6730  -12.2599 H       1  UNL1        0.0238
     79 H          17.7172   42.3482  -12.7832 H       1  UNL1        0.0238
     80 H          19.8016   43.0316  -10.4079 H       1  UNL1        0.0238
     81 H          19.7864   43.6611  -12.0397 H       1  UNL1        0.0238
     82 H          21.2032   42.8050  -11.4308 H       1  UNL1        0.0238
     83 H          22.9648   40.1800   -5.3233 H       1  UNL1        0.2099
     84 H          17.3369   42.0195   -7.3221 H       1  UNL1        0.0252
     85 H          17.8851   42.4387   -8.9331 H       1  UNL1        0.0252
     86 H          16.4661   43.2294   -8.2440 H       1  UNL1        0.0252
     87 H          17.9131   44.2162  -10.0750 H       1  UNL1        0.0429
     88 H          19.1971   45.3961  -10.1287 H       1  UNL1        0.0429
     89 H          17.5011   45.8855  -10.0229 H       1  UNL1        0.0429
@<TRIPOS>BOND
     1     1     2    1
     2     1    43    1
     3     1    44    1
     4     1    45    1
     5     2    39    1
     6     2    19    1
     7     2     3    1
     8     3     4    1
     9     3    46    1
    10     3    47    1
    11     4     5    1
    12     4    48    1
    13     4    49    1
    14     5     6    1
    15     5    50    1
    16     5    51    1
    17     6     7    1
    18     6    52    1
    19     6    53    1
    20     7     8    1
    21     7    54    1
    22     7    55    1
    23     8     9    1
    24     8    56    1
    25     8    57    1
    26     9    10    1
    27    10    11    1
    28    10    58    1
    29    10    59    1
    30    11    12    2
    31    11    13   am
    32    13    14    1
    33    13    38    1
    34    14    40    1
    35    14    15    1
    36    14    37    1
    37    15    16    2
    38    15    17   am
    39    17    18    1
    40    17    60    1
    41    18    41    1
    42    18    19    1
    43    18    20    1
    44    19    61    1
    45    19    62    1
    46    20    42    1
    47    20    21    1
    48    20    36    1
    49    21    22    1
    50    21    63    1
    51    21    64    1
    52    22    23    1
    53    22    65    1
    54    23    25    1
    55    23    24    1
    56    23    26    1
    57    24    25    1
    58    24    66    1
    59    24    67    1
    60    25    68    1
    61    25    69    1
    62    26    31   ar
    63    26    27   ar
    64    27    28   ar
    65    27    70    1
    66    28    29   ar
    67    28    71    1
    68    29    30   ar
    69    29    72    1
    70    30    31   ar
    71    30    32    1
    72    31    73    1
    73    32    33    1
    74    32    34    1
    75    32    35    1
    76    33    74    1
    77    33    75    1
    78    33    76    1
    79    34    77    1
    80    34    78    1
    81    34    79    1
    82    35    80    1
    83    35    81    1
    84    35    82    1
    85    36    83    1
    86    37    84    1
    87    37    85    1
    88    37    86    1
    89    38    87    1
    90    38    88    1
    91    38    89    1
