@<TRIPOS>MOLECULE
BACE_14.smi:1
 86 90 0 0 0
SMALL
GASTEIGER
****
Structure written by MMmdl.
@<TRIPOS>ATOM
      1 C          22.0107   38.6961   -7.4165 C.3     1  UNL1       -0.0586
      2 C          21.1567   39.9456   -7.6622 C.3     1  UNL1       -0.0215
      3 C          21.9458   41.0455   -8.3874 C.3     1  UNL1       -0.0586
      4 C          19.8577   39.6088   -8.3814 C.ar    1  UNL1       -0.0443
      5 C          19.8672   39.0041   -9.6532 C.ar    1  UNL1       -0.0583
      6 C          18.6522   38.6844  -10.2841 C.ar    1  UNL1       -0.0610
      7 C          17.4228   38.9732   -9.6635 C.ar    1  UNL1       -0.0529
      8 C          17.3964   39.5905   -8.3974 C.ar    1  UNL1        0.0034
      9 C          18.6231   39.8882   -7.7638 C.ar    1  UNL1       -0.0495
     10 C          16.0951   39.9036   -7.7144 C.3     1  UNL1        0.0145
     11 C          15.8060   39.3502   -6.3554 C.3     1  UNL1        0.0032
     12 C          15.0273   38.8445   -7.5461 C.3     1  UNL1        0.0032
     13 N          15.5189   41.2606   -7.9030 N.4     1  UNL1        0.2365
     14 C          16.4548   42.4088   -7.9271 C.3     1  UNL1       -0.0044
     15 C          17.0675   42.6501   -9.3296 C.3     1  UNL1        0.1133
     16 C          18.1494   43.7579   -9.3962 C.3     1  UNL1        0.0583
     17 C          18.9335   43.7001  -10.7332 C.3     1  UNL1       -0.0065
     18 C          20.0626   44.7127  -10.8510 C.ar    1  UNL1       -0.0421
     19 C          19.7885   46.0419  -11.2303 C.ar    1  UNL1       -0.0583
     20 C          20.8388   46.9733  -11.3381 C.ar    1  UNL1       -0.0580
     21 C          22.1644   46.5857  -11.0589 C.ar    1  UNL1       -0.0199
     22 C          22.4535   45.2560  -10.6658 C.ar    1  UNL1        0.1208
     23 C          21.3949   44.3281  -10.5871 C.ar    1  UNL1       -0.0167
     24 O          23.7131   44.7864  -10.3546 O.3     1  UNL1       -0.4920
     25 C          24.7936   45.7025  -10.1802 C.3     1  UNL1        0.0896
     26 C          24.6694   46.5188   -8.8782 C.3     1  UNL1       -0.0172
     27 C          24.5611   45.6415   -7.6216 C.3     1  UNL1       -0.0344
     28 C          24.2269   46.4636   -6.3594 C.3     1  UNL1        0.0092
     29 N          23.7818   45.6383   -5.2399 N.pl3   1  UNL1       -0.3438
     30 C          22.6105   44.8763   -5.3564 C.ar    1  UNL1        0.0285
     31 C          21.5911   45.1874   -6.2861 C.ar    1  UNL1       -0.0287
     32 C          20.4802   44.3381   -6.4430 C.ar    1  UNL1        0.0391
     33 C          20.3598   43.1947   -5.6272 C.ar    1  UNL1       -0.0390
     34 C          21.3236   42.9233   -4.6345 C.ar    1  UNL1        0.0196
     35 C          22.4595   43.7516   -4.5216 C.ar    1  UNL1       -0.0303
     36 C          21.1585   41.7619   -3.7339 C.2     1  UNL1        0.1602
     37 O          20.8130   40.6413   -4.1011 O.2     1  UNL1       -0.2924
     38 C          21.3921   42.0367   -2.2547 C.3     1  UNL1       -0.0014
     39 C          19.4271   44.6724   -7.4530 C.2     1  UNL1        0.2445
     40 O          18.9834   45.8167   -7.5417 O.2     1  UNL1       -0.2702
     41 N          19.0685   43.6605   -8.2599 N.am    1  UNL1       -0.3055
     42 O          15.9966   42.9950  -10.1900 O.3     1  UNL1       -0.3847
     43 H          17.5130   41.7374   -9.7187 H       1  UNL1        0.0666
     44 H          17.6366   44.7200   -9.3457 H       1  UNL1        0.0529
     45 H          22.8989   38.9509   -6.8412 H       1  UNL1        0.0235
     46 H          22.3379   38.2412   -8.3526 H       1  UNL1        0.0235
     47 H          21.4564   37.9488   -6.8476 H       1  UNL1        0.0235
     48 H          20.8936   40.3444   -6.6826 H       1  UNL1        0.0343
     49 H          22.8512   41.3058   -7.8379 H       1  UNL1        0.0235
     50 H          21.3483   41.9516   -8.4720 H       1  UNL1        0.0235
     51 H          22.2421   40.7375   -9.3902 H       1  UNL1        0.0235
     52 H          20.8023   38.7731  -10.1405 H       1  UNL1        0.0620
     53 H          18.6648   38.2020  -11.2460 H       1  UNL1        0.0618
     54 H          16.4996   38.7160  -10.1613 H       1  UNL1        0.0622
     55 H          18.6140   40.3389   -6.7879 H       1  UNL1        0.0625
     56 H          16.5610   38.6871   -5.9425 H       1  UNL1        0.0329
     57 H          15.2609   39.9547   -5.6352 H       1  UNL1        0.0329
     58 H          13.9782   39.1303   -7.5928 H       1  UNL1        0.0329
     59 H          15.2501   37.8279   -7.8663 H       1  UNL1        0.0329
     60 H          14.8899   41.4067   -7.1215 H       1  UNL1        0.2023
     61 H          17.2096   42.2577   -7.1581 H       1  UNL1        0.0840
     62 H          15.9046   43.3040   -7.6400 H       1  UNL1        0.0840
     63 H          19.3541   42.7027  -10.8719 H       1  UNL1        0.0332
     64 H          18.2525   43.8524  -11.5709 H       1  UNL1        0.0332
     65 H          18.7744   46.3513  -11.4375 H       1  UNL1        0.0620
     66 H          20.6273   47.9913  -11.6316 H       1  UNL1        0.0619
     67 H          22.9418   47.3283  -11.1494 H       1  UNL1        0.0654
     68 H          21.6166   43.3101  -10.3043 H       1  UNL1        0.0657
     69 H          25.7091   45.1129  -10.1385 H       1  UNL1        0.0696
     70 H          24.9051   46.3505  -11.0498 H       1  UNL1        0.0696
     71 H          25.5306   47.1803   -8.7840 H       1  UNL1        0.0298
     72 H          23.7971   47.1697   -8.9356 H       1  UNL1        0.0298
     73 H          23.7905   44.8923   -7.7982 H       1  UNL1        0.0281
     74 H          25.4856   45.0828   -7.4701 H       1  UNL1        0.0281
     75 H          25.1107   47.0204   -6.0480 H       1  UNL1        0.0461
     76 H          23.4654   47.2143   -6.5759 H       1  UNL1        0.0461
     77 H          24.4972   45.2900   -4.6086 H       1  UNL1        0.1461
     78 H          21.6694   46.0575   -6.9209 H       1  UNL1        0.0643
     79 H          19.5015   42.5495   -5.7314 H       1  UNL1        0.0632
     80 H          23.2261   43.5193   -3.7956 H       1  UNL1        0.0643
     81 H          20.9855   43.0104   -1.9797 H       1  UNL1        0.0309
     82 H          22.4576   42.0347   -2.0410 H       1  UNL1        0.0309
     83 H          20.9060   41.2778   -1.6435 H       1  UNL1        0.0309
     84 H          19.5240   42.7711   -8.1092 H       1  UNL1        0.1494
     85 H          16.3358   43.0687  -11.0708 H       1  UNL1        0.2101
     86 H          14.9797   41.2804   -8.7565 H       1  UNL1        0.2023
@<TRIPOS>BOND
     1     1     2    1
     2     1    45    1
     3     1    46    1
     4     1    47    1
     5     2     3    1
     6     2     4    1
     7     2    48    1
     8     3    49    1
     9     3    50    1
    10     3    51    1
    11     4     9   ar
    12     4     5   ar
    13     5     6   ar
    14     5    52    1
    15     6     7   ar
    16     6    53    1
    17     7     8   ar
    18     7    54    1
    19     8     9   ar
    20     8    10    1
    21     9    55    1
    22    10    12    1
    23    10    11    1
    24    10    13    1
    25    11    12    1
    26    11    56    1
    27    11    57    1
    28    12    58    1
    29    12    59    1
    30    13    14    1
    31    13    60    1
    32    13    86    1
    33    14    15    1
    34    14    61    1
    35    14    62    1
    36    15    43    1
    37    15    16    1
    38    15    42    1
    39    16    44    1
    40    16    41    1
    41    16    17    1
    42    17    18    1
    43    17    63    1
    44    17    64    1
    45    18    23   ar
    46    18    19   ar
    47    19    20   ar
    48    19    65    1
    49    20    21   ar
    50    20    66    1
    51    21    22   ar
    52    21    67    1
    53    22    23   ar
    54    22    24    1
    55    23    68    1
    56    24    25    1
    57    25    26    1
    58    25    69    1
    59    25    70    1
    60    26    27    1
    61    26    71    1
    62    26    72    1
    63    27    28    1
    64    27    73    1
    65    27    74    1
    66    28    29    1
    67    28    75    1
    68    28    76    1
    69    29    30    1
    70    29    77    1
    71    30    35   ar
    72    30    31   ar
    73    31    32   ar
    74    31    78    1
    75    32    33   ar
    76    32    39    1
    77    33    34   ar
    78    33    79    1
    79    34    35   ar
    80    34    36    1
    81    35    80    1
    82    36    37    2
    83    36    38    1
    84    38    81    1
    85    38    82    1
    86    38    83    1
    87    39    40    2
    88    39    41   am
    89    41    84    1
    90    42    85    1
