@<TRIPOS>MOLECULE
BACE_14.smi:1
 85 89 0 0 0
SMALL
GASTEIGER
****
Structure written by MMmdl.
@<TRIPOS>ATOM
      1 C          28.2166   46.0888   -8.7025 C.3     1  UNL1       -0.0586
      2 C          28.1804   44.6378   -8.1908 C.3     1  UNL1       -0.0215
      3 C          27.3698   44.5094   -6.8889 C.3     1  UNL1       -0.0586
      4 C          27.7001   43.6627   -9.2642 C.ar    1  UNL1       -0.0445
      5 C          28.6054   42.7952   -9.9157 C.ar    1  UNL1       -0.0583
      6 C          28.1466   41.9011  -10.9010 C.ar    1  UNL1       -0.0612
      7 C          26.7819   41.8675  -11.2444 C.ar    1  UNL1       -0.0568
      8 C          25.8603   42.7287  -10.6087 C.ar    1  UNL1       -0.0271
      9 C          26.3321   43.6195   -9.6177 C.ar    1  UNL1       -0.0534
     10 C          24.3822   42.6963  -10.9699 C.3     1  UNL1        0.0447
     11 C          23.6874   44.0185  -11.1921 C.3     1  UNL1       -0.0285
     12 C          23.9941   43.1201  -12.3664 C.3     1  UNL1       -0.0285
     13 N          23.6049   41.6148  -10.3454 N.3     1  UNL1       -0.3042
     14 C          23.4372   41.7136   -8.8935 C.3     1  UNL1        0.0245
     15 C          22.7360   40.4595   -8.3222 C.3     1  UNL1        0.0862
     16 C          21.8858   40.6885   -7.0394 C.3     1  UNL1        0.0545
     17 C          21.2065   39.3747   -6.5632 C.3     1  UNL1       -0.0066
     18 C          20.0678   38.9012   -7.4566 C.ar    1  UNL1       -0.0421
     19 C          20.3499   38.1569   -8.6198 C.ar    1  UNL1       -0.0583
     20 C          19.3003   37.7202   -9.4484 C.ar    1  UNL1       -0.0580
     21 C          17.9660   38.0310   -9.1242 C.ar    1  UNL1       -0.0199
     22 C          17.6686   38.7847   -7.9624 C.ar    1  UNL1        0.1208
     23 C          18.7275   39.1984   -7.1285 C.ar    1  UNL1       -0.0167
     24 O          16.3941   39.1481   -7.5838 O.3     1  UNL1       -0.4920
     25 C          15.3791   39.2519   -8.5836 C.3     1  UNL1        0.0896
     26 C          15.6710   40.4042   -9.5644 C.3     1  UNL1       -0.0172
     27 C          15.7663   41.7718   -8.8699 C.3     1  UNL1       -0.0344
     28 C          16.4227   42.8328   -9.7682 C.3     1  UNL1        0.0092
     29 N          16.5815   44.1134   -9.0899 N.pl3   1  UNL1       -0.3438
     30 C          17.5907   44.3478   -8.1431 C.ar    1  UNL1        0.0285
     31 C          18.5317   43.3631   -7.7561 C.ar    1  UNL1       -0.0287
     32 C          19.5116   43.6463   -6.7759 C.ar    1  UNL1        0.0391
     33 C          19.5444   44.9265   -6.1814 C.ar    1  UNL1       -0.0390
     34 C          18.6229   45.9149   -6.5733 C.ar    1  UNL1        0.0196
     35 C          17.6517   45.6248   -7.5493 C.ar    1  UNL1       -0.0303
     36 C          18.6660   47.2418   -5.9585 C.2     1  UNL1        0.1602
     37 O          17.7205   47.7383   -5.3462 O.2     1  UNL1       -0.2924
     38 C          19.9529   48.0576   -6.0880 C.3     1  UNL1       -0.0014
     39 C          20.4753   42.5896   -6.3189 C.2     1  UNL1        0.2445
     40 O          20.8466   42.5468   -5.1576 O.2     1  UNL1       -0.2702
     41 N          20.8721   41.7310   -7.2488 N.am    1  UNL1       -0.3057
     42 O          23.7080   39.4712   -8.0377 O.3     1  UNL1       -0.3887
     43 H          22.0878   40.0298   -9.0875 H       1  UNL1        0.0624
     44 H          22.5700   40.9816   -6.2408 H       1  UNL1        0.0527
     45 H          28.6267   46.7601   -7.9473 H       1  UNL1        0.0235
     46 H          27.2234   46.4568   -8.9613 H       1  UNL1        0.0235
     47 H          28.8453   46.1764   -9.5893 H       1  UNL1        0.0235
     48 H          29.2087   44.3719   -7.9422 H       1  UNL1        0.0343
     49 H          27.7700   45.1623   -6.1125 H       1  UNL1        0.0235
     50 H          27.4047   43.4896   -6.5041 H       1  UNL1        0.0235
     51 H          26.3220   44.7757   -7.0308 H       1  UNL1        0.0235
     52 H          29.6560   42.8067   -9.6653 H       1  UNL1        0.0620
     53 H          28.8429   41.2386  -11.3939 H       1  UNL1        0.0618
     54 H          26.4460   41.1722  -11.9997 H       1  UNL1        0.0621
     55 H          25.6301   44.2772   -9.1254 H       1  UNL1        0.0624
     56 H          22.6470   44.1011  -10.8778 H       1  UNL1        0.0287
     57 H          24.2816   44.9257  -11.0819 H       1  UNL1        0.0287
     58 H          24.7932   43.4266  -13.0413 H       1  UNL1        0.0287
     59 H          23.1586   42.6020  -12.8372 H       1  UNL1        0.0287
     60 H          23.9891   40.7114  -10.6033 H       1  UNL1        0.1229
     61 H          22.8370   42.5959   -8.6717 H       1  UNL1        0.0450
     62 H          24.3992   41.8635   -8.4017 H       1  UNL1        0.0450
     63 H          21.9537   38.5845   -6.4894 H       1  UNL1        0.0332
     64 H          20.8261   39.5115   -5.5509 H       1  UNL1        0.0332
     65 H          21.3711   37.9214   -8.8810 H       1  UNL1        0.0620
     66 H          19.5188   37.1482  -10.3381 H       1  UNL1        0.0619
     67 H          17.1881   37.6792   -9.7857 H       1  UNL1        0.0654
     68 H          18.5059   39.7702   -6.2395 H       1  UNL1        0.0657
     69 H          15.2339   38.3069   -9.1072 H       1  UNL1        0.0696
     70 H          14.4355   39.4478   -8.0744 H       1  UNL1        0.0696
     71 H          16.5968   40.2019  -10.1030 H       1  UNL1        0.0298
     72 H          14.8911   40.4399  -10.3250 H       1  UNL1        0.0298
     73 H          14.7709   42.0952   -8.5653 H       1  UNL1        0.0281
     74 H          16.3393   41.6649   -7.9489 H       1  UNL1        0.0281
     75 H          17.3893   42.4861  -10.1337 H       1  UNL1        0.0461
     76 H          15.8073   42.9878  -10.6544 H       1  UNL1        0.0461
     77 H          15.9681   44.8707   -9.3552 H       1  UNL1        0.1461
     78 H          18.5001   42.3735   -8.1876 H       1  UNL1        0.0643
     79 H          20.2785   45.1534   -5.4225 H       1  UNL1        0.0632
     80 H          16.9474   46.3943   -7.8289 H       1  UNL1        0.0643
     81 H          20.2045   48.2187   -7.1365 H       1  UNL1        0.0309
     82 H          20.7833   47.5484   -5.5983 H       1  UNL1        0.0309
     83 H          19.8325   49.0339   -5.6174 H       1  UNL1        0.0309
     84 H          20.5039   41.8389   -8.1831 H       1  UNL1        0.1494
     85 H          24.0779   39.1709   -8.8538 H       1  UNL1        0.2099
@<TRIPOS>BOND
     1     1     2    1
     2     1    45    1
     3     1    46    1
     4     1    47    1
     5     2     3    1
     6     2     4    1
     7     2    48    1
     8     3    49    1
     9     3    50    1
    10     3    51    1
    11     4     9   ar
    12     4     5   ar
    13     5     6   ar
    14     5    52    1
    15     6     7   ar
    16     6    53    1
    17     7     8   ar
    18     7    54    1
    19     8     9   ar
    20     8    10    1
    21     9    55    1
    22    10    12    1
    23    10    11    1
    24    10    13    1
    25    11    12    1
    26    11    56    1
    27    11    57    1
    28    12    58    1
    29    12    59    1
    30    13    14    1
    31    13    60    1
    32    14    15    1
    33    14    61    1
    34    14    62    1
    35    15    43    1
    36    15    16    1
    37    15    42    1
    38    16    44    1
    39    16    41    1
    40    16    17    1
    41    17    18    1
    42    17    63    1
    43    17    64    1
    44    18    23   ar
    45    18    19   ar
    46    19    20   ar
    47    19    65    1
    48    20    21   ar
    49    20    66    1
    50    21    22   ar
    51    21    67    1
    52    22    23   ar
    53    22    24    1
    54    23    68    1
    55    24    25    1
    56    25    26    1
    57    25    69    1
    58    25    70    1
    59    26    27    1
    60    26    71    1
    61    26    72    1
    62    27    28    1
    63    27    73    1
    64    27    74    1
    65    28    29    1
    66    28    75    1
    67    28    76    1
    68    29    30    1
    69    29    77    1
    70    30    35   ar
    71    30    31   ar
    72    31    32   ar
    73    31    78    1
    74    32    33   ar
    75    32    39    1
    76    33    34   ar
    77    33    79    1
    78    34    35   ar
    79    34    36    1
    80    35    80    1
    81    36    37    2
    82    36    38    1
    83    38    81    1
    84    38    82    1
    85    38    83    1
    86    39    40    2
    87    39    41   am
    88    41    84    1
    89    42    85    1
