@<TRIPOS>MOLECULE
BACE_7.smi:1
 98 102 0 0 0
SMALL
GASTEIGER
****
Structure written by MMmdl.
@<TRIPOS>ATOM
      1 C          25.8984   43.3203  -12.0800 C.3     1  UNL1       -0.0624
      2 C          26.3662   42.7082  -10.7517 C.3     1  UNL1       -0.0421
      3 C          27.7902   42.1183  -10.8615 C.3     1  UNL1       -0.0504
      4 C          28.9053   43.1828  -10.8066 C.3     1  UNL1       -0.0528
      5 C          29.1787   43.6935   -9.3794 C.3     1  UNL1       -0.0516
      6 C          29.7778   45.1088   -9.3383 C.3     1  UNL1       -0.0371
      7 C          29.9318   45.6729   -7.9086 C.3     1  UNL1        0.0156
      8 N          28.6300   45.7971   -7.2154 N.am    1  UNL1       -0.2907
      9 C          27.8340   46.8590   -7.5148 C.2     1  UNL1        0.2471
     10 O          28.2353   47.8709   -8.0887 O.2     1  UNL1       -0.2700
     11 C          26.3621   46.7214   -7.2760 C.ar    1  UNL1        0.0384
     12 C          25.6750   47.5824   -6.3997 C.ar    1  UNL1       -0.0373
     13 C          24.2904   47.4131   -6.1786 C.ar    1  UNL1        0.0383
     14 C          23.5982   46.3732   -6.8488 C.ar    1  UNL1       -0.0373
     15 C          24.2811   45.5186   -7.7442 C.ar    1  UNL1        0.0381
     16 C          25.6533   45.7366   -7.9784 C.ar    1  UNL1       -0.0375
     17 C          23.5714   44.4242   -8.4841 C.2     1  UNL1        0.2444
     18 O          22.4285   44.5768   -8.9116 O.2     1  UNL1       -0.2702
     19 N          24.2952   43.3015   -8.6643 N.am    1  UNL1       -0.3060
     20 C          24.0318   42.2622   -9.6601 C.3     1  UNL1        0.0508
     21 C          25.3593   41.6672  -10.1977 C.3     1  UNL1       -0.0295
     22 C          23.0111   41.2208   -9.1289 C.3     1  UNL1        0.0859
     23 C          22.1764   40.6057  -10.2666 C.3     1  UNL1        0.0240
     24 N          20.8877   40.1628   -9.7542 N.3     1  UNL1       -0.3095
     25 C          19.9833   39.6259  -10.7606 C.3     1  UNL1        0.0213
     26 C          18.7838   38.9827  -10.1027 C.ar    1  UNL1       -0.0333
     27 C          18.9409   37.7501   -9.4447 C.ar    1  UNL1       -0.0573
     28 C          17.8443   37.1449   -8.8106 C.ar    1  UNL1       -0.0612
     29 C          16.5908   37.7765   -8.8219 C.ar    1  UNL1       -0.0583
     30 C          16.4115   39.0189   -9.4782 C.ar    1  UNL1       -0.0445
     31 C          17.5256   39.6171  -10.1107 C.ar    1  UNL1       -0.0539
     32 C          15.0505   39.7260   -9.4860 C.3     1  UNL1       -0.0215
     33 C          13.9258   38.8966   -8.8390 C.3     1  UNL1       -0.0586
     34 C          14.6372   40.1890  -10.8968 C.3     1  UNL1       -0.0586
     35 O          23.6548   40.1593   -8.4404 O.3     1  UNL1       -0.3887
     36 C          23.5898   48.3034   -5.2524 C.ar    1  UNL1        0.2271
     37 N          22.2868   48.3706   -4.9733 N.ar    1  UNL1       -0.2175
     38 C          22.1603   49.3961   -4.0435 C.ar    1  UNL1        0.0663
     39 C          23.4097   49.8978   -3.7957 C.ar    1  UNL1        0.1125
     40 O          24.3205   49.2210   -4.5578 O.2     1  UNL1       -0.4436
     41 C          28.4745   44.9171   -6.0286 C.3     1  UNL1        0.0487
     42 C          27.1819   44.0773   -5.9331 C.3     1  UNL1       -0.0422
     43 C          28.7955   45.6586   -4.7380 C.ar    1  UNL1       -0.0273
     44 C          27.7844   46.3014   -3.9875 C.ar    1  UNL1       -0.0568
     45 C          28.1127   47.0396   -2.8391 C.ar    1  UNL1       -0.0614
     46 C          29.4516   47.1331   -2.4240 C.ar    1  UNL1       -0.0617
     47 C          30.4598   46.4765   -3.1538 C.ar    1  UNL1       -0.0614
     48 C          30.1350   45.7479   -4.3110 C.ar    1  UNL1       -0.0568
     49 H          26.4290   43.5208  -10.0360 H       1  UNL1        0.0299
     50 H          23.5587   42.7769  -10.4964 H       1  UNL1        0.0524
     51 H          22.3385   41.7216   -8.4301 H       1  UNL1        0.0624
     52 H          29.2422   44.1501   -6.0995 H       1  UNL1        0.0548
     53 H          25.7877   42.5488  -12.8392 H       1  UNL1        0.0232
     54 H          26.6075   44.0531  -12.4577 H       1  UNL1        0.0232
     55 H          24.9426   43.8288  -11.9743 H       1  UNL1        0.0232
     56 H          27.9592   41.4112  -10.0484 H       1  UNL1        0.0268
     57 H          27.8731   41.5367  -11.7821 H       1  UNL1        0.0268
     58 H          29.8285   42.7641  -11.2088 H       1  UNL1        0.0265
     59 H          28.6487   44.0128  -11.4627 H       1  UNL1        0.0265
     60 H          28.2535   43.6865   -8.8092 H       1  UNL1        0.0266
     61 H          29.8473   42.9989   -8.8717 H       1  UNL1        0.0266
     62 H          30.7534   45.0966   -9.8257 H       1  UNL1        0.0280
     63 H          29.1567   45.7862   -9.9290 H       1  UNL1        0.0280
     64 H          30.6378   45.0515   -7.3570 H       1  UNL1        0.0465
     65 H          30.4258   46.6444   -7.9580 H       1  UNL1        0.0465
     66 H          26.2232   48.3616   -5.8846 H       1  UNL1        0.0633
     67 H          22.5397   46.2329   -6.6775 H       1  UNL1        0.0633
     68 H          26.1910   45.1164   -8.6775 H       1  UNL1        0.0633
     69 H          25.1847   43.2477   -8.1905 H       1  UNL1        0.1494
     70 H          25.1460   40.9249  -10.9657 H       1  UNL1        0.0286
     71 H          25.8348   41.1119   -9.3902 H       1  UNL1        0.0286
     72 H          21.9990   41.3505  -11.0434 H       1  UNL1        0.0450
     73 H          22.7139   39.7877  -10.7455 H       1  UNL1        0.0450
     74 H          21.0190   39.4927   -9.0025 H       1  UNL1        0.1223
     75 H          19.6635   40.4108  -11.4489 H       1  UNL1        0.0473
     76 H          20.4875   38.8678  -11.3604 H       1  UNL1        0.0473
     77 H          19.9110   37.2779   -9.4151 H       1  UNL1        0.0621
     78 H          17.9649   36.2073   -8.2899 H       1  UNL1        0.0618
     79 H          15.7843   37.2967   -8.2895 H       1  UNL1        0.0620
     80 H          17.4241   40.5764  -10.5949 H       1  UNL1        0.0623
     81 H          15.1686   40.6242   -8.8766 H       1  UNL1        0.0343
     82 H          14.0872   38.7803   -7.7663 H       1  UNL1        0.0235
     83 H          13.8637   37.9010   -9.2750 H       1  UNL1        0.0235
     84 H          12.9451   39.3501   -8.9731 H       1  UNL1        0.0235
     85 H          15.3436   40.9100  -11.3085 H       1  UNL1        0.0235
     86 H          13.6616   40.6785  -10.8726 H       1  UNL1        0.0235
     87 H          14.5754   39.3517  -11.5903 H       1  UNL1        0.0235
     88 H          24.0786   39.5855   -9.0716 H       1  UNL1        0.2099
     89 H          21.2042   49.6800   -3.6332 H       1  UNL1        0.0862
     90 H          23.7933   50.6753   -3.1539 H       1  UNL1        0.1046
     91 H          27.2613   43.3535   -5.1232 H       1  UNL1        0.0251
     92 H          27.0038   43.5129   -6.8488 H       1  UNL1        0.0251
     93 H          26.2889   44.6581   -5.7134 H       1  UNL1        0.0251
     94 H          26.7499   46.2468   -4.2908 H       1  UNL1        0.0621
     95 H          27.3355   47.5416   -2.2817 H       1  UNL1        0.0618
     96 H          29.7088   47.7122   -1.5495 H       1  UNL1        0.0618
     97 H          31.4911   46.5510   -2.8408 H       1  UNL1        0.0618
     98 H          30.9270   45.2760   -4.8714 H       1  UNL1        0.0621
@<TRIPOS>BOND
     1     1     2    1
     2     1    53    1
     3     1    54    1
     4     1    55    1
     5     2    49    1
     6     2    21    1
     7     2     3    1
     8     3     4    1
     9     3    56    1
    10     3    57    1
    11     4     5    1
    12     4    58    1
    13     4    59    1
    14     5     6    1
    15     5    60    1
    16     5    61    1
    17     6     7    1
    18     6    62    1
    19     6    63    1
    20     7     8    1
    21     7    64    1
    22     7    65    1
    23     8     9   am
    24     8    41    1
    25     9    10    2
    26     9    11    1
    27    11    16   ar
    28    11    12   ar
    29    12    13   ar
    30    12    66    1
    31    13    14   ar
    32    13    36    1
    33    14    15   ar
    34    14    67    1
    35    15    16   ar
    36    15    17    1
    37    16    68    1
    38    17    18    2
    39    17    19   am
    40    19    20    1
    41    19    69    1
    42    20    50    1
    43    20    21    1
    44    20    22    1
    45    21    70    1
    46    21    71    1
    47    22    51    1
    48    22    23    1
    49    22    35    1
    50    23    24    1
    51    23    72    1
    52    23    73    1
    53    24    25    1
    54    24    74    1
    55    25    26    1
    56    25    75    1
    57    25    76    1
    58    26    31   ar
    59    26    27   ar
    60    27    28   ar
    61    27    77    1
    62    28    29   ar
    63    28    78    1
    64    29    30   ar
    65    29    79    1
    66    30    31   ar
    67    30    32    1
    68    31    80    1
    69    32    33    1
    70    32    34    1
    71    32    81    1
    72    33    82    1
    73    33    83    1
    74    33    84    1
    75    34    85    1
    76    34    86    1
    77    34    87    1
    78    35    88    1
    79    36    40   ar
    80    36    37   ar
    81    37    38   ar
    82    38    39   ar
    83    38    89    1
    84    39    40   ar
    85    39    90    1
    86    41    52    1
    87    41    42    1
    88    41    43    1
    89    42    91    1
    90    42    92    1
    91    42    93    1
    92    43    48   ar
    93    43    44   ar
    94    44    45   ar
    95    44    94    1
    96    45    46   ar
    97    45    95    1
    98    46    47   ar
    99    46    96    1
   100    47    48   ar
   101    47    97    1
   102    48    98    1
