@<TRIPOS>MOLECULE
BACE_17.smi:1
 62 64 0 0 0
SMALL
GASTEIGER
****
Structure written by MMmdl.
@<TRIPOS>ATOM
      1 C          17.5622   45.9379   -7.6882 C.3     1  UNL1        0.0031
      2 N          18.2983   47.0576   -7.0902 N.am    1  UNL1       -0.3036
      3 C          17.5044   48.2767   -6.9230 C.3     1  UNL1        0.0031
      4 C          19.5700   46.9813   -6.6233 C.2     1  UNL1        0.2463
      5 O          20.0852   47.8755   -5.9513 O.2     1  UNL1       -0.2700
      6 C          20.3800   45.7523   -6.9318 C.ar    1  UNL1        0.0410
      7 C          21.0288   45.0576   -5.8852 C.ar    1  UNL1       -0.0078
      8 C          20.5487   45.3123   -8.2650 C.ar    1  UNL1       -0.0373
      9 C          21.3079   44.1584   -8.5452 C.ar    1  UNL1        0.0409
     10 C          21.9711   43.4951   -7.4939 C.ar    1  UNL1       -0.0078
     11 C          21.8220   43.9204   -6.1643 C.ar    1  UNL1        0.1219
     12 C          21.3957   43.6246   -9.9401 C.2     1  UNL1        0.2445
     13 O          21.4848   44.3695  -10.9156 O.2     1  UNL1       -0.2702
     14 N          21.2694   42.2926  -10.0122 N.am    1  UNL1       -0.3056
     15 C          21.2544   41.4722  -11.2149 C.3     1  UNL1        0.0554
     16 C          19.9796   41.7308  -12.0751 C.3     1  UNL1        0.0968
     17 O          20.0600   40.9461  -13.2398 O.3     1  UNL1       -0.3877
     18 C          18.5845   41.5438  -11.4336 C.3     1  UNL1        0.0719
     19 O          18.2870   42.5626  -10.5011 O.3     1  UNL1       -0.3924
     20 C          21.5648   39.9880  -10.8601 C.3     1  UNL1       -0.0066
     21 C          20.7050   39.3662   -9.7650 C.ar    1  UNL1       -0.0421
     22 C          20.9572   39.6472   -8.4026 C.ar    1  UNL1       -0.0167
     23 C          20.1291   39.1075   -7.3865 C.ar    1  UNL1        0.1208
     24 C          19.0614   38.2645   -7.7561 C.ar    1  UNL1       -0.0199
     25 C          18.8321   37.9441   -9.1071 C.ar    1  UNL1       -0.0580
     26 C          19.6587   38.4847  -10.1080 C.ar    1  UNL1       -0.0583
     27 O          20.2964   39.3499   -6.0400 O.3     1  UNL1       -0.4920
     28 C          21.2051   40.3656   -5.6354 C.3     1  UNL1        0.0897
     29 C          21.0858   40.5547   -4.1140 C.3     1  UNL1       -0.0156
     30 C          22.0576   41.5750   -3.4863 C.3     1  UNL1       -0.0156
     31 C          21.8511   43.0282   -3.9432 C.3     1  UNL1        0.0897
     32 O          22.4738   43.1784   -5.2100 O.3     1  UNL1       -0.4919
     33 H          22.0967   41.8041  -11.8263 H       1  UNL1        0.0528
     34 H          20.0100   42.7554  -12.4354 H       1  UNL1        0.0635
     35 H          17.8176   45.8241   -8.7415 H       1  UNL1        0.0428
     36 H          16.4834   46.0904   -7.6392 H       1  UNL1        0.0428
     37 H          17.7710   44.9960   -7.1773 H       1  UNL1        0.0428
     38 H          16.8719   48.1872   -6.0401 H       1  UNL1        0.0428
     39 H          16.8605   48.4393   -7.7883 H       1  UNL1        0.0428
     40 H          18.1166   49.1735   -6.8134 H       1  UNL1        0.0428
     41 H          20.9197   45.4051   -4.8686 H       1  UNL1        0.0662
     42 H          20.0753   45.8445   -9.0775 H       1  UNL1        0.0633
     43 H          22.5801   42.6248   -7.6929 H       1  UNL1        0.0662
     44 H          21.1121   41.8024   -9.1439 H       1  UNL1        0.1494
     45 H          19.9651   40.0375  -12.9933 H       1  UNL1        0.2100
     46 H          17.8194   41.5950  -12.2091 H       1  UNL1        0.0583
     47 H          18.4653   40.5757  -10.9594 H       1  UNL1        0.0583
     48 H          18.4337   43.4021  -10.9090 H       1  UNL1        0.2095
     49 H          21.5273   39.3627  -11.7525 H       1  UNL1        0.0332
     50 H          22.6011   39.9246  -10.5232 H       1  UNL1        0.0332
     51 H          21.7907   40.2848   -8.1523 H       1  UNL1        0.0657
     52 H          18.4162   37.8505   -6.9932 H       1  UNL1        0.0654
     53 H          18.0166   37.2875   -9.3734 H       1  UNL1        0.0619
     54 H          19.4663   38.2391  -11.1423 H       1  UNL1        0.0620
     55 H          22.2274   40.0935   -5.9012 H       1  UNL1        0.0696
     56 H          20.9451   41.2913   -6.1444 H       1  UNL1        0.0696
     57 H          20.0604   40.8287   -3.8654 H       1  UNL1        0.0299
     58 H          21.2639   39.5916   -3.6403 H       1  UNL1        0.0299
     59 H          21.9172   41.5403   -2.4065 H       1  UNL1        0.0299
     60 H          23.0907   41.2716   -3.6604 H       1  UNL1        0.0299
     61 H          20.7845   43.2604   -3.9507 H       1  UNL1        0.0696
     62 H          22.3331   43.7127   -3.2447 H       1  UNL1        0.0696
@<TRIPOS>BOND
     1     1     2    1
     2     1    35    1
     3     1    36    1
     4     1    37    1
     5     2     3    1
     6     2     4   am
     7     3    38    1
     8     3    39    1
     9     3    40    1
    10     4     5    2
    11     4     6    1
    12     6     7   ar
    13     6     8   ar
    14     7    11   ar
    15     7    41    1
    16     8     9   ar
    17     8    42    1
    18     9    10   ar
    19     9    12    1
    20    10    11   ar
    21    10    43    1
    22    11    32    1
    23    12    13    2
    24    12    14   am
    25    14    15    1
    26    14    44    1
    27    15    33    1
    28    15    16    1
    29    15    20    1
    30    16    34    1
    31    16    17    1
    32    16    18    1
    33    17    45    1
    34    18    19    1
    35    18    46    1
    36    18    47    1
    37    19    48    1
    38    20    21    1
    39    20    49    1
    40    20    50    1
    41    21    26   ar
    42    21    22   ar
    43    22    23   ar
    44    22    51    1
    45    23    24   ar
    46    23    27    1
    47    24    25   ar
    48    24    52    1
    49    25    26   ar
    50    25    53    1
    51    26    54    1
    52    27    28    1
    53    28    29    1
    54    28    55    1
    55    28    56    1
    56    29    30    1
    57    29    57    1
    58    29    58    1
    59    30    31    1
    60    30    59    1
    61    30    60    1
    62    31    32    1
    63    31    61    1
    64    31    62    1
