@<TRIPOS>MOLECULE
BACE_2.smi:1
 95 97 0 0 0
SMALL
GASTEIGER
****
Structure written by MMmdl.
@<TRIPOS>ATOM
      1 C          22.3705   50.7982   -3.4266 C.ar    1  UNL1       -0.0193
      2 C          23.2647   50.8635   -2.3461 C.ar    1  UNL1       -0.0549
      3 C          24.2132   49.8420   -2.1492 C.ar    1  UNL1       -0.0443
      4 C          25.1882   49.9694   -0.9844 C.3     1  UNL1       -0.0215
      5 C          24.6593   49.2198    0.2406 C.3     1  UNL1       -0.0586
      6 C          26.6281   49.5638   -1.3398 C.3     1  UNL1       -0.0586
      7 C          24.2091   48.7168   -3.0084 C.ar    1  UNL1       -0.0502
      8 C          23.2992   48.6342   -4.0894 C.ar    1  UNL1        0.0115
      9 C          22.4181   49.7230   -4.3301 C.ar    1  UNL1        0.1260
     10 C          23.2600   47.3896   -4.9849 C.3     1  UNL1        0.0400
     11 C          22.0520   47.4830   -5.9492 C.3     1  UNL1        0.0062
     12 C          21.8363   48.9044   -6.5029 C.3     1  UNL1        0.1068
     13 O          21.5793   49.7898   -5.4189 O.3     1  UNL1       -0.4859
     14 C          23.0383   49.4116   -7.3284 C.3     1  UNL1       -0.0251
     15 C          20.5662   48.9698   -7.3654 C.3     1  UNL1       -0.0251
     16 N          23.2603   46.1505   -4.1711 N.3     1  UNL1       -0.3066
     17 C          22.6733   44.9163   -4.7394 C.3     1  UNL1        0.0242
     18 C          23.5086   44.2883   -5.8808 C.3     1  UNL1        0.0859
     19 O          24.4070   43.3998   -5.2400 O.3     1  UNL1       -0.3887
     20 C          22.7204   43.4307   -6.9181 C.3     1  UNL1        0.0505
     21 N          21.5579   44.1285   -7.4762 N.am    1  UNL1       -0.3084
     22 C          20.2834   43.9681   -7.0828 C.2     1  UNL1        0.2336
     23 O          19.9839   43.3499   -6.0643 O.2     1  UNL1       -0.2738
     24 C          19.1984   44.6458   -7.9454 C.3     1  UNL1        0.0991
     25 C          18.5325   45.7958   -7.1614 C.3     1  UNL1       -0.0379
     26 C          23.6498   42.9678   -8.0736 C.3     1  UNL1       -0.0295
     27 C          23.0500   42.0787   -9.1923 C.3     1  UNL1       -0.0421
     28 C          22.2254   42.8663  -10.2286 C.3     1  UNL1       -0.0624
     29 C          22.3088   40.8360   -8.6491 C.3     1  UNL1       -0.0504
     30 C          21.9656   39.8188   -9.7505 C.3     1  UNL1       -0.0528
     31 C          21.4534   38.4645   -9.2323 C.3     1  UNL1       -0.0530
     32 C          19.9887   38.4203   -8.7599 C.3     1  UNL1       -0.0531
     33 C          18.9697   38.8930   -9.8144 C.3     1  UNL1       -0.0530
     34 C          18.4327   40.2917   -9.4854 C.3     1  UNL1       -0.0526
     35 C          17.7096   40.9845  -10.6527 C.3     1  UNL1       -0.0448
     36 C          17.0634   42.3317  -10.2621 C.3     1  UNL1        0.0242
     37 C          18.0882   43.3751   -9.7675 C.2     1  UNL1        0.2159
     38 O          18.8122   43.8892  -10.6217 O.2     1  UNL1       -0.2756
     39 N          18.1729   43.6915   -8.4453 N.am    1  UNL1       -0.2932
     40 C          17.2601   43.0883   -7.4625 C.3     1  UNL1        0.0039
     41 H          24.1669   47.4096   -5.5895 H       1  UNL1        0.0512
     42 H          24.0694   45.0617   -6.4076 H       1  UNL1        0.0624
     43 H          22.3650   42.5359   -6.4018 H       1  UNL1        0.0524
     44 H          19.7127   45.1254   -8.7803 H       1  UNL1        0.0594
     45 H          23.9162   41.7069   -9.7424 H       1  UNL1        0.0299
     46 H          21.6610   51.5977   -3.5827 H       1  UNL1        0.0654
     47 H          23.2279   51.7114   -1.6778 H       1  UNL1        0.0622
     48 H          25.2314   51.0265   -0.7160 H       1  UNL1        0.0343
     49 H          23.6623   49.5835    0.4878 H       1  UNL1        0.0235
     50 H          25.3037   49.3733    1.1081 H       1  UNL1        0.0235
     51 H          24.5915   48.1500    0.0488 H       1  UNL1        0.0235
     52 H          26.9961   50.1341   -2.1936 H       1  UNL1        0.0235
     53 H          26.7107   48.5045   -1.5823 H       1  UNL1        0.0235
     54 H          27.3013   49.7573   -0.5047 H       1  UNL1        0.0235
     55 H          24.9018   47.9068   -2.8399 H       1  UNL1        0.0625
     56 H          22.1617   46.7742   -6.7694 H       1  UNL1        0.0322
     57 H          21.1447   47.2078   -5.4101 H       1  UNL1        0.0322
     58 H          23.2447   48.7450   -8.1663 H       1  UNL1        0.0268
     59 H          23.9507   49.4816   -6.7369 H       1  UNL1        0.0268
     60 H          22.8426   50.4017   -7.7397 H       1  UNL1        0.0268
     61 H          20.6104   48.2615   -8.1944 H       1  UNL1        0.0268
     62 H          20.4272   49.9659   -7.7875 H       1  UNL1        0.0268
     63 H          19.6771   48.7474   -6.7742 H       1  UNL1        0.0268
     64 H          24.2205   45.9296   -3.9113 H       1  UNL1        0.1226
     65 H          22.5447   44.1781   -3.9451 H       1  UNL1        0.0450
     66 H          21.6580   45.1183   -5.0626 H       1  UNL1        0.0450
     67 H          24.8007   43.8375   -4.4929 H       1  UNL1        0.2099
     68 H          21.7160   44.6566   -8.3204 H       1  UNL1        0.1491
     69 H          19.2750   46.5346   -6.8732 H       1  UNL1        0.0252
     70 H          18.0633   45.4609   -6.2387 H       1  UNL1        0.0252
     71 H          17.7792   46.3039   -7.7635 H       1  UNL1        0.0252
     72 H          24.1187   43.8400   -8.5305 H       1  UNL1        0.0286
     73 H          24.4767   42.4067   -7.6395 H       1  UNL1        0.0286
     74 H          22.1130   42.2991  -11.1525 H       1  UNL1        0.0232
     75 H          22.7082   43.8075  -10.4919 H       1  UNL1        0.0232
     76 H          21.2240   43.0879   -9.8690 H       1  UNL1        0.0232
     77 H          22.9420   40.3495   -7.9065 H       1  UNL1        0.0268
     78 H          21.3995   41.1332   -8.1269 H       1  UNL1        0.0268
     79 H          22.8620   39.6334  -10.3380 H       1  UNL1        0.0265
     80 H          21.2542   40.2478  -10.4532 H       1  UNL1        0.0265
     81 H          21.5588   37.7500  -10.0400 H       1  UNL1        0.0265
     82 H          22.1050   38.1037   -8.4371 H       1  UNL1        0.0265
     83 H          19.8767   38.9820   -7.8316 H       1  UNL1        0.0265
     84 H          19.7505   37.3907   -8.4972 H       1  UNL1        0.0265
     85 H          19.4100   38.8666  -10.8118 H       1  UNL1        0.0265
     86 H          18.1291   38.1985   -9.8480 H       1  UNL1        0.0265
     87 H          19.2552   40.9224   -9.1494 H       1  UNL1        0.0265
     88 H          17.7554   40.1946   -8.6381 H       1  UNL1        0.0265
     89 H          18.4118   41.1360  -11.4737 H       1  UNL1        0.0270
     90 H          16.9373   40.3203  -11.0396 H       1  UNL1        0.0270
     91 H          16.2493   42.1617   -9.5603 H       1  UNL1        0.0358
     92 H          16.5834   42.7514  -11.1459 H       1  UNL1        0.0358
     93 H          17.4900   43.3600   -6.4401 H       1  UNL1        0.0429
     94 H          17.2973   42.0010   -7.4832 H       1  UNL1        0.0429
     95 H          16.2322   43.4051   -7.6418 H       1  UNL1        0.0429
@<TRIPOS>BOND
     1     1     9   ar
     2     1     2   ar
     3     1    46    1
     4     2     3   ar
     5     2    47    1
     6     3     4    1
     7     3     7   ar
     8     4     5    1
     9     4     6    1
    10     4    48    1
    11     5    49    1
    12     5    50    1
    13     5    51    1
    14     6    52    1
    15     6    53    1
    16     6    54    1
    17     7     8   ar
    18     7    55    1
    19     8     9   ar
    20     8    10    1
    21     9    13    1
    22    10    41    1
    23    10    11    1
    24    10    16    1
    25    11    12    1
    26    11    56    1
    27    11    57    1
    28    12    13    1
    29    12    14    1
    30    12    15    1
    31    14    58    1
    32    14    59    1
    33    14    60    1
    34    15    61    1
    35    15    62    1
    36    15    63    1
    37    16    17    1
    38    16    64    1
    39    17    18    1
    40    17    65    1
    41    17    66    1
    42    18    42    1
    43    18    19    1
    44    18    20    1
    45    19    67    1
    46    20    43    1
    47    20    21    1
    48    20    26    1
    49    21    22   am
    50    21    68    1
    51    22    23    2
    52    22    24    1
    53    24    44    1
    54    24    39    1
    55    24    25    1
    56    25    69    1
    57    25    70    1
    58    25    71    1
    59    26    27    1
    60    26    72    1
    61    26    73    1
    62    27    45    1
    63    27    28    1
    64    27    29    1
    65    28    74    1
    66    28    75    1
    67    28    76    1
    68    29    30    1
    69    29    77    1
    70    29    78    1
    71    30    31    1
    72    30    79    1
    73    30    80    1
    74    31    32    1
    75    31    81    1
    76    31    82    1
    77    32    33    1
    78    32    83    1
    79    32    84    1
    80    33    34    1
    81    33    85    1
    82    33    86    1
    83    34    35    1
    84    34    87    1
    85    34    88    1
    86    35    36    1
    87    35    89    1
    88    35    90    1
    89    36    37    1
    90    36    91    1
    91    36    92    1
    92    37    38    2
    93    37    39   am
    94    39    40    1
    95    40    93    1
    96    40    94    1
    97    40    95    1
