@<TRIPOS>MOLECULE
BACE_18.smi:1
 66 67 0 0 0
SMALL
GASTEIGER
****
Structure written by MMmdl.
@<TRIPOS>ATOM
      1 O          15.4983   43.3605   -8.0401 O.3     1  UNL1       -0.3924
      2 C          15.9287   42.0793   -8.4463 C.3     1  UNL1        0.0719
      3 C          16.7535   42.1926   -9.7468 C.3     1  UNL1        0.0965
      4 O          15.8473   42.5675  -10.7735 O.3     1  UNL1       -0.3877
      5 C          17.4625   40.8793  -10.1824 C.3     1  UNL1        0.0517
      6 N          18.0931   40.9185  -11.5192 N.am    1  UNL1       -0.3059
      7 C          19.0870   41.6673  -12.0400 C.2     1  UNL1        0.2445
      8 O          19.6598   41.3473  -13.0792 O.2     1  UNL1       -0.2702
      9 C          18.4366   40.3098   -9.1171 C.3     1  UNL1       -0.0294
     10 C          19.0663   38.9283   -9.4220 C.3     1  UNL1       -0.0421
     11 C          18.0236   37.8976   -9.8901 C.3     1  UNL1       -0.0624
     12 C          19.7855   38.3464   -8.1865 C.3     1  UNL1       -0.0504
     13 C          20.9743   39.1491   -7.6324 C.3     1  UNL1       -0.0528
     14 C          22.2058   39.1153   -8.5458 C.3     1  UNL1       -0.0530
     15 C          23.4295   39.8203   -7.9305 C.3     1  UNL1       -0.0530
     16 C          23.8568   41.0758   -8.7017 C.3     1  UNL1       -0.0500
     17 C          22.9281   42.2759   -8.4845 C.3     1  UNL1       -0.0186
     18 C          23.2522   43.4225   -9.4593 C.3     1  UNL1        0.0896
     19 O          22.2716   44.4540   -9.4147 O.3     1  UNL1       -0.4919
     20 C          21.0883   44.2721  -10.1000 C.ar    1  UNL1        0.1219
     21 C          20.7071   43.0604  -10.7291 C.ar    1  UNL1       -0.0078
     22 C          19.4705   42.9547  -11.3902 C.ar    1  UNL1        0.0409
     23 C          20.2095   45.3731  -10.1633 C.ar    1  UNL1       -0.0078
     24 C          18.9805   45.2827  -10.8550 C.ar    1  UNL1        0.0410
     25 C          18.6408   44.0848  -11.5097 C.ar    1  UNL1       -0.0373
     26 C          18.0352   46.4444  -10.9180 C.2     1  UNL1        0.2463
     27 O          17.6947   46.8765  -12.0216 O.2     1  UNL1       -0.2700
     28 N          17.5668   46.9469   -9.7507 N.am    1  UNL1       -0.3036
     29 C          16.6685   48.0984   -9.7539 C.3     1  UNL1        0.0031
     30 C          17.7655   46.3212   -8.4384 C.3     1  UNL1        0.0031
     31 H          17.4900   42.9720   -9.5804 H       1  UNL1        0.0635
     32 H          16.6540   40.1562  -10.2860 H       1  UNL1        0.0525
     33 H          19.7937   39.0454  -10.2259 H       1  UNL1        0.0299
     34 H          15.3456   43.3187   -7.0917 H       1  UNL1        0.2095
     35 H          16.5303   41.7051   -7.6212 H       1  UNL1        0.0583
     36 H          15.0770   41.4043   -8.5527 H       1  UNL1        0.0583
     37 H          15.0108   42.1784  -10.5571 H       1  UNL1        0.2100
     38 H          17.8673   40.1166  -12.0904 H       1  UNL1        0.1494
     39 H          19.2257   41.0406   -8.9420 H       1  UNL1        0.0286
     40 H          17.9157   40.2055   -8.1691 H       1  UNL1        0.0286
     41 H          17.2200   37.7852   -9.1600 H       1  UNL1        0.0232
     42 H          18.4729   36.9163  -10.0400 H       1  UNL1        0.0232
     43 H          17.5804   38.1836  -10.8400 H       1  UNL1        0.0232
     44 H          19.0578   38.2093   -7.3847 H       1  UNL1        0.0268
     45 H          20.1369   37.3500   -8.4395 H       1  UNL1        0.0268
     46 H          20.6843   40.1781   -7.4200 H       1  UNL1        0.0265
     47 H          21.2486   38.7184   -6.6693 H       1  UNL1        0.0265
     48 H          22.4596   38.0751   -8.7558 H       1  UNL1        0.0265
     49 H          21.9649   39.5500   -9.5166 H       1  UNL1        0.0265
     50 H          23.2597   40.0619   -6.8807 H       1  UNL1        0.0265
     51 H          24.2649   39.1206   -7.9325 H       1  UNL1        0.0265
     52 H          24.8600   41.3624   -8.3993 H       1  UNL1        0.0266
     53 H          23.9280   40.8319   -9.7628 H       1  UNL1        0.0266
     54 H          21.8949   41.9554   -8.5947 H       1  UNL1        0.0298
     55 H          23.0156   42.6328   -7.4575 H       1  UNL1        0.0298
     56 H          24.2111   43.8632   -9.1833 H       1  UNL1        0.0696
     57 H          23.3818   43.0638  -10.4821 H       1  UNL1        0.0696
     58 H          21.3428   42.1886  -10.7153 H       1  UNL1        0.0662
     59 H          20.4915   46.2976   -9.6808 H       1  UNL1        0.0662
     60 H          17.7093   44.0129  -12.0548 H       1  UNL1        0.0633
     61 H          16.9583   48.8422  -10.4996 H       1  UNL1        0.0428
     62 H          16.6500   48.6040   -8.7867 H       1  UNL1        0.0428
     63 H          15.6602   47.7550   -9.9862 H       1  UNL1        0.0428
     64 H          17.7288   45.2331   -8.5000 H       1  UNL1        0.0428
     65 H          16.9893   46.6114   -7.7286 H       1  UNL1        0.0428
     66 H          18.7268   46.6104   -8.0150 H       1  UNL1        0.0428
@<TRIPOS>BOND
     1     1     2    1
     2     1    34    1
     3     2     3    1
     4     2    35    1
     5     2    36    1
     6     3    31    1
     7     3     4    1
     8     3     5    1
     9     4    37    1
    10     5    32    1
    11     5     6    1
    12     5     9    1
    13     6     7   am
    14     6    38    1
    15     7    22    1
    16     7     8    2
    17     9    10    1
    18     9    39    1
    19     9    40    1
    20    10    33    1
    21    10    11    1
    22    10    12    1
    23    11    41    1
    24    11    42    1
    25    11    43    1
    26    12    13    1
    27    12    44    1
    28    12    45    1
    29    13    14    1
    30    13    46    1
    31    13    47    1
    32    14    15    1
    33    14    48    1
    34    14    49    1
    35    15    16    1
    36    15    50    1
    37    15    51    1
    38    16    17    1
    39    16    52    1
    40    16    53    1
    41    17    18    1
    42    17    54    1
    43    17    55    1
    44    18    19    1
    45    18    56    1
    46    18    57    1
    47    19    20    1
    48    20    21   ar
    49    20    23   ar
    50    21    22   ar
    51    21    58    1
    52    22    25   ar
    53    23    24   ar
    54    23    59    1
    55    24    25   ar
    56    24    26    1
    57    25    60    1
    58    26    27    2
    59    26    28   am
    60    28    29    1
    61    28    30    1
    62    29    61    1
    63    29    62    1
    64    29    63    1
    65    30    64    1
    66    30    65    1
    67    30    66    1
