@<TRIPOS>MOLECULE
BACE_5.smi:1
 80 81 0 0 0
SMALL
GASTEIGER
****
Structure written by MMmdl.
@<TRIPOS>ATOM
      1 C          20.9339   40.1824  -11.7775 C.3     1  UNL1       -0.0649
      2 C          19.9992   39.8503  -10.6074 C.3     1  UNL1       -0.0504
      3 C          19.0039   38.7367  -10.9558 C.3     1  UNL1       -0.0089
      4 C          18.0427   38.4585   -9.8363 C.ar    1  UNL1        0.0632
      5 C          16.7665   39.0553   -9.5962 C.ar    1  UNL1       -0.0129
      6 C          16.3794   38.5473   -8.3837 C.ar    1  UNL1        0.0806
      7 N          17.3455   37.6344   -8.0401 N.ar    1  UNL1       -0.2762
      8 N          18.3735   37.5795   -8.9035 N.ar    1  UNL1       -0.1785
      9 C          15.2399   38.8314   -7.4459 C.3     1  UNL1        0.0092
     10 N          14.8608   40.2572   -7.3373 N.4     1  UNL1        0.2332
     11 C          15.9685   41.2390   -7.2652 C.3     1  UNL1       -0.0049
     12 C          15.8330   42.2893   -8.3823 C.3     1  UNL1        0.1129
     13 C          17.0867   43.1728   -8.6048 C.3     1  UNL1        0.0543
     14 C          17.6630   43.7599   -7.2950 C.3     1  UNL1       -0.0293
     15 C          18.8974   44.6820   -7.4289 C.3     1  UNL1       -0.0421
     16 C          19.1993   45.3633   -6.0768 C.3     1  UNL1       -0.0504
     17 C          19.9640   46.6929   -6.1914 C.3     1  UNL1       -0.0528
     18 C          19.0372   47.8746   -6.5302 C.3     1  UNL1       -0.0530
     19 C          19.7604   49.2216   -6.6953 C.3     1  UNL1       -0.0510
     20 C          20.8119   49.2686   -7.8215 C.3     1  UNL1       -0.0294
     21 C          20.2888   48.8358   -9.1988 C.3     1  UNL1        0.0483
     22 O          19.2083   49.6762   -9.5759 O.3     1  UNL1       -0.3706
     23 C          18.5742   49.3108  -10.7961 C.3     1  UNL1        0.1238
     24 C          17.6533   48.0866  -10.5892 C.2     1  UNL1        0.2417
     25 O          16.8601   48.1355   -9.6452 O.2     1  UNL1       -0.2731
     26 N          17.7050   47.0247  -11.4400 N.am    1  UNL1       -0.2914
     27 C          16.7370   45.9081  -11.2917 C.3     1  UNL1        0.0991
     28 C          17.3671   44.6963  -10.5857 C.2     1  UNL1        0.2336
     29 O          18.3968   44.1763  -11.0075 O.2     1  UNL1       -0.2738
     30 N          16.7096   44.2562   -9.5088 N.am    1  UNL1       -0.3083
     31 C          16.1720   45.4596  -12.6518 C.3     1  UNL1       -0.0379
     32 C          18.7612   46.9071  -12.4578 C.3     1  UNL1        0.0040
     33 C          20.1318   43.9178   -7.9450 C.3     1  UNL1       -0.0624
     34 O          14.7310   43.1028   -8.0400 O.3     1  UNL1       -0.3847
     35 H          17.2870   37.0402   -7.2115 H       1  UNL1        0.1887
     36 H          15.5971   41.7987   -9.3279 H       1  UNL1        0.0666
     37 H          17.8466   42.5435   -9.0691 H       1  UNL1        0.0526
     38 H          18.6566   45.4648   -8.1452 H       1  UNL1        0.0299
     39 H          15.8691   46.2298  -10.7151 H       1  UNL1        0.0594
     40 H          21.6295   40.9747  -11.5061 H       1  UNL1        0.0230
     41 H          20.3703   40.5183  -12.6530 H       1  UNL1        0.0230
     42 H          21.5217   39.3146  -12.0753 H       1  UNL1        0.0230
     43 H          19.4538   40.7485  -10.3156 H       1  UNL1        0.0266
     44 H          20.5921   39.5560   -9.7376 H       1  UNL1        0.0266
     45 H          19.5452   37.8261  -11.2131 H       1  UNL1        0.0329
     46 H          18.4505   39.0155  -11.8470 H       1  UNL1        0.0329
     47 H          16.2583   39.7926  -10.1961 H       1  UNL1        0.0656
     48 H          15.5377   38.5500   -6.4401 H       1  UNL1        0.0881
     49 H          14.3676   38.2283   -7.6993 H       1  UNL1        0.0881
     50 H          14.3093   40.3702   -6.4920 H       1  UNL1        0.2018
     51 H          16.9497   40.7669   -7.3018 H       1  UNL1        0.0840
     52 H          15.9211   41.7239   -6.2924 H       1  UNL1        0.0840
     53 H          16.8608   44.3258   -6.8256 H       1  UNL1        0.0286
     54 H          17.9193   42.9511   -6.6100 H       1  UNL1        0.0286
     55 H          18.2653   45.5659   -5.5579 H       1  UNL1        0.0268
     56 H          19.7503   44.6719   -5.4385 H       1  UNL1        0.0268
     57 H          20.7571   46.5956   -6.9322 H       1  UNL1        0.0265
     58 H          20.4672   46.8994   -5.2466 H       1  UNL1        0.0265
     59 H          18.4636   47.6568   -7.4299 H       1  UNL1        0.0265
     60 H          18.2951   47.9789   -5.7382 H       1  UNL1        0.0265
     61 H          20.2325   49.4882   -5.7501 H       1  UNL1        0.0266
     62 H          19.0174   49.9955   -6.8826 H       1  UNL1        0.0266
     63 H          21.2059   50.2801   -7.8943 H       1  UNL1        0.0287
     64 H          21.6596   48.6405   -7.5551 H       1  UNL1        0.0287
     65 H          19.9944   47.7884   -9.1758 H       1  UNL1        0.0560
     66 H          21.0862   48.9193   -9.9381 H       1  UNL1        0.0560
     67 H          19.3228   49.2039  -11.5785 H       1  UNL1        0.0657
     68 H          17.9412   50.1435  -11.1003 H       1  UNL1        0.0657
     69 H          15.8455   44.7175   -9.2705 H       1  UNL1        0.1491
     70 H          15.3064   44.8139  -12.4999 H       1  UNL1        0.0252
     71 H          16.8907   44.8909  -13.2400 H       1  UNL1        0.0252
     72 H          15.8418   46.3126  -13.2444 H       1  UNL1        0.0252
     73 H          18.7848   45.9367  -12.9496 H       1  UNL1        0.0429
     74 H          19.7494   47.0332  -12.0107 H       1  UNL1        0.0429
     75 H          18.6271   47.6586  -13.2366 H       1  UNL1        0.0429
     76 H          20.9978   44.5722   -8.0422 H       1  UNL1        0.0232
     77 H          19.9546   43.4785   -8.9246 H       1  UNL1        0.0232
     78 H          20.4053   43.1059   -7.2684 H       1  UNL1        0.0232
     79 H          14.8599   43.3331   -7.1165 H       1  UNL1        0.2101
     80 H          14.2632   40.5013   -8.1156 H       1  UNL1        0.2018
@<TRIPOS>BOND
     1     1     2    1
     2     1    40    1
     3     1    41    1
     4     1    42    1
     5     2     3    1
     6     2    43    1
     7     2    44    1
     8     3    45    1
     9     3    46    1
    10     3     4    1
    11     4     8   ar
    12     4     5   ar
    13     5     6   ar
    14     5    47    1
    15     6     7   ar
    16     6     9    1
    17     7     8   ar
    18     7    35    1
    19     9    10    1
    20     9    48    1
    21     9    49    1
    22    10    11    1
    23    10    50    1
    24    10    80    1
    25    11    12    1
    26    11    51    1
    27    11    52    1
    28    12    36    1
    29    12    13    1
    30    12    34    1
    31    13    37    1
    32    13    30    1
    33    13    14    1
    34    14    15    1
    35    14    53    1
    36    14    54    1
    37    15    38    1
    38    15    16    1
    39    15    33    1
    40    16    17    1
    41    16    55    1
    42    16    56    1
    43    17    18    1
    44    17    57    1
    45    17    58    1
    46    18    19    1
    47    18    59    1
    48    18    60    1
    49    19    20    1
    50    19    61    1
    51    19    62    1
    52    20    21    1
    53    20    63    1
    54    20    64    1
    55    21    22    1
    56    21    65    1
    57    21    66    1
    58    22    23    1
    59    23    24    1
    60    23    67    1
    61    23    68    1
    62    24    25    2
    63    24    26   am
    64    26    27    1
    65    26    32    1
    66    27    39    1
    67    27    28    1
    68    27    31    1
    69    28    29    2
    70    28    30   am
    71    30    69    1
    72    31    70    1
    73    31    71    1
    74    31    72    1
    75    32    73    1
    76    32    74    1
    77    32    75    1
    78    33    76    1
    79    33    77    1
    80    33    78    1
    81    34    79    1
