@<TRIPOS>MOLECULE
BACE_5.smi:1
 79 80 0 0 0
SMALL
GASTEIGER
****
Structure written by MMmdl.
@<TRIPOS>ATOM
      1 C          31.2502   44.1231   -9.2740 C.3     1  UNL1       -0.0649
      2 C          29.8720   43.4532   -9.3149 C.3     1  UNL1       -0.0504
      3 C          29.0813   43.7853  -10.5894 C.3     1  UNL1       -0.0089
      4 C          27.7663   43.0590  -10.6508 C.ar    1  UNL1        0.0631
      5 C          26.4466   43.5944  -10.5842 C.ar    1  UNL1       -0.0168
      6 C          25.6305   42.5105  -10.7467 C.ar    1  UNL1        0.0501
      7 N          26.4606   41.4192  -10.8452 N.ar    1  UNL1       -0.2801
      8 N          27.7638   41.7512  -10.8311 N.ar    1  UNL1       -0.1786
      9 C          24.1437   42.3996  -10.8376 C.3     1  UNL1        0.0380
     10 N          23.4671   42.6840   -9.5722 N.3     1  UNL1       -0.3081
     11 C          23.5220   41.6142   -8.5738 C.3     1  UNL1        0.0240
     12 C          22.6541   40.3741   -8.9119 C.3     1  UNL1        0.0859
     13 C          21.1191   40.5742   -8.7339 C.3     1  UNL1        0.0505
     14 C          20.3146   39.2427   -8.7832 C.3     1  UNL1       -0.0295
     15 C          18.8116   39.3581   -8.4121 C.3     1  UNL1       -0.0421
     16 C          17.9075   39.5317   -9.6542 C.3     1  UNL1       -0.0504
     17 C          16.4867   40.0194   -9.3178 C.3     1  UNL1       -0.0528
     18 C          15.7095   40.4575  -10.5696 C.3     1  UNL1       -0.0530
     19 C          14.2971   41.0094  -10.2910 C.3     1  UNL1       -0.0510
     20 C          14.2276   42.2231   -9.3429 C.3     1  UNL1       -0.0294
     21 C          15.1903   43.3658   -9.6833 C.3     1  UNL1        0.0483
     22 O          15.0006   43.7982  -11.0280 O.3     1  UNL1       -0.3706
     23 C          15.9564   44.7513  -11.4877 C.3     1  UNL1        0.1238
     24 C          17.3272   44.0779  -11.7110 C.2     1  UNL1        0.2417
     25 O          17.4462   43.3831  -12.7232 O.2     1  UNL1       -0.2731
     26 N          18.3127   44.2153  -10.7820 N.am    1  UNL1       -0.2914
     27 C          19.5583   43.4111  -10.8481 C.3     1  UNL1        0.0991
     28 C          19.8690   42.5760   -9.5853 C.2     1  UNL1        0.2336
     29 O          19.4570   42.9112   -8.4769 O.2     1  UNL1       -0.2738
     30 N          20.6338   41.4880   -9.7736 N.am    1  UNL1       -0.3084
     31 C          20.7413   44.3089  -11.2523 C.3     1  UNL1       -0.0379
     32 C          18.2339   45.2487   -9.7358 C.3     1  UNL1        0.0040
     33 C          18.3578   38.1502   -7.5695 C.3     1  UNL1       -0.0624
     34 O          23.1227   39.3683   -8.0401 O.3     1  UNL1       -0.3887
     35 H          26.1634   40.4594  -10.9639 H       1  UNL1        0.1886
     36 H          22.8582   40.0128   -9.9197 H       1  UNL1        0.0624
     37 H          20.9649   41.0146   -7.7466 H       1  UNL1        0.0524
     38 H          18.6975   40.2382   -7.7764 H       1  UNL1        0.0299
     39 H          19.4623   42.6702  -11.6434 H       1  UNL1        0.0594
     40 H          31.8090   43.8120   -8.3891 H       1  UNL1        0.0230
     41 H          31.1593   45.2101   -9.2459 H       1  UNL1        0.0230
     42 H          31.8428   43.8552  -10.1505 H       1  UNL1        0.0230
     43 H          29.2956   43.7551   -8.4406 H       1  UNL1        0.0266
     44 H          30.0080   42.3733   -9.2420 H       1  UNL1        0.0266
     45 H          29.6798   43.5307  -11.4657 H       1  UNL1        0.0329
     46 H          28.9138   44.8621  -10.6434 H       1  UNL1        0.0329
     47 H          26.1437   44.6234  -10.4640 H       1  UNL1        0.0654
     48 H          23.8539   41.4251  -11.2270 H       1  UNL1        0.0489
     49 H          23.8098   43.1186  -11.5850 H       1  UNL1        0.0489
     50 H          22.4998   42.9375   -9.7429 H       1  UNL1        0.1224
     51 H          23.2096   42.0078   -7.6060 H       1  UNL1        0.0450
     52 H          24.5604   41.3089   -8.4411 H       1  UNL1        0.0450
     53 H          20.4295   38.7634   -9.7564 H       1  UNL1        0.0286
     54 H          20.7713   38.5518   -8.0748 H       1  UNL1        0.0286
     55 H          18.3599   40.2495  -10.3353 H       1  UNL1        0.0268
     56 H          17.8541   38.5965  -10.2129 H       1  UNL1        0.0268
     57 H          16.5624   40.8545   -8.6212 H       1  UNL1        0.0265
     58 H          15.9292   39.2389   -8.7981 H       1  UNL1        0.0265
     59 H          16.2883   41.2022  -11.1161 H       1  UNL1        0.0265
     60 H          15.6187   39.6040  -11.2399 H       1  UNL1        0.0265
     61 H          13.6638   40.2161   -9.8883 H       1  UNL1        0.0266
     62 H          13.8425   41.2870  -11.2405 H       1  UNL1        0.0266
     63 H          13.2049   42.6021   -9.3326 H       1  UNL1        0.0287
     64 H          14.4344   41.8921   -8.3239 H       1  UNL1        0.0287
     65 H          16.2085   43.0230   -9.5063 H       1  UNL1        0.0560
     66 H          15.0236   44.2034   -9.0049 H       1  UNL1        0.0560
     67 H          15.9751   45.6167  -10.8275 H       1  UNL1        0.0657
     68 H          15.6093   45.1244  -12.4509 H       1  UNL1        0.0657
     69 H          20.9082   41.2685  -10.7197 H       1  UNL1        0.1491
     70 H          21.5738   43.7137  -11.6264 H       1  UNL1        0.0252
     71 H          21.1069   44.9028  -10.4142 H       1  UNL1        0.0252
     72 H          20.4578   45.0038  -12.0399 H       1  UNL1        0.0252
     73 H          19.1708   45.3634   -9.1908 H       1  UNL1        0.0429
     74 H          17.4649   45.0107   -9.0006 H       1  UNL1        0.0429
     75 H          18.0179   46.2264  -10.1666 H       1  UNL1        0.0429
     76 H          17.3252   38.2517   -7.2337 H       1  UNL1        0.0232
     77 H          18.9656   38.0449   -6.6701 H       1  UNL1        0.0232
     78 H          18.4307   37.2197   -8.1332 H       1  UNL1        0.0232
     79 H          23.8582   38.9479   -8.4741 H       1  UNL1        0.2099
@<TRIPOS>BOND
     1     1     2    1
     2     1    40    1
     3     1    41    1
     4     1    42    1
     5     2     3    1
     6     2    43    1
     7     2    44    1
     8     3    45    1
     9     3    46    1
    10     3     4    1
    11     4     8   ar
    12     4     5   ar
    13     5     6   ar
    14     5    47    1
    15     6     7   ar
    16     6     9    1
    17     7     8   ar
    18     7    35    1
    19     9    10    1
    20     9    48    1
    21     9    49    1
    22    10    11    1
    23    10    50    1
    24    11    12    1
    25    11    51    1
    26    11    52    1
    27    12    36    1
    28    12    13    1
    29    12    34    1
    30    13    37    1
    31    13    30    1
    32    13    14    1
    33    14    15    1
    34    14    53    1
    35    14    54    1
    36    15    38    1
    37    15    16    1
    38    15    33    1
    39    16    17    1
    40    16    55    1
    41    16    56    1
    42    17    18    1
    43    17    57    1
    44    17    58    1
    45    18    19    1
    46    18    59    1
    47    18    60    1
    48    19    20    1
    49    19    61    1
    50    19    62    1
    51    20    21    1
    52    20    63    1
    53    20    64    1
    54    21    22    1
    55    21    65    1
    56    21    66    1
    57    22    23    1
    58    23    24    1
    59    23    67    1
    60    23    68    1
    61    24    25    2
    62    24    26   am
    63    26    27    1
    64    26    32    1
    65    27    39    1
    66    27    28    1
    67    27    31    1
    68    28    29    2
    69    28    30   am
    70    30    69    1
    71    31    70    1
    72    31    71    1
    73    31    72    1
    74    32    73    1
    75    32    74    1
    76    32    75    1
    77    33    76    1
    78    33    77    1
    79    33    78    1
    80    34    79    1
