@<TRIPOS>MOLECULE
BACE_12.smi:1
 78 81 0 0 0
SMALL
GASTEIGER
****
Structure written by MMmdl.
@<TRIPOS>ATOM
      1 C          21.0646   40.1127   -6.0253 C.3     1  UNL1       -0.0586
      2 C          21.5002   39.1974   -7.1870 C.3     1  UNL1       -0.0215
      3 C          22.8685   39.6607   -7.7177 C.3     1  UNL1       -0.0586
      4 C          20.4210   39.0714   -8.2702 C.ar    1  UNL1       -0.0445
      5 C          20.6983   39.2694   -9.6463 C.ar    1  UNL1       -0.0583
      6 C          19.6722   39.1698  -10.6058 C.ar    1  UNL1       -0.0612
      7 C          18.3542   38.8803  -10.2069 C.ar    1  UNL1       -0.0573
      8 C          18.0609   38.6764   -8.8452 C.ar    1  UNL1       -0.0333
      9 C          19.0994   38.7444   -7.8926 C.ar    1  UNL1       -0.0539
     10 C          16.6379   38.4104   -8.3904 C.3     1  UNL1        0.0213
     11 N          16.2499   39.3165   -7.3087 N.3     1  UNL1       -0.3095
     12 C          15.2618   40.3566   -7.6161 C.3     1  UNL1        0.0240
     13 C          15.5474   41.2497   -8.8600 C.3     1  UNL1        0.0862
     14 C          16.9055   42.0276   -8.9387 C.3     1  UNL1        0.0545
     15 C          17.5969   42.2632   -7.5835 C.3     1  UNL1       -0.0067
     16 C          18.7123   43.3008   -7.6003 C.ar    1  UNL1       -0.0453
     17 C          19.9240   43.0207   -8.2640 C.ar    1  UNL1       -0.0585
     18 C          20.9669   43.9661   -8.2566 C.ar    1  UNL1       -0.0612
     19 C          20.8042   45.1905   -7.5804 C.ar    1  UNL1       -0.0586
     20 C          19.5922   45.4820   -6.9185 C.ar    1  UNL1       -0.0471
     21 C          18.5458   44.5372   -6.9418 C.ar    1  UNL1       -0.0553
     22 C          19.4244   46.7957   -6.1729 C.3     1  UNL1       -0.0276
     23 C          19.4200   48.0235   -7.0978 C.3     1  UNL1       -0.0476
     24 C          18.2168   48.0816   -8.0612 C.3     1  UNL1       -0.0371
     25 C          18.6467   48.3402   -9.5148 C.3     1  UNL1        0.0104
     26 N          17.5126   48.4733  -10.4167 N.pl3   1  UNL1       -0.3289
     27 C          16.9159   47.3616  -11.0219 C.ar    1  UNL1        0.1232
     28 C          17.1760   46.0288  -10.6294 C.ar    1  UNL1       -0.0095
     29 C          16.5005   44.9821  -11.2952 C.ar    1  UNL1        0.0450
     30 C          15.5937   45.3157  -12.3170 C.ar    1  UNL1        0.0122
     31 C          15.4051   46.6673  -12.6458 C.ar    1  UNL1        0.2168
     32 N          16.0598   47.6700  -12.0169 N.ar    1  UNL1       -0.1981
     33 O          14.5007   46.9769  -13.6400 O.3     1  UNL1       -0.4796
     34 C          14.3910   48.3351  -14.0483 C.3     1  UNL1        0.0804
     35 C          16.7414   43.5468  -10.9384 C.2     1  UNL1        0.2446
     36 O          16.8368   42.6798  -11.8083 O.2     1  UNL1       -0.2702
     37 N          16.7655   43.3148   -9.6224 N.am    1  UNL1       -0.3057
     38 O          14.4598   42.1516   -8.9318 O.3     1  UNL1       -0.3887
     39 H          15.4677   40.6385   -9.7595 H       1  UNL1        0.0624
     40 H          17.6019   41.4333   -9.5280 H       1  UNL1        0.0527
     41 H          20.1685   39.7500   -5.5236 H       1  UNL1        0.0235
     42 H          20.8582   41.1239   -6.3741 H       1  UNL1        0.0235
     43 H          21.8438   40.1784   -5.2655 H       1  UNL1        0.0235
     44 H          21.6345   38.1935   -6.7795 H       1  UNL1        0.0343
     45 H          23.2692   38.9500   -8.4394 H       1  UNL1        0.0235
     46 H          23.5992   39.7495   -6.9142 H       1  UNL1        0.0235
     47 H          22.8004   40.6362   -8.2007 H       1  UNL1        0.0235
     48 H          21.6925   39.5083   -9.9928 H       1  UNL1        0.0620
     49 H          19.8919   39.3282  -11.6516 H       1  UNL1        0.0618
     50 H          17.5700   38.8289  -10.9471 H       1  UNL1        0.0621
     51 H          18.8577   38.5732   -6.8533 H       1  UNL1        0.0623
     52 H          15.9426   38.4660   -9.2272 H       1  UNL1        0.0473
     53 H          16.5950   37.3792   -8.0387 H       1  UNL1        0.0473
     54 H          15.9155   38.7615   -6.5188 H       1  UNL1        0.1223
     55 H          14.2911   39.8754   -7.7492 H       1  UNL1        0.0450
     56 H          15.1430   40.9895   -6.7346 H       1  UNL1        0.0450
     57 H          16.8583   42.5590   -6.8399 H       1  UNL1        0.0332
     58 H          18.0253   41.3240   -7.2400 H       1  UNL1        0.0332
     59 H          20.0578   42.0771   -8.7723 H       1  UNL1        0.0620
     60 H          21.8967   43.7455   -8.7619 H       1  UNL1        0.0618
     61 H          21.6162   45.9032   -7.5680 H       1  UNL1        0.0620
     62 H          17.6133   44.7519   -6.4416 H       1  UNL1        0.0623
     63 H          18.5100   46.7755   -5.5797 H       1  UNL1        0.0313
     64 H          20.2483   46.8798   -5.4640 H       1  UNL1        0.0313
     65 H          19.4234   48.9273   -6.4879 H       1  UNL1        0.0269
     66 H          20.3561   48.0498   -7.6571 H       1  UNL1        0.0269
     67 H          17.6413   47.1593   -8.0050 H       1  UNL1        0.0280
     68 H          17.5347   48.8678   -7.7340 H       1  UNL1        0.0280
     69 H          19.2224   49.2648   -9.5660 H       1  UNL1        0.0461
     70 H          19.3135   47.5505   -9.8670 H       1  UNL1        0.0461
     71 H          17.3599   49.3692  -10.8549 H       1  UNL1        0.1475
     72 H          17.8807   45.7984   -9.8441 H       1  UNL1        0.0659
     73 H          15.0446   44.5482  -12.8400 H       1  UNL1        0.0678
     74 H          13.6729   48.4101  -14.8652 H       1  UNL1        0.0660
     75 H          15.3459   48.7175  -14.4136 H       1  UNL1        0.0660
     76 H          14.0392   48.9741  -13.2400 H       1  UNL1        0.0660
     77 H          16.6360   44.1118   -9.0181 H       1  UNL1        0.1494
     78 H          13.6512   41.6588   -8.8396 H       1  UNL1        0.2099
@<TRIPOS>BOND
     1     1     2    1
     2     1    41    1
     3     1    42    1
     4     1    43    1
     5     2     3    1
     6     2     4    1
     7     2    44    1
     8     3    45    1
     9     3    46    1
    10     3    47    1
    11     4     9   ar
    12     4     5   ar
    13     5     6   ar
    14     5    48    1
    15     6     7   ar
    16     6    49    1
    17     7     8   ar
    18     7    50    1
    19     8     9   ar
    20     8    10    1
    21     9    51    1
    22    10    11    1
    23    10    52    1
    24    10    53    1
    25    11    12    1
    26    11    54    1
    27    12    13    1
    28    12    55    1
    29    12    56    1
    30    13    39    1
    31    13    14    1
    32    13    38    1
    33    14    40    1
    34    14    37    1
    35    14    15    1
    36    15    16    1
    37    15    57    1
    38    15    58    1
    39    16    21   ar
    40    16    17   ar
    41    17    18   ar
    42    17    59    1
    43    18    19   ar
    44    18    60    1
    45    19    20   ar
    46    19    61    1
    47    20    21   ar
    48    20    22    1
    49    21    62    1
    50    22    23    1
    51    22    63    1
    52    22    64    1
    53    23    24    1
    54    23    65    1
    55    23    66    1
    56    24    25    1
    57    24    67    1
    58    24    68    1
    59    25    26    1
    60    25    69    1
    61    25    70    1
    62    26    27    1
    63    26    71    1
    64    27    32   ar
    65    27    28   ar
    66    28    29   ar
    67    28    72    1
    68    29    30   ar
    69    29    35    1
    70    30    31   ar
    71    30    73    1
    72    31    32   ar
    73    31    33    1
    74    33    34    1
    75    34    74    1
    76    34    75    1
    77    34    76    1
    78    35    36    2
    79    35    37   am
    80    37    77    1
    81    38    78    1
