@<TRIPOS>MOLECULE
BACE_8.smi:1
 77 79 0 0 0
SMALL
GASTEIGER
****
Structure written by MMmdl.
@<TRIPOS>ATOM
      1 C          20.4589   38.8267   -7.2868 C.3     1  UNL1       -0.0623
      2 C          19.8519   39.1371   -8.6700 C.3     1  UNL1       -0.0400
      3 C          19.0635   37.9256   -9.2230 C.3     1  UNL1       -0.0268
      4 C          17.7862   37.5838   -8.4371 C.3     1  UNL1        0.0479
      5 O          16.8767   38.6666   -8.5476 O.3     1  UNL1       -0.3797
      6 C          15.7826   38.5503   -7.6518 C.3     1  UNL1        0.0477
      7 C          14.7879   39.6935   -7.8681 C.3     1  UNL1       -0.0281
      8 C          15.2606   41.0547   -7.3327 C.3     1  UNL1       -0.0354
      9 C          16.5420   41.5658   -8.0025 C.3     1  UNL1        0.0105
     10 N          16.8292   42.9429   -7.6401 N.pl3   1  UNL1       -0.3290
     11 C          18.0966   43.4614   -7.9091 C.ar    1  UNL1        0.1211
     12 C          18.9128   42.9590   -8.9466 C.ar    1  UNL1       -0.0097
     13 C          20.1550   43.5763   -9.1906 C.ar    1  UNL1        0.0428
     14 C          20.5374   44.6609   -8.3754 C.ar    1  UNL1       -0.0126
     15 C          19.6682   45.0729   -7.3460 C.ar    1  UNL1        0.1320
     16 N          18.4697   44.4950   -7.1270 N.ar    1  UNL1       -0.2208
     17 CL         20.1310   46.3845   -6.3257 Cl      1  UNL1       -0.0619
     18 C          21.0063   43.1611  -10.3540 C.2     1  UNL1        0.2446
     19 O          21.2539   43.9741  -11.2399 O.2     1  UNL1       -0.2702
     20 N          21.4714   41.9018  -10.4152 N.am    1  UNL1       -0.3060
     21 C          21.6364   40.9358   -9.3227 C.3     1  UNL1        0.0508
     22 C          20.9132   39.6107   -9.6932 C.3     1  UNL1       -0.0294
     23 C          23.1615   40.7434   -9.0774 C.3     1  UNL1        0.0859
     24 C          23.8829   42.0425   -8.6201 C.3     1  UNL1        0.0240
     25 N          25.0496   42.4025   -9.4345 N.3     1  UNL1       -0.3095
     26 C          24.7934   42.6697  -10.8452 C.3     1  UNL1        0.0213
     27 C          25.9893   43.2947  -11.5328 C.ar    1  UNL1       -0.0333
     28 C          25.8918   44.6049  -12.0461 C.ar    1  UNL1       -0.0573
     29 C          26.9984   45.1977  -12.6783 C.ar    1  UNL1       -0.0612
     30 C          28.2055   44.4846  -12.8006 C.ar    1  UNL1       -0.0583
     31 C          28.3182   43.1720  -12.2912 C.ar    1  UNL1       -0.0445
     32 C          27.1996   42.5775  -11.6612 C.ar    1  UNL1       -0.0539
     33 C          29.6367   42.4232  -12.4446 C.3     1  UNL1       -0.0215
     34 C          29.5659   41.4047  -13.5869 C.3     1  UNL1       -0.0586
     35 C          30.1098   41.7680  -11.1374 C.3     1  UNL1       -0.0586
     36 O          23.3702   39.7698   -8.0756 O.3     1  UNL1       -0.3887
     37 H          19.1484   39.9586   -8.5445 H       1  UNL1        0.0299
     38 H          21.2032   41.3370   -8.4061 H       1  UNL1        0.0524
     39 H          23.6140   40.3428   -9.9839 H       1  UNL1        0.0624
     40 H          21.1877   38.0184   -7.3465 H       1  UNL1        0.0232
     41 H          19.6980   38.5408   -6.5625 H       1  UNL1        0.0232
     42 H          20.9648   39.6935   -6.8624 H       1  UNL1        0.0232
     43 H          18.7769   38.1101  -10.2582 H       1  UNL1        0.0290
     44 H          19.7146   37.0527   -9.2407 H       1  UNL1        0.0290
     45 H          17.3255   36.6839   -8.8465 H       1  UNL1        0.0560
     46 H          18.0194   37.3658   -7.3938 H       1  UNL1        0.0560
     47 H          15.2704   37.6077   -7.8337 H       1  UNL1        0.0560
     48 H          16.1313   38.5504   -6.6175 H       1  UNL1        0.0560
     49 H          14.5308   39.7696   -8.9238 H       1  UNL1        0.0288
     50 H          13.8659   39.4257   -7.3513 H       1  UNL1        0.0288
     51 H          14.4603   41.7770   -7.4824 H       1  UNL1        0.0281
     52 H          15.4089   40.9882   -6.2533 H       1  UNL1        0.0281
     53 H          17.3819   40.9466   -7.6890 H       1  UNL1        0.0462
     54 H          16.4514   41.4874   -9.0855 H       1  UNL1        0.0462
     55 H          16.3592   43.2791   -6.8016 H       1  UNL1        0.1474
     56 H          18.5856   42.1442   -9.5776 H       1  UNL1        0.0659
     57 H          21.4749   45.1724   -8.5372 H       1  UNL1        0.0655
     58 H          21.9591   41.6627  -11.2661 H       1  UNL1        0.1494
     59 H          21.6369   38.8106   -9.8535 H       1  UNL1        0.0286
     60 H          20.4165   39.7301  -10.6573 H       1  UNL1        0.0286
     61 H          23.1859   42.8794   -8.6076 H       1  UNL1        0.0450
     62 H          24.1939   41.9420   -7.5831 H       1  UNL1        0.0450
     63 H          25.5243   43.2008   -9.0274 H       1  UNL1        0.1223
     64 H          24.5423   41.7500  -11.3655 H       1  UNL1        0.0473
     65 H          23.9372   43.3362  -10.9555 H       1  UNL1        0.0473
     66 H          24.9700   45.1582  -11.9536 H       1  UNL1        0.0621
     67 H          26.9225   46.2030  -13.0671 H       1  UNL1        0.0618
     68 H          29.0468   44.9535  -13.2873 H       1  UNL1        0.0620
     69 H          27.2617   41.5709  -11.2726 H       1  UNL1        0.0623
     70 H          30.3938   43.1593  -12.7187 H       1  UNL1        0.0343
     71 H          29.2595   41.8754  -14.5211 H       1  UNL1        0.0235
     72 H          28.8600   40.6050  -13.3655 H       1  UNL1        0.0235
     73 H          30.5393   40.9492  -13.7625 H       1  UNL1        0.0235
     74 H          30.1502   42.4933  -10.3232 H       1  UNL1        0.0235
     75 H          31.1090   41.3494  -11.2551 H       1  UNL1        0.0235
     76 H          29.4512   40.9518  -10.8406 H       1  UNL1        0.0235
     77 H          23.9616   39.1253   -8.4499 H       1  UNL1        0.2099
@<TRIPOS>BOND
     1     1     2    1
     2     1    40    1
     3     1    41    1
     4     1    42    1
     5     2    37    1
     6     2    22    1
     7     2     3    1
     8     3     4    1
     9     3    43    1
    10     3    44    1
    11     4     5    1
    12     4    45    1
    13     4    46    1
    14     5     6    1
    15     6     7    1
    16     6    47    1
    17     6    48    1
    18     7     8    1
    19     7    49    1
    20     7    50    1
    21     8     9    1
    22     8    51    1
    23     8    52    1
    24     9    10    1
    25     9    53    1
    26     9    54    1
    27    10    11    1
    28    10    55    1
    29    11    16   ar
    30    11    12   ar
    31    12    13   ar
    32    12    56    1
    33    13    14   ar
    34    13    18    1
    35    14    15   ar
    36    14    57    1
    37    15    16   ar
    38    15    17    1
    39    18    19    2
    40    18    20   am
    41    20    21    1
    42    20    58    1
    43    21    38    1
    44    21    22    1
    45    21    23    1
    46    22    59    1
    47    22    60    1
    48    23    39    1
    49    23    24    1
    50    23    36    1
    51    24    25    1
    52    24    61    1
    53    24    62    1
    54    25    26    1
    55    25    63    1
    56    26    27    1
    57    26    64    1
    58    26    65    1
    59    27    32   ar
    60    27    28   ar
    61    28    29   ar
    62    28    66    1
    63    29    30   ar
    64    29    67    1
    65    30    31   ar
    66    30    68    1
    67    31    32   ar
    68    31    33    1
    69    32    69    1
    70    33    34    1
    71    33    35    1
    72    33    70    1
    73    34    71    1
    74    34    72    1
    75    34    73    1
    76    35    74    1
    77    35    75    1
    78    35    76    1
    79    36    77    1
