@<TRIPOS>MOLECULE
BACE_11.smi:1
 80 82 0 0 0
SMALL
GASTEIGER
****
Structure written by MMmdl.
@<TRIPOS>ATOM
      1 C          21.3593   41.7437   -4.6595 C.3     1  UNL1       -0.0379
      2 C          21.2409   41.5566   -6.1813 C.3     1  UNL1        0.0991
      3 C          20.4211   40.3223   -6.6171 C.2     1  UNL1        0.2336
      4 O          20.5852   39.2446   -6.0424 O.2     1  UNL1       -0.2738
      5 N          19.5852   40.4659   -7.6601 N.am    1  UNL1       -0.3081
      6 C          18.9202   39.4209   -8.4427 C.3     1  UNL1        0.0542
      7 C          19.9341   38.7334   -9.3954 C.3     1  UNL1       -0.0066
      8 C          20.5683   39.7063  -10.3795 C.ar    1  UNL1       -0.0421
      9 C          20.0613   39.8339  -11.6891 C.ar    1  UNL1       -0.0583
     10 C          20.6183   40.7794  -12.5727 C.ar    1  UNL1       -0.0580
     11 C          21.6695   41.6180  -12.1457 C.ar    1  UNL1       -0.0199
     12 C          22.1831   41.4949  -10.8327 C.ar    1  UNL1        0.1208
     13 C          21.6450   40.5190   -9.9754 C.ar    1  UNL1       -0.0167
     14 O          23.1710   42.2844  -10.2991 O.3     1  UNL1       -0.4920
     15 C          23.8334   43.2227  -11.1227 C.3     1  UNL1        0.0896
     16 C          24.8989   43.9345  -10.2735 C.3     1  UNL1       -0.0186
     17 C          24.3239   44.9143   -9.2290 C.3     1  UNL1       -0.0495
     18 C          24.3497   44.4255   -7.7599 C.3     1  UNL1       -0.0447
     19 C          23.3582   43.3108   -7.3439 C.3     1  UNL1        0.0242
     20 C          21.8664   43.7031   -7.3478 C.2     1  UNL1        0.2159
     21 O          21.5479   44.7984   -7.8153 O.2     1  UNL1       -0.2756
     22 N          20.9322   42.8557   -6.8365 N.am    1  UNL1       -0.2932
     23 C          19.5322   43.3085   -6.7949 C.3     1  UNL1        0.0039
     24 C          18.0707   38.4127   -7.6200 C.3     1  UNL1        0.0862
     25 C          16.7838   39.0000   -6.9889 C.3     1  UNL1        0.0240
     26 N          16.6605   40.4408   -7.2427 N.3     1  UNL1       -0.3095
     27 C          15.2957   40.9177   -7.4661 C.3     1  UNL1        0.0213
     28 C          15.2416   41.9524   -8.5683 C.ar    1  UNL1       -0.0333
     29 C          14.3552   41.7761   -9.6505 C.ar    1  UNL1       -0.0573
     30 C          14.3378   42.7133  -10.6989 C.ar    1  UNL1       -0.0612
     31 C          15.1981   43.8274  -10.6700 C.ar    1  UNL1       -0.0583
     32 C          16.0920   44.0107   -9.5930 C.ar    1  UNL1       -0.0445
     33 C          16.1014   43.0708   -8.5405 C.ar    1  UNL1       -0.0539
     34 C          17.0457   45.1973   -9.5622 C.3     1  UNL1       -0.0215
     35 C          18.5014   44.7527   -9.7739 C.3     1  UNL1       -0.0586
     36 C          16.8937   46.0274   -8.2759 C.3     1  UNL1       -0.0586
     37 O          17.6981   37.3896   -8.5246 O.3     1  UNL1       -0.3887
     38 H          22.2334   41.2387   -6.4983 H       1  UNL1        0.0594
     39 H          18.2188   39.9757   -9.0705 H       1  UNL1        0.0527
     40 H          18.6783   37.9851   -6.8256 H       1  UNL1        0.0624
     41 H          21.7589   40.8521   -4.1732 H       1  UNL1        0.0252
     42 H          20.3928   41.9716   -4.2079 H       1  UNL1        0.0252
     43 H          22.0308   42.5688   -4.4256 H       1  UNL1        0.0252
     44 H          19.5204   41.3994   -8.0411 H       1  UNL1        0.1491
     45 H          20.7219   38.2440   -8.8200 H       1  UNL1        0.0332
     46 H          19.4483   37.9391   -9.9632 H       1  UNL1        0.0332
     47 H          19.2381   39.2157  -12.0174 H       1  UNL1        0.0620
     48 H          20.2260   40.8779  -13.5755 H       1  UNL1        0.0619
     49 H          22.0575   42.3542  -12.8356 H       1  UNL1        0.0654
     50 H          22.0472   40.4291   -8.9763 H       1  UNL1        0.0657
     51 H          24.3144   42.7052  -11.9541 H       1  UNL1        0.0696
     52 H          23.1312   43.9487  -11.5391 H       1  UNL1        0.0696
     53 H          25.5668   43.2112   -9.8023 H       1  UNL1        0.0298
     54 H          25.5304   44.5063  -10.9558 H       1  UNL1        0.0298
     55 H          24.9384   45.8148   -9.2652 H       1  UNL1        0.0266
     56 H          23.3329   45.2508   -9.5244 H       1  UNL1        0.0266
     57 H          25.3609   44.0961   -7.5195 H       1  UNL1        0.0270
     58 H          24.1792   45.2876   -7.1133 H       1  UNL1        0.0270
     59 H          23.5140   42.4238   -7.9540 H       1  UNL1        0.0358
     60 H          23.6173   43.0110   -6.3311 H       1  UNL1        0.0358
     61 H          19.0910   43.2708   -7.7918 H       1  UNL1        0.0429
     62 H          19.4382   44.3337   -6.4397 H       1  UNL1        0.0429
     63 H          18.9188   42.6976   -6.1332 H       1  UNL1        0.0429
     64 H          15.9210   38.5198   -7.4501 H       1  UNL1        0.0450
     65 H          16.7108   38.7746   -5.9238 H       1  UNL1        0.0450
     66 H          17.0239   40.9414   -6.4334 H       1  UNL1        0.1223
     67 H          14.6545   40.0794   -7.7372 H       1  UNL1        0.0473
     68 H          14.8611   41.3421   -6.5644 H       1  UNL1        0.0473
     69 H          13.7115   40.9091   -9.6907 H       1  UNL1        0.0621
     70 H          13.6713   42.5649  -11.5348 H       1  UNL1        0.0618
     71 H          15.1747   44.5274  -11.4888 H       1  UNL1        0.0620
     72 H          16.7860   43.1976   -7.7147 H       1  UNL1        0.0623
     73 H          16.7845   45.8531  -10.3939 H       1  UNL1        0.0343
     74 H          18.6120   44.2064  -10.7113 H       1  UNL1        0.0235
     75 H          18.8454   44.1037   -8.9695 H       1  UNL1        0.0235
     76 H          19.1719   45.6120   -9.8140 H       1  UNL1        0.0235
     77 H          15.8611   46.3472   -8.1363 H       1  UNL1        0.0235
     78 H          17.5128   46.9240   -8.3128 H       1  UNL1        0.0235
     79 H          17.1860   45.4685   -7.3876 H       1  UNL1        0.0235
     80 H          16.9362   36.9473   -8.1803 H       1  UNL1        0.2099
@<TRIPOS>BOND
     1     1     2    1
     2     1    41    1
     3     1    42    1
     4     1    43    1
     5     2    38    1
     6     2    22    1
     7     2     3    1
     8     3     4    2
     9     3     5   am
    10     5     6    1
    11     5    44    1
    12     6    39    1
    13     6     7    1
    14     6    24    1
    15     7     8    1
    16     7    45    1
    17     7    46    1
    18     8    13   ar
    19     8     9   ar
    20     9    10   ar
    21     9    47    1
    22    10    11   ar
    23    10    48    1
    24    11    12   ar
    25    11    49    1
    26    12    13   ar
    27    12    14    1
    28    13    50    1
    29    14    15    1
    30    15    16    1
    31    15    51    1
    32    15    52    1
    33    16    17    1
    34    16    53    1
    35    16    54    1
    36    17    18    1
    37    17    55    1
    38    17    56    1
    39    18    19    1
    40    18    57    1
    41    18    58    1
    42    19    20    1
    43    19    59    1
    44    19    60    1
    45    20    21    2
    46    20    22   am
    47    22    23    1
    48    23    61    1
    49    23    62    1
    50    23    63    1
    51    24    40    1
    52    24    25    1
    53    24    37    1
    54    25    26    1
    55    25    64    1
    56    25    65    1
    57    26    27    1
    58    26    66    1
    59    27    28    1
    60    27    67    1
    61    27    68    1
    62    28    33   ar
    63    28    29   ar
    64    29    30   ar
    65    29    69    1
    66    30    31   ar
    67    30    70    1
    68    31    32   ar
    69    31    71    1
    70    32    33   ar
    71    32    34    1
    72    33    72    1
    73    34    35    1
    74    34    36    1
    75    34    73    1
    76    35    74    1
    77    35    75    1
    78    35    76    1
    79    36    77    1
    80    36    78    1
    81    36    79    1
    82    37    80    1
