@<TRIPOS>MOLECULE
BACE_19.smi:1
 76 77 0 0 0
SMALL
GASTEIGER
****
Structure written by MMmdl.
@<TRIPOS>ATOM
      1 C          21.8138   42.2228   -2.8134 C.3     1  UNL1       -0.0652
      2 C          21.6634   41.9946   -4.3209 C.3     1  UNL1       -0.0545
      3 C          22.1679   40.6118   -4.7701 C.3     1  UNL1       -0.0376
      4 C          21.8364   40.2777   -6.2378 C.3     1  UNL1        0.0116
      5 N          22.7186   40.9349   -7.2005 N.am    1  UNL1       -0.3151
      6 C          22.5172   42.1412   -7.7548 C.2     1  UNL1        0.2159
      7 O          21.6018   42.8928   -7.4261 O.2     1  UNL1       -0.2755
      8 C          23.4679   42.5457   -8.8901 C.3     1  UNL1        0.0351
      9 C          24.2418   43.8118   -8.4840 C.3     1  UNL1       -0.0540
     10 C          22.7210   42.7575  -10.2346 C.3     1  UNL1       -0.0143
     11 C          22.2512   41.4649  -10.9499 C.3     1  UNL1        0.0742
     12 C          20.9662   40.7920  -10.4068 C.3     1  UNL1        0.0493
     13 C          20.7267   39.3692  -10.9803 C.3     1  UNL1       -0.0295
     14 C          19.5718   38.5337  -10.3711 C.3     1  UNL1       -0.0418
     15 C          19.6331   38.4098   -8.8192 C.3     1  UNL1       -0.0464
     16 C          18.4505   37.7024   -8.1105 C.3     1  UNL1       -0.0274
     17 C          17.1611   38.5019   -8.1606 C.ar    1  UNL1       -0.0470
     18 C          16.0025   37.9548   -8.7533 C.ar    1  UNL1       -0.0586
     19 C          14.8724   38.7647   -8.9670 C.ar    1  UNL1       -0.0612
     20 C          14.9054   40.1190   -8.5928 C.ar    1  UNL1       -0.0570
     21 C          16.0341   40.6553   -7.9439 C.ar    1  UNL1       -0.0263
     22 C          17.1486   39.8332   -7.7005 C.ar    1  UNL1       -0.0538
     23 C          16.0361   42.1049   -7.5005 C.3     1  UNL1        0.0907
     24 S          17.3082   43.1280   -8.3561 S.O2    1  UNL1       -0.0263
     25 O          17.0304   44.5437   -8.0654 O.2     1  UNL1       -0.1740
     26 O          18.6389   42.5807   -8.0584 O.2     1  UNL1       -0.1740
     27 C          16.9459   42.8340  -10.1476 C.3     1  UNL1        0.0769
     28 C          18.0716   43.2840  -11.1150 C.3     1  UNL1        0.0520
     29 C          19.0820   42.1670  -11.4258 C.2     1  UNL1        0.2177
     30 O          19.1806   41.7506  -12.5807 O.2     1  UNL1       -0.2755
     31 N          19.8157   41.7058  -10.3955 N.am    1  UNL1       -0.3097
     32 C          18.7862   44.5975  -10.7482 C.3     1  UNL1       -0.0526
     33 C          18.2278   39.0060  -10.9234 C.3     1  UNL1       -0.0623
     34 O          22.0600   41.7506  -12.3189 O.3     1  UNL1       -0.3899
     35 H          24.2034   41.7510   -9.0280 H       1  UNL1        0.0392
     36 H          23.0653   40.7398  -10.8969 H       1  UNL1        0.0612
     37 H          21.1590   40.6145   -9.3582 H       1  UNL1        0.0524
     38 H          19.6871   37.5252  -10.7661 H       1  UNL1        0.0299
     39 H          17.5730   43.4737  -12.0666 H       1  UNL1        0.0407
     40 H          21.4038   43.1917   -2.5259 H       1  UNL1        0.0230
     41 H          22.8604   42.2057   -2.5143 H       1  UNL1        0.0230
     42 H          21.2891   41.4572   -2.2420 H       1  UNL1        0.0230
     43 H          20.6103   42.1012   -4.5909 H       1  UNL1        0.0263
     44 H          22.2006   42.7818   -4.8523 H       1  UNL1        0.0263
     45 H          23.2419   40.5225   -4.5941 H       1  UNL1        0.0280
     46 H          21.6955   39.8559   -4.1402 H       1  UNL1        0.0280
     47 H          21.9472   39.2029   -6.3891 H       1  UNL1        0.0462
     48 H          20.7898   40.5026   -6.4550 H       1  UNL1        0.0462
     49 H          23.5022   40.3933   -7.5351 H       1  UNL1        0.1487
     50 H          24.7487   43.6786   -7.5274 H       1  UNL1        0.0237
     51 H          23.5781   44.6724   -8.3915 H       1  UNL1        0.0237
     52 H          25.0036   44.0601   -9.2229 H       1  UNL1        0.0237
     53 H          21.8872   43.4496  -10.1098 H       1  UNL1        0.0298
     54 H          23.4132   43.2677  -10.9042 H       1  UNL1        0.0298
     55 H          20.6059   39.4265  -12.0631 H       1  UNL1        0.0286
     56 H          21.6478   38.8051  -10.8328 H       1  UNL1        0.0286
     57 H          20.5506   37.8783   -8.5648 H       1  UNL1        0.0271
     58 H          19.7392   39.3928   -8.3686 H       1  UNL1        0.0271
     59 H          18.2946   36.7109   -8.5328 H       1  UNL1        0.0313
     60 H          18.6874   37.5624   -7.0560 H       1  UNL1        0.0313
     61 H          15.9961   36.9281   -9.0842 H       1  UNL1        0.0620
     62 H          13.9887   38.3588   -9.4372 H       1  UNL1        0.0618
     63 H          14.0582   40.7490   -8.7972 H       1  UNL1        0.0621
     64 H          18.0196   40.2433   -7.2109 H       1  UNL1        0.0623
     65 H          15.0577   42.5591   -7.6429 H       1  UNL1        0.0549
     66 H          16.2585   42.1497   -6.4399 H       1  UNL1        0.0549
     67 H          16.7273   41.7763  -10.2835 H       1  UNL1        0.0507
     68 H          16.0224   43.3663  -10.3687 H       1  UNL1        0.0507
     69 H          19.5800   42.0863   -9.4815 H       1  UNL1        0.1491
     70 H          19.4798   44.8952  -11.5348 H       1  UNL1        0.0237
     71 H          19.3636   44.5126   -9.8274 H       1  UNL1        0.0237
     72 H          18.0694   45.4089  -10.6210 H       1  UNL1        0.0237
     73 H          17.8512   39.8699  -10.3877 H       1  UNL1        0.0232
     74 H          17.4878   38.2161  -10.8400 H       1  UNL1        0.0232
     75 H          18.3039   39.2780  -11.9741 H       1  UNL1        0.0232
     76 H          22.7825   41.3510  -12.7999 H       1  UNL1        0.2099
@<TRIPOS>BOND
     1     1     2    1
     2     1    40    1
     3     1    41    1
     4     1    42    1
     5     2     3    1
     6     2    43    1
     7     2    44    1
     8     3     4    1
     9     3    45    1
    10     3    46    1
    11     4     5    1
    12     4    47    1
    13     4    48    1
    14     5     6   am
    15     5    49    1
    16     6     7    2
    17     6     8    1
    18     8    35    1
    19     8     9    1
    20     8    10    1
    21     9    50    1
    22     9    51    1
    23     9    52    1
    24    10    11    1
    25    10    53    1
    26    10    54    1
    27    11    36    1
    28    11    12    1
    29    11    34    1
    30    12    37    1
    31    12    31    1
    32    12    13    1
    33    13    14    1
    34    13    55    1
    35    13    56    1
    36    14    38    1
    37    14    15    1
    38    14    33    1
    39    15    16    1
    40    15    57    1
    41    15    58    1
    42    16    17    1
    43    16    59    1
    44    16    60    1
    45    17    22   ar
    46    17    18   ar
    47    18    19   ar
    48    18    61    1
    49    19    20   ar
    50    19    62    1
    51    20    21   ar
    52    20    63    1
    53    21    22   ar
    54    21    23    1
    55    22    64    1
    56    23    24    1
    57    23    65    1
    58    23    66    1
    59    24    25    2
    60    24    26    2
    61    24    27    1
    62    27    28    1
    63    27    67    1
    64    27    68    1
    65    28    39    1
    66    28    29    1
    67    28    32    1
    68    29    30    2
    69    29    31   am
    70    31    69    1
    71    32    70    1
    72    32    71    1
    73    32    72    1
    74    33    73    1
    75    33    74    1
    76    33    75    1
    77    34    76    1
