@<TRIPOS>MOLECULE
BACE_9.smi:1
 88 90 0 0 0
SMALL
GASTEIGER
****
Structure written by MMmdl.
@<TRIPOS>ATOM
      1 C          20.7001   43.0071   -6.6159 C.3     1  UNL1       -0.0624
      2 C          22.1253   43.4050   -7.0363 C.3     1  UNL1       -0.0421
      3 C          22.5867   44.6597   -6.2623 C.3     1  UNL1       -0.0504
      4 C          24.0724   44.9991   -6.4626 C.3     1  UNL1       -0.0528
      5 C          24.5613   46.1184   -5.5273 C.3     1  UNL1       -0.0530
      6 C          25.9879   46.5942   -5.8470 C.3     1  UNL1       -0.0530
      7 C          27.0910   45.5943   -5.4460 C.3     1  UNL1       -0.0516
      8 C          28.4701   45.9266   -6.0504 C.3     1  UNL1       -0.0375
      9 C          28.7519   45.2186   -7.3859 C.3     1  UNL1        0.0091
     10 N          27.8265   45.6174   -8.4344 N.pl3   1  UNL1       -0.3438
     11 C          27.5373   44.6816   -9.4328 C.ar    1  UNL1        0.0282
     12 C          28.5097   43.7740   -9.9036 C.ar    1  UNL1       -0.0355
     13 C          28.1891   42.8373  -10.9026 C.ar    1  UNL1       -0.0195
     14 C          26.8755   42.7857  -11.4188 C.ar    1  UNL1       -0.0442
     15 C          25.8883   43.6763  -10.9415 C.ar    1  UNL1        0.0388
     16 C          26.2362   44.6411   -9.9700 C.ar    1  UNL1       -0.0287
     17 C          24.4959   43.6308  -11.5024 C.2     1  UNL1        0.2444
     18 O          24.3091   43.7988  -12.7089 O.2     1  UNL1       -0.2702
     19 N          23.4674   43.4099  -10.6657 N.am    1  UNL1       -0.3058
     20 C          23.4653   42.9407   -9.2708 C.3     1  UNL1        0.0545
     21 C          22.2182   43.5613   -8.5782 C.3     1  UNL1       -0.0293
     22 C          23.5412   41.3831   -9.2857 C.3     1  UNL1        0.1130
     23 C          22.4790   40.6514  -10.1475 C.3     1  UNL1       -0.0050
     24 N          22.4335   39.2104   -9.8107 N.4     1  UNL1        0.2321
     25 C          21.2931   38.7518   -8.9932 C.3     1  UNL1       -0.0076
     26 C          19.9691   39.2996   -9.4932 C.ar    1  UNL1       -0.0027
     27 C          19.9225   40.0200  -10.7048 C.ar    1  UNL1       -0.0535
     28 C          18.6950   40.5014  -11.1961 C.ar    1  UNL1       -0.0611
     29 C          17.5120   40.2768  -10.4679 C.ar    1  UNL1       -0.0583
     30 C          17.5480   39.5668   -9.2478 C.ar    1  UNL1       -0.0444
     31 C          18.7818   39.0724   -8.7694 C.ar    1  UNL1       -0.0501
     32 C          16.2678   39.3456   -8.4572 C.3     1  UNL1       -0.0215
     33 C          16.4359   39.7849   -6.9942 C.3     1  UNL1       -0.0586
     34 C          15.7741   37.8942   -8.5555 C.3     1  UNL1       -0.0586
     35 O          24.8393   40.9715   -9.6766 O.3     1  UNL1       -0.3847
     36 C          29.2531   41.8685  -11.3772 C.3     1  UNL1        0.0724
     37 O          30.1556   42.4754  -12.2952 O.3     1  UNL1       -0.3784
     38 C          29.5666   42.6928  -13.5657 C.3     1  UNL1        0.0369
     39 H          22.7687   42.6027   -6.7080 H       1  UNL1        0.0299
     40 H          24.3501   43.3201   -8.7634 H       1  UNL1        0.0526
     41 H          23.3916   41.0293   -8.2650 H       1  UNL1        0.0666
     42 H          19.9747   43.7762   -6.8773 H       1  UNL1        0.0232
     43 H          20.6389   42.8431   -5.5391 H       1  UNL1        0.0232
     44 H          20.3910   42.0773   -7.0964 H       1  UNL1        0.0232
     45 H          21.9713   45.5176   -6.5332 H       1  UNL1        0.0268
     46 H          22.4143   44.4918   -5.1970 H       1  UNL1        0.0268
     47 H          24.6716   44.1040   -6.3038 H       1  UNL1        0.0265
     48 H          24.2317   45.3055   -7.4953 H       1  UNL1        0.0265
     49 H          23.8884   46.9714   -5.6190 H       1  UNL1        0.0265
     50 H          24.5000   45.7982   -4.4862 H       1  UNL1        0.0265
     51 H          26.0446   46.8394   -6.9059 H       1  UNL1        0.0265
     52 H          26.1734   47.5339   -5.3231 H       1  UNL1        0.0265
     53 H          27.1690   45.5979   -4.3588 H       1  UNL1        0.0266
     54 H          26.8186   44.5752   -5.7153 H       1  UNL1        0.0266
     55 H          28.5973   47.0062   -6.1504 H       1  UNL1        0.0280
     56 H          29.2377   45.6047   -5.3452 H       1  UNL1        0.0280
     57 H          29.7663   45.4453   -7.7150 H       1  UNL1        0.0461
     58 H          28.6984   44.1397   -7.2392 H       1  UNL1        0.0461
     59 H          27.0766   46.2307   -8.1499 H       1  UNL1        0.1461
     60 H          29.5144   43.7905   -9.5070 H       1  UNL1        0.0639
     61 H          26.6247   42.0589  -12.1762 H       1  UNL1        0.0628
     62 H          25.4925   45.3449   -9.6209 H       1  UNL1        0.0643
     63 H          22.5597   43.4094  -11.1084 H       1  UNL1        0.1494
     64 H          21.3195   43.1566   -9.0478 H       1  UNL1        0.0286
     65 H          22.1826   44.6250   -8.8135 H       1  UNL1        0.0286
     66 H          21.5012   41.1040   -9.9626 H       1  UNL1        0.0840
     67 H          22.6714   40.7180  -11.2144 H       1  UNL1        0.0840
     68 H          22.4774   38.6732  -10.6607 H       1  UNL1        0.2018
     69 H          21.2668   37.6635   -9.0369 H       1  UNL1        0.0866
     70 H          21.4360   39.0074   -7.9467 H       1  UNL1        0.0866
     71 H          20.8252   40.1991  -11.2670 H       1  UNL1        0.0622
     72 H          18.6559   41.0407  -12.1317 H       1  UNL1        0.0618
     73 H          16.5753   40.6533  -10.8511 H       1  UNL1        0.0620
     74 H          18.8144   38.5211   -7.8412 H       1  UNL1        0.0625
     75 H          15.4948   39.9756   -8.9017 H       1  UNL1        0.0343
     76 H          16.7344   40.8322   -6.9330 H       1  UNL1        0.0235
     77 H          17.1935   39.1912   -6.4797 H       1  UNL1        0.0235
     78 H          15.5007   39.6776   -6.4446 H       1  UNL1        0.0235
     79 H          15.6822   37.5861   -9.5979 H       1  UNL1        0.0235
     80 H          14.7952   37.7853   -8.0875 H       1  UNL1        0.0235
     81 H          16.4537   37.1993   -8.0601 H       1  UNL1        0.0235
     82 H          24.8975   40.0261   -9.6464 H       1  UNL1        0.2101
     83 H          29.7992   41.5126  -10.5006 H       1  UNL1        0.0610
     84 H          28.7815   41.0013  -11.8382 H       1  UNL1        0.0610
     85 H          30.2891   43.1577  -14.2374 H       1  UNL1        0.0524
     86 H          28.7019   43.3543  -13.4935 H       1  UNL1        0.0524
     87 H          29.2513   41.7510  -14.0113 H       1  UNL1        0.0524
     88 H          23.2869   39.0057   -9.2909 H       1  UNL1        0.2018
@<TRIPOS>BOND
     1     1     2    1
     2     1    42    1
     3     1    43    1
     4     1    44    1
     5     2    39    1
     6     2    21    1
     7     2     3    1
     8     3     4    1
     9     3    45    1
    10     3    46    1
    11     4     5    1
    12     4    47    1
    13     4    48    1
    14     5     6    1
    15     5    49    1
    16     5    50    1
    17     6     7    1
    18     6    51    1
    19     6    52    1
    20     7     8    1
    21     7    53    1
    22     7    54    1
    23     8     9    1
    24     8    55    1
    25     8    56    1
    26     9    10    1
    27     9    57    1
    28     9    58    1
    29    10    11    1
    30    10    59    1
    31    11    16   ar
    32    11    12   ar
    33    12    13   ar
    34    12    60    1
    35    13    14   ar
    36    13    36    1
    37    14    15   ar
    38    14    61    1
    39    15    16   ar
    40    15    17    1
    41    16    62    1
    42    17    18    2
    43    17    19   am
    44    19    20    1
    45    19    63    1
    46    20    40    1
    47    20    21    1
    48    20    22    1
    49    21    64    1
    50    21    65    1
    51    22    41    1
    52    22    23    1
    53    22    35    1
    54    23    24    1
    55    23    66    1
    56    23    67    1
    57    24    25    1
    58    24    68    1
    59    24    88    1
    60    25    26    1
    61    25    69    1
    62    25    70    1
    63    26    31   ar
    64    26    27   ar
    65    27    28   ar
    66    27    71    1
    67    28    29   ar
    68    28    72    1
    69    29    30   ar
    70    29    73    1
    71    30    31   ar
    72    30    32    1
    73    31    74    1
    74    32    33    1
    75    32    34    1
    76    32    75    1
    77    33    76    1
    78    33    77    1
    79    33    78    1
    80    34    79    1
    81    34    80    1
    82    34    81    1
    83    35    82    1
    84    36    37    1
    85    36    83    1
    86    36    84    1
    87    37    38    1
    88    38    85    1
    89    38    86    1
    90    38    87    1
