@<TRIPOS>MOLECULE
BACE_11.smi:1
 80 82 0 0 0
SMALL
GASTEIGER
****
Structure written by MMmdl.
@<TRIPOS>ATOM
      1 C          28.5291   44.2691  -13.3006 C.3     1  UNL1       -0.0379
      2 C          27.9257   44.1466  -11.8893 C.3     1  UNL1        0.0991
      3 C          26.3807   44.0821  -11.8298 C.2     1  UNL1        0.2336
      4 O          25.7093   44.7819  -12.5890 O.2     1  UNL1       -0.2738
      5 N          25.8243   43.3042  -10.8868 N.am    1  UNL1       -0.3081
      6 C          24.4279   43.2875  -10.4455 C.3     1  UNL1        0.0542
      7 C          24.0950   44.5162   -9.5618 C.3     1  UNL1       -0.0066
      8 C          24.9683   44.6009   -8.3223 C.ar    1  UNL1       -0.0421
      9 C          24.4842   44.1147   -7.0954 C.ar    1  UNL1       -0.0583
     10 C          25.3086   44.1494   -5.9596 C.ar    1  UNL1       -0.0580
     11 C          26.6243   44.6435   -6.0400 C.ar    1  UNL1       -0.0199
     12 C          27.1239   45.1305   -7.2722 C.ar    1  UNL1        0.1208
     13 C          26.2744   45.1309   -8.3956 C.ar    1  UNL1       -0.0167
     14 O          28.4033   45.6008   -7.4637 O.3     1  UNL1       -0.4920
     15 C          29.3311   45.5027   -6.3952 C.3     1  UNL1        0.0896
     16 C          30.7306   45.8812   -6.9037 C.3     1  UNL1       -0.0186
     17 C          31.4163   44.7940   -7.7601 C.3     1  UNL1       -0.0495
     18 C          31.4940   45.0856   -9.2767 C.3     1  UNL1       -0.0447
     19 C          30.1971   44.8978  -10.1001 C.3     1  UNL1        0.0242
     20 C          29.7309   43.4365  -10.2738 C.2     1  UNL1        0.2159
     21 O          30.3409   42.5499   -9.6732 O.2     1  UNL1       -0.2756
     22 N          28.6797   43.1490  -11.0893 N.am    1  UNL1       -0.2932
     23 C          28.3442   41.7359  -11.3144 C.3     1  UNL1        0.0039
     24 C          23.4137   42.9925  -11.5873 C.3     1  UNL1        0.0862
     25 C          22.2679   42.0554  -11.1319 C.3     1  UNL1        0.0240
     26 N          21.6600   41.3498  -12.2634 N.3     1  UNL1       -0.3095
     27 C          20.9089   40.1506  -11.8911 C.3     1  UNL1        0.0213
     28 C          19.6991   40.4162  -11.0147 C.ar    1  UNL1       -0.0333
     29 C          18.6607   41.2570  -11.4655 C.ar    1  UNL1       -0.0573
     30 C          17.5376   41.4886  -10.6475 C.ar    1  UNL1       -0.0612
     31 C          17.4505   40.8845   -9.3777 C.ar    1  UNL1       -0.0583
     32 C          18.4846   40.0411   -8.9172 C.ar    1  UNL1       -0.0445
     33 C          19.6041   39.8057   -9.7464 C.ar    1  UNL1       -0.0539
     34 C          18.3859   39.3957   -7.5394 C.3     1  UNL1       -0.0215
     35 C          19.6078   39.7213   -6.6634 C.3     1  UNL1       -0.0586
     36 C          18.1488   37.8821   -7.6475 C.3     1  UNL1       -0.0586
     37 O          22.8599   44.2097  -12.0396 O.3     1  UNL1       -0.3887
     38 H          28.0764   45.1272  -11.4429 H       1  UNL1        0.0594
     39 H          24.4076   42.4223   -9.7815 H       1  UNL1        0.0527
     40 H          23.9425   42.5500  -12.4280 H       1  UNL1        0.0624
     41 H          27.9718   44.9686  -13.9250 H       1  UNL1        0.0252
     42 H          28.5385   43.3036  -13.8046 H       1  UNL1        0.0252
     43 H          29.5598   44.6213  -13.2610 H       1  UNL1        0.0252
     44 H          26.4633   42.7610  -10.3238 H       1  UNL1        0.1491
     45 H          24.2067   45.4418  -10.1275 H       1  UNL1        0.0332
     46 H          23.0496   44.4741   -9.2542 H       1  UNL1        0.0332
     47 H          23.4877   43.7030   -7.0216 H       1  UNL1        0.0620
     48 H          24.9352   43.7606   -5.0235 H       1  UNL1        0.0619
     49 H          27.2270   44.6332   -5.1448 H       1  UNL1        0.0654
     50 H          26.6512   45.5132   -9.3320 H       1  UNL1        0.0657
     51 H          29.0322   46.1891   -5.6018 H       1  UNL1        0.0696
     52 H          29.3516   44.4967   -5.9732 H       1  UNL1        0.0696
     53 H          30.6995   46.8366   -7.4284 H       1  UNL1        0.0298
     54 H          31.3543   46.0539   -6.0255 H       1  UNL1        0.0298
     55 H          32.4457   44.7137   -7.4075 H       1  UNL1        0.0266
     56 H          30.9849   43.8136   -7.5594 H       1  UNL1        0.0266
     57 H          31.8600   46.1030   -9.4218 H       1  UNL1        0.0270
     58 H          32.2662   44.4466   -9.7076 H       1  UNL1        0.0270
     59 H          29.3964   45.4968   -9.6715 H       1  UNL1        0.0358
     60 H          30.3830   45.3046  -11.0946 H       1  UNL1        0.0358
     61 H          27.8391   41.3272  -10.4398 H       1  UNL1        0.0429
     62 H          29.2346   41.1329  -11.5055 H       1  UNL1        0.0429
     63 H          27.6887   41.5956  -12.1742 H       1  UNL1        0.0429
     64 H          22.6845   41.3074  -10.4575 H       1  UNL1        0.0450
     65 H          21.5174   42.5964  -10.5563 H       1  UNL1        0.0450
     66 H          22.4228   41.0620  -12.8784 H       1  UNL1        0.1223
     67 H          20.5573   39.6504  -12.7940 H       1  UNL1        0.0473
     68 H          21.5682   39.4385  -11.3940 H       1  UNL1        0.0473
     69 H          18.7279   41.7244  -12.4364 H       1  UNL1        0.0621
     70 H          16.7408   42.1306  -10.9911 H       1  UNL1        0.0618
     71 H          16.5840   41.0701   -8.7581 H       1  UNL1        0.0620
     72 H          20.3964   39.1553   -9.4053 H       1  UNL1        0.0623
     73 H          17.5152   39.8198   -7.0352 H       1  UNL1        0.0343
     74 H          19.7525   40.7994   -6.5878 H       1  UNL1        0.0235
     75 H          20.5248   39.2837   -7.0567 H       1  UNL1        0.0235
     76 H          19.4699   39.3449   -5.6491 H       1  UNL1        0.0235
     77 H          17.2248   37.6685   -8.1865 H       1  UNL1        0.0235
     78 H          18.0600   37.4283   -6.6598 H       1  UNL1        0.0235
     79 H          18.9633   37.3841   -8.1728 H       1  UNL1        0.0235
     80 H          23.5768   44.7258  -12.3880 H       1  UNL1        0.2099
@<TRIPOS>BOND
     1     1     2    1
     2     1    41    1
     3     1    42    1
     4     1    43    1
     5     2    38    1
     6     2    22    1
     7     2     3    1
     8     3     4    2
     9     3     5   am
    10     5     6    1
    11     5    44    1
    12     6    39    1
    13     6     7    1
    14     6    24    1
    15     7     8    1
    16     7    45    1
    17     7    46    1
    18     8    13   ar
    19     8     9   ar
    20     9    10   ar
    21     9    47    1
    22    10    11   ar
    23    10    48    1
    24    11    12   ar
    25    11    49    1
    26    12    13   ar
    27    12    14    1
    28    13    50    1
    29    14    15    1
    30    15    16    1
    31    15    51    1
    32    15    52    1
    33    16    17    1
    34    16    53    1
    35    16    54    1
    36    17    18    1
    37    17    55    1
    38    17    56    1
    39    18    19    1
    40    18    57    1
    41    18    58    1
    42    19    20    1
    43    19    59    1
    44    19    60    1
    45    20    21    2
    46    20    22   am
    47    22    23    1
    48    23    61    1
    49    23    62    1
    50    23    63    1
    51    24    40    1
    52    24    25    1
    53    24    37    1
    54    25    26    1
    55    25    64    1
    56    25    65    1
    57    26    27    1
    58    26    66    1
    59    27    28    1
    60    27    67    1
    61    27    68    1
    62    28    33   ar
    63    28    29   ar
    64    29    30   ar
    65    29    69    1
    66    30    31   ar
    67    30    70    1
    68    31    32   ar
    69    31    71    1
    70    32    33   ar
    71    32    34    1
    72    33    72    1
    73    34    35    1
    74    34    36    1
    75    34    73    1
    76    35    74    1
    77    35    75    1
    78    35    76    1
    79    36    77    1
    80    36    78    1
    81    36    79    1
    82    37    80    1
