@<TRIPOS>MOLECULE
BACE_5.smi:1
 80 81 0 0 0
SMALL
GASTEIGER
****
Structure written by MMmdl.
@<TRIPOS>ATOM
      1 C          15.6647   45.6938   -9.0747 C.3     1  UNL1       -0.0649
      2 C          17.0835   45.1128   -9.1162 C.3     1  UNL1       -0.0504
      3 C          17.1456   43.7381   -9.8037 C.3     1  UNL1       -0.0089
      4 C          16.2939   42.7077   -9.1109 C.ar    1  UNL1        0.0632
      5 C          16.6845   41.7846   -8.0953 C.ar    1  UNL1       -0.0129
      6 C          15.5456   41.0808   -7.8180 C.ar    1  UNL1        0.0806
      7 N          14.5703   41.5919   -8.6438 N.ar    1  UNL1       -0.2762
      8 N          15.0144   42.5845   -9.4376 N.ar    1  UNL1       -0.1785
      9 C          15.2782   39.9737   -6.8521 C.3     1  UNL1        0.0092
     10 N          16.3816   38.9922   -6.8409 N.4     1  UNL1        0.2332
     11 C          16.7297   38.4491   -8.1715 C.3     1  UNL1       -0.0049
     12 C          18.0563   37.6601   -8.1307 C.3     1  UNL1        0.1129
     13 C          19.2925   38.5548   -8.1319 C.3     1  UNL1        0.0543
     14 C          19.4616   39.1755   -6.7277 C.3     1  UNL1       -0.0293
     15 C          20.6747   40.1190   -6.5859 C.3     1  UNL1       -0.0421
     16 C          20.9145   40.6078   -5.1441 C.3     1  UNL1       -0.0504
     17 C          22.0739   41.6193   -5.0396 C.3     1  UNL1       -0.0528
     18 C          21.6990   43.0371   -5.5224 C.3     1  UNL1       -0.0530
     19 C          22.8989   43.9939   -5.6887 C.3     1  UNL1       -0.0510
     20 C          23.9136   43.6092   -6.7929 C.3     1  UNL1       -0.0294
     21 C          23.3146   43.3287   -8.1889 C.3     1  UNL1        0.0483
     22 O          22.5860   44.5340   -8.8234 O.3     1  UNL1       -0.3706
     23 C          21.9172   44.2196  -10.1859 C.3     1  UNL1        0.1238
     24 C          20.7122   43.2731  -10.1009 C.2     1  UNL1        0.2417
     25 O          19.8400   43.4752   -9.2721 O.2     1  UNL1       -0.2731
     26 N          20.6853   42.2554  -10.9750 N.am    1  UNL1       -0.2914
     27 C          19.6486   41.2004  -10.9274 C.3     1  UNL1        0.0991
     28 C          20.0668   40.0465   -9.9885 C.2     1  UNL1        0.2336
     29 O          21.1918   39.5760  -10.0272 O.2     1  UNL1       -0.2738
     30 N          19.1184   39.5842   -9.1616 N.am    1  UNL1       -0.3083
     31 C          19.4789   40.6134  -12.3257 C.3     1  UNL1       -0.0379
     32 C          21.7923   42.1330  -11.9019 C.3     1  UNL1        0.0040
     33 C          21.9295   39.4125   -7.0909 C.3     1  UNL1       -0.0624
     34 O          18.0808   36.7813   -9.2415 O.3     1  UNL1       -0.3847
     35 H          13.6111   41.2771   -8.6756 H       1  UNL1        0.1887
     36 H          18.0549   37.0526   -7.2246 H       1  UNL1        0.0666
     37 H          20.1322   37.8949   -8.3500 H       1  UNL1        0.0526
     38 H          20.5323   40.9772   -7.2426 H       1  UNL1        0.0299
     39 H          18.6722   41.5987  -10.6516 H       1  UNL1        0.0594
     40 H          15.6594   46.6666   -8.5826 H       1  UNL1        0.0230
     41 H          14.9854   45.0415   -8.5252 H       1  UNL1        0.0230
     42 H          15.2623   45.8292  -10.0790 H       1  UNL1        0.0230
     43 H          17.4639   45.0356   -8.0969 H       1  UNL1        0.0266
     44 H          17.7376   45.8128   -9.6375 H       1  UNL1        0.0266
     45 H          18.1802   43.3941   -9.8334 H       1  UNL1        0.0329
     46 H          16.8341   43.8355  -10.8447 H       1  UNL1        0.0329
     47 H          17.6557   41.6592   -7.6395 H       1  UNL1        0.0656
     48 H          14.3458   39.4708   -7.1126 H       1  UNL1        0.0881
     49 H          15.1485   40.3844   -5.8500 H       1  UNL1        0.0881
     50 H          16.1182   38.2232   -6.2415 H       1  UNL1        0.2018
     51 H          16.8206   39.2895   -8.8610 H       1  UNL1        0.0840
     52 H          15.9131   37.8242   -8.5354 H       1  UNL1        0.0840
     53 H          18.5500   39.7063   -6.4531 H       1  UNL1        0.0286
     54 H          19.5543   38.3631   -6.0069 H       1  UNL1        0.0286
     55 H          20.0041   41.0447   -4.7336 H       1  UNL1        0.0268
     56 H          21.1394   39.7455   -4.5166 H       1  UNL1        0.0268
     57 H          22.9276   41.2346   -5.5975 H       1  UNL1        0.0265
     58 H          22.4065   41.6821   -4.0035 H       1  UNL1        0.0265
     59 H          21.1484   42.9926   -6.4620 H       1  UNL1        0.0265
     60 H          20.9978   43.4715   -4.8098 H       1  UNL1        0.0265
     61 H          23.4237   44.0822   -4.7374 H       1  UNL1        0.0266
     62 H          22.5174   44.9941   -5.8943 H       1  UNL1        0.0266
     63 H          24.6596   44.3997   -6.8762 H       1  UNL1        0.0287
     64 H          24.4710   42.7291   -6.4724 H       1  UNL1        0.0287
     65 H          22.6441   42.4717   -8.1258 H       1  UNL1        0.0560
     66 H          24.1167   43.0123   -8.8558 H       1  UNL1        0.0560
     67 H          22.6640   43.8299  -10.8777 H       1  UNL1        0.0657
     68 H          21.5558   45.1439  -10.6364 H       1  UNL1        0.0657
     69 H          18.2104   40.0230   -9.2174 H       1  UNL1        0.1491
     70 H          18.6998   39.8501  -12.3424 H       1  UNL1        0.0252
     71 H          20.3972   40.1530  -12.6917 H       1  UNL1        0.0252
     72 H          19.1892   41.3815  -13.0435 H       1  UNL1        0.0252
     73 H          21.6251   41.3920  -12.6812 H       1  UNL1        0.0429
     74 H          22.7107   41.8545  -11.3836 H       1  UNL1        0.0429
     75 H          21.9609   43.0673  -12.4389 H       1  UNL1        0.0429
     76 H          22.8102   40.0488   -7.0063 H       1  UNL1        0.0232
     77 H          21.8448   39.1372   -8.1416 H       1  UNL1        0.0232
     78 H          22.1303   38.5006   -6.5273 H       1  UNL1        0.0232
     79 H          17.9621   37.2900  -10.0289 H       1  UNL1        0.2101
     80 H          17.2011   39.4372   -6.4532 H       1  UNL1        0.2018
@<TRIPOS>BOND
     1     1     2    1
     2     1    40    1
     3     1    41    1
     4     1    42    1
     5     2     3    1
     6     2    43    1
     7     2    44    1
     8     3    45    1
     9     3    46    1
    10     3     4    1
    11     4     8   ar
    12     4     5   ar
    13     5     6   ar
    14     5    47    1
    15     6     7   ar
    16     6     9    1
    17     7     8   ar
    18     7    35    1
    19     9    10    1
    20     9    48    1
    21     9    49    1
    22    10    11    1
    23    10    50    1
    24    10    80    1
    25    11    12    1
    26    11    51    1
    27    11    52    1
    28    12    36    1
    29    12    13    1
    30    12    34    1
    31    13    37    1
    32    13    30    1
    33    13    14    1
    34    14    15    1
    35    14    53    1
    36    14    54    1
    37    15    38    1
    38    15    16    1
    39    15    33    1
    40    16    17    1
    41    16    55    1
    42    16    56    1
    43    17    18    1
    44    17    57    1
    45    17    58    1
    46    18    19    1
    47    18    59    1
    48    18    60    1
    49    19    20    1
    50    19    61    1
    51    19    62    1
    52    20    21    1
    53    20    63    1
    54    20    64    1
    55    21    22    1
    56    21    65    1
    57    21    66    1
    58    22    23    1
    59    23    24    1
    60    23    67    1
    61    23    68    1
    62    24    25    2
    63    24    26   am
    64    26    27    1
    65    26    32    1
    66    27    39    1
    67    27    28    1
    68    27    31    1
    69    28    29    2
    70    28    30   am
    71    30    69    1
    72    31    70    1
    73    31    71    1
    74    31    72    1
    75    32    73    1
    76    32    74    1
    77    32    75    1
    78    33    76    1
    79    33    77    1
    80    33    78    1
    81    34    79    1
