@<TRIPOS>MOLECULE
BACE_15.smi:1
 82 85 0 0 0
SMALL
GASTEIGER
****
Structure written by MMmdl.
@<TRIPOS>ATOM
      1 C          16.6672   36.2623   -9.2581 C.3     1  UNL1       -0.0586
      2 C          16.6456   37.7216   -8.8017 C.3     1  UNL1       -0.0215
      3 C          16.1351   38.6792   -9.8850 C.3     1  UNL1       -0.0586
      4 C          18.0044   38.1602   -8.2781 C.ar    1  UNL1       -0.0445
      5 C          18.1054   38.6012   -6.9471 C.ar    1  UNL1       -0.0583
      6 C          19.3481   39.0047   -6.4387 C.ar    1  UNL1       -0.0612
      7 C          20.4999   38.9579   -7.2369 C.ar    1  UNL1       -0.0573
      8 C          20.4113   38.5575   -8.5787 C.ar    1  UNL1       -0.0333
      9 C          19.1610   38.1438   -9.0967 C.ar    1  UNL1       -0.0539
     10 C          21.6678   38.6131   -9.4291 C.3     1  UNL1        0.0213
     11 N          21.7477   39.8379  -10.2134 N.3     1  UNL1       -0.3095
     12 C          21.0191   39.7829  -11.4763 C.3     1  UNL1        0.0240
     13 C          20.4913   41.1589  -11.9120 C.3     1  UNL1        0.0862
     14 C          19.2997   41.6521  -11.0352 C.3     1  UNL1        0.0545
     15 C          18.4084   42.7490  -11.6900 C.3     1  UNL1       -0.0066
     16 C          17.3257   43.2750  -10.7545 C.ar    1  UNL1       -0.0421
     17 C          16.2213   42.4583  -10.4415 C.ar    1  UNL1       -0.0583
     18 C          15.2742   42.8863   -9.4948 C.ar    1  UNL1       -0.0580
     19 C          15.4289   44.1327   -8.8596 C.ar    1  UNL1       -0.0199
     20 C          16.5105   44.9799   -9.1788 C.ar    1  UNL1        0.1208
     21 C          17.4491   44.5472  -10.1523 C.ar    1  UNL1       -0.0167
     22 O          16.5787   46.1679   -8.4815 O.3     1  UNL1       -0.4920
     23 C          17.6188   47.1022   -8.7563 C.3     1  UNL1        0.0897
     24 C          17.8212   47.9674   -7.5021 C.3     1  UNL1       -0.0156
     25 C          18.4618   47.1787   -6.3438 C.3     1  UNL1       -0.0156
     26 C          19.9977   47.2727   -6.3194 C.3     1  UNL1        0.0897
     27 O          20.5560   46.2278   -5.5290 O.3     1  UNL1       -0.4919
     28 C          20.7339   44.9753   -6.0798 C.ar    1  UNL1        0.1215
     29 C          21.1929   43.9484   -5.2300 C.ar    1  UNL1       -0.0145
     30 C          21.4255   42.6455   -5.7119 C.ar    1  UNL1       -0.0178
     31 C          21.1993   42.3642   -7.0769 C.ar    1  UNL1       -0.0440
     32 C          20.7254   43.3730   -7.9413 C.ar    1  UNL1        0.0405
     33 C          20.5035   44.6692   -7.4405 C.ar    1  UNL1       -0.0078
     34 C          20.5016   43.1161   -9.3983 C.2     1  UNL1        0.2445
     35 O          20.9165   43.9130  -10.2399 O.2     1  UNL1       -0.2702
     36 N          19.7479   42.0451   -9.6935 N.am    1  UNL1       -0.3057
     37 C          21.9823   41.5737   -4.7824 C.3     1  UNL1        0.0725
     38 O          21.6992   41.7801   -3.4034 O.3     1  UNL1       -0.3784
     39 C          20.3507   41.5155   -3.0495 C.3     1  UNL1        0.0369
     40 O          20.0599   40.9546  -13.2368 O.3     1  UNL1       -0.3887
     41 H          21.2981   41.8925  -11.9416 H       1  UNL1        0.0624
     42 H          18.6448   40.7955  -10.8680 H       1  UNL1        0.0527
     43 H          16.9297   35.6034   -8.4302 H       1  UNL1        0.0235
     44 H          17.4078   36.1277  -10.0399 H       1  UNL1        0.0235
     45 H          15.6937   35.9532   -9.6415 H       1  UNL1        0.0235
     46 H          15.9317   37.7649   -7.9778 H       1  UNL1        0.0343
     47 H          16.0247   39.6821   -9.4736 H       1  UNL1        0.0235
     48 H          15.1582   38.3714  -10.2563 H       1  UNL1        0.0235
     49 H          16.8189   38.7386  -10.7309 H       1  UNL1        0.0235
     50 H          17.2327   38.6301   -6.3092 H       1  UNL1        0.0620
     51 H          19.4117   39.3493   -5.4178 H       1  UNL1        0.0618
     52 H          21.4527   39.2523   -6.8268 H       1  UNL1        0.0621
     53 H          19.0809   37.8107  -10.1193 H       1  UNL1        0.0623
     54 H          22.5326   38.5544   -8.7673 H       1  UNL1        0.0473
     55 H          21.7295   37.7495  -10.0713 H       1  UNL1        0.0473
     56 H          22.7193   40.0896  -10.3743 H       1  UNL1        0.1223
     57 H          21.6641   39.3680  -12.2495 H       1  UNL1        0.0450
     58 H          20.1758   39.0986  -11.4110 H       1  UNL1        0.0450
     59 H          19.0237   43.5789  -12.0386 H       1  UNL1        0.0332
     60 H          17.9207   42.3509  -12.5790 H       1  UNL1        0.0332
     61 H          16.1177   41.4876  -10.9020 H       1  UNL1        0.0620
     62 H          14.4443   42.2453   -9.2328 H       1  UNL1        0.0619
     63 H          14.7180   44.4359   -8.1054 H       1  UNL1        0.0654
     64 H          18.3002   45.1489  -10.4261 H       1  UNL1        0.0657
     65 H          18.5705   46.6398   -9.0036 H       1  UNL1        0.0696
     66 H          17.3218   47.7200   -9.6042 H       1  UNL1        0.0696
     67 H          18.4369   48.8347   -7.7424 H       1  UNL1        0.0299
     68 H          16.8601   48.3697   -7.1869 H       1  UNL1        0.0299
     69 H          18.0787   47.5479   -5.3923 H       1  UNL1        0.0299
     70 H          18.1471   46.1358   -6.3995 H       1  UNL1        0.0299
     71 H          20.4345   47.3136   -7.3168 H       1  UNL1        0.0696
     72 H          20.2797   48.2198   -5.8589 H       1  UNL1        0.0696
     73 H          21.3804   44.1554   -4.1878 H       1  UNL1        0.0657
     74 H          21.4166   41.3846   -7.4709 H       1  UNL1        0.0628
     75 H          20.1590   45.4134   -8.1369 H       1  UNL1        0.0662
     76 H          19.4559   41.4551   -8.9266 H       1  UNL1        0.1494
     77 H          21.6407   40.5868   -5.0826 H       1  UNL1        0.0610
     78 H          23.0654   41.5735   -4.8945 H       1  UNL1        0.0610
     79 H          20.2209   41.6475   -1.9757 H       1  UNL1        0.0524
     80 H          20.0672   40.4916   -3.2950 H       1  UNL1        0.0524
     81 H          19.6644   42.1982   -3.5508 H       1  UNL1        0.0524
     82 H          19.4478   40.2319  -13.2365 H       1  UNL1        0.2099
@<TRIPOS>BOND
     1     1     2    1
     2     1    43    1
     3     1    44    1
     4     1    45    1
     5     2     3    1
     6     2     4    1
     7     2    46    1
     8     3    47    1
     9     3    48    1
    10     3    49    1
    11     4     9   ar
    12     4     5   ar
    13     5     6   ar
    14     5    50    1
    15     6     7   ar
    16     6    51    1
    17     7     8   ar
    18     7    52    1
    19     8     9   ar
    20     8    10    1
    21     9    53    1
    22    10    11    1
    23    10    54    1
    24    10    55    1
    25    11    12    1
    26    11    56    1
    27    12    13    1
    28    12    57    1
    29    12    58    1
    30    13    41    1
    31    13    14    1
    32    13    40    1
    33    14    42    1
    34    14    36    1
    35    14    15    1
    36    15    16    1
    37    15    59    1
    38    15    60    1
    39    16    21   ar
    40    16    17   ar
    41    17    18   ar
    42    17    61    1
    43    18    19   ar
    44    18    62    1
    45    19    20   ar
    46    19    63    1
    47    20    21   ar
    48    20    22    1
    49    21    64    1
    50    22    23    1
    51    23    24    1
    52    23    65    1
    53    23    66    1
    54    24    25    1
    55    24    67    1
    56    24    68    1
    57    25    26    1
    58    25    69    1
    59    25    70    1
    60    26    27    1
    61    26    71    1
    62    26    72    1
    63    27    28    1
    64    28    33   ar
    65    28    29   ar
    66    29    30   ar
    67    29    73    1
    68    30    31   ar
    69    30    37    1
    70    31    32   ar
    71    31    74    1
    72    32    33   ar
    73    32    34    1
    74    33    75    1
    75    34    35    2
    76    34    36   am
    77    36    76    1
    78    37    38    1
    79    37    77    1
    80    37    78    1
    81    38    39    1
    82    39    79    1
    83    39    80    1
    84    39    81    1
    85    40    82    1
