@<TRIPOS>MOLECULE
BACE_9.smi:1
 88 90 0 0 0
SMALL
GASTEIGER
****
Structure written by MMmdl.
@<TRIPOS>ATOM
      1 C          21.8979   43.4457   -6.0635 C.3     1  UNL1       -0.0624
      2 C          23.2552   43.7003   -6.7413 C.3     1  UNL1       -0.0421
      3 C          23.9657   44.9082   -6.0914 C.3     1  UNL1       -0.0504
      4 C          25.4163   45.0999   -6.5622 C.3     1  UNL1       -0.0528
      5 C          26.1700   46.1713   -5.7554 C.3     1  UNL1       -0.0530
      6 C          27.5542   46.5038   -6.3362 C.3     1  UNL1       -0.0530
      7 C          28.6114   45.4032   -6.1165 C.3     1  UNL1       -0.0516
      8 C          29.8841   45.5960   -6.9655 C.3     1  UNL1       -0.0375
      9 C          29.8517   44.8567   -8.3133 C.3     1  UNL1        0.0091
     10 N          28.7944   45.3382   -9.1880 N.pl3   1  UNL1       -0.3438
     11 C          28.2423   44.4298  -10.0968 C.ar    1  UNL1        0.0282
     12 C          29.0231   43.4290  -10.7132 C.ar    1  UNL1       -0.0355
     13 C          28.4399   42.5228  -11.6169 C.ar    1  UNL1       -0.0195
     14 C          27.0559   42.5968  -11.8882 C.ar    1  UNL1       -0.0442
     15 C          26.2602   43.5821  -11.2624 C.ar    1  UNL1        0.0388
     16 C          26.8677   44.5135  -10.3913 C.ar    1  UNL1       -0.0287
     17 C          24.7915   43.6696  -11.5637 C.2     1  UNL1        0.2444
     18 O          24.4070   43.8485  -12.7208 O.2     1  UNL1       -0.2702
     19 N          23.9146   43.5546  -10.5515 N.am    1  UNL1       -0.3058
     20 C          24.1197   43.0954   -9.1684 C.3     1  UNL1        0.0545
     21 C          23.0828   43.8385   -8.2781 C.3     1  UNL1       -0.0293
     22 C          24.0433   41.5378   -9.1610 C.3     1  UNL1        0.1130
     23 C          22.8319   40.9055   -9.8953 C.3     1  UNL1       -0.0050
     24 N          22.4177   39.6469   -9.2346 N.4     1  UNL1        0.2321
     25 C          21.4665   39.7642   -8.1119 C.3     1  UNL1       -0.0076
     26 C          20.0392   39.4677   -8.5332 C.ar    1  UNL1       -0.0027
     27 C          19.7938   38.5578   -9.5826 C.ar    1  UNL1       -0.0535
     28 C          18.4734   38.2481   -9.9576 C.ar    1  UNL1       -0.0611
     29 C          17.3943   38.8605   -9.2937 C.ar    1  UNL1       -0.0583
     30 C          17.6278   39.7818   -8.2494 C.ar    1  UNL1       -0.0444
     31 C          18.9559   40.0751   -7.8677 C.ar    1  UNL1       -0.0501
     32 C          16.4563   40.4542   -7.5506 C.3     1  UNL1       -0.0215
     33 C          15.6544   39.4442   -6.7149 C.3     1  UNL1       -0.0586
     34 C          15.5539   41.2097   -8.5379 C.3     1  UNL1       -0.0586
     35 O          25.2481   40.9977   -9.6748 O.3     1  UNL1       -0.3847
     36 C          29.3039   41.4521  -12.2520 C.3     1  UNL1        0.0724
     37 O          30.5967   41.3896  -11.6600 O.3     1  UNL1       -0.3784
     38 C          31.4207   42.4747  -12.0498 C.3     1  UNL1        0.0369
     39 H          23.8680   42.8409   -6.5152 H       1  UNL1        0.0299
     40 H          25.1135   43.3894   -8.8365 H       1  UNL1        0.0526
     41 H          23.9671   41.2097   -8.1237 H       1  UNL1        0.0666
     42 H          21.2137   44.2805   -6.2084 H       1  UNL1        0.0232
     43 H          22.0167   43.2943   -4.9897 H       1  UNL1        0.0232
     44 H          21.4203   42.5479   -6.4595 H       1  UNL1        0.0232
     45 H          23.3959   45.8206   -6.2673 H       1  UNL1        0.0268
     46 H          23.9732   44.7637   -5.0089 H       1  UNL1        0.0268
     47 H          25.9465   44.1515   -6.4928 H       1  UNL1        0.0265
     48 H          25.4150   45.3837   -7.6135 H       1  UNL1        0.0265
     49 H          25.5758   47.0853   -5.7447 H       1  UNL1        0.0265
     50 H          26.2675   45.8641   -4.7132 H       1  UNL1        0.0265
     51 H          27.4420   46.7365   -7.3936 H       1  UNL1        0.0265
     52 H          27.9196   47.4237   -5.8756 H       1  UNL1        0.0265
     53 H          28.8843   45.4051   -5.0611 H       1  UNL1        0.0266
     54 H          28.1993   44.4141   -6.3092 H       1  UNL1        0.0266
     55 H          30.0932   46.6575   -7.1113 H       1  UNL1        0.0280
     56 H          30.7322   45.2046   -6.4019 H       1  UNL1        0.0280
     57 H          30.8070   44.9816   -8.8238 H       1  UNL1        0.0461
     58 H          29.7234   43.7890   -8.1347 H       1  UNL1        0.0461
     59 H          28.1699   46.0233   -8.7880 H       1  UNL1        0.1461
     60 H          30.0798   43.3496  -10.5033 H       1  UNL1        0.0639
     61 H          26.6046   41.8938  -12.5717 H       1  UNL1        0.0628
     62 H          26.2696   45.2884   -9.9308 H       1  UNL1        0.0643
     63 H          22.9461   43.6403  -10.8244 H       1  UNL1        0.1494
     64 H          22.0797   43.5209   -8.5698 H       1  UNL1        0.0286
     65 H          23.1065   44.8993   -8.5275 H       1  UNL1        0.0286
     66 H          22.0021   41.6171   -9.8854 H       1  UNL1        0.0840
     67 H          23.0383   40.6615  -10.9332 H       1  UNL1        0.0840
     68 H          22.0461   39.0192   -9.9281 H       1  UNL1        0.2018
     69 H          21.7660   39.0512   -7.3444 H       1  UNL1        0.0866
     70 H          21.5275   40.7461   -7.6504 H       1  UNL1        0.0866
     71 H          20.6154   38.0868  -10.0983 H       1  UNL1        0.0622
     72 H          18.2839   37.5399  -10.7514 H       1  UNL1        0.0618
     73 H          16.3846   38.6194   -9.5910 H       1  UNL1        0.0620
     74 H          19.1408   40.7724   -7.0638 H       1  UNL1        0.0625
     75 H          16.8667   41.1961   -6.8626 H       1  UNL1        0.0343
     76 H          16.2924   38.9515   -5.9802 H       1  UNL1        0.0235
     77 H          15.2058   38.6701   -7.3400 H       1  UNL1        0.0235
     78 H          14.8496   39.9392   -6.1713 H       1  UNL1        0.0235
     79 H          16.1378   41.9055   -9.1419 H       1  UNL1        0.0235
     80 H          14.7944   41.7845   -8.0069 H       1  UNL1        0.0235
     81 H          15.0362   40.5306   -9.2168 H       1  UNL1        0.0235
     82 H          25.1391   40.0704   -9.8370 H       1  UNL1        0.2101
     83 H          28.7943   40.4935  -12.1319 H       1  UNL1        0.0610
     84 H          29.3937   41.6387  -13.3216 H       1  UNL1        0.0610
     85 H          32.3993   42.3892  -11.5760 H       1  UNL1        0.0524
     86 H          30.9857   43.4297  -11.7510 H       1  UNL1        0.0524
     87 H          31.5689   42.4790  -13.1282 H       1  UNL1        0.0524
     88 H          23.2679   39.2140   -8.8739 H       1  UNL1        0.2018
@<TRIPOS>BOND
     1     1     2    1
     2     1    42    1
     3     1    43    1
     4     1    44    1
     5     2    39    1
     6     2    21    1
     7     2     3    1
     8     3     4    1
     9     3    45    1
    10     3    46    1
    11     4     5    1
    12     4    47    1
    13     4    48    1
    14     5     6    1
    15     5    49    1
    16     5    50    1
    17     6     7    1
    18     6    51    1
    19     6    52    1
    20     7     8    1
    21     7    53    1
    22     7    54    1
    23     8     9    1
    24     8    55    1
    25     8    56    1
    26     9    10    1
    27     9    57    1
    28     9    58    1
    29    10    11    1
    30    10    59    1
    31    11    16   ar
    32    11    12   ar
    33    12    13   ar
    34    12    60    1
    35    13    14   ar
    36    13    36    1
    37    14    15   ar
    38    14    61    1
    39    15    16   ar
    40    15    17    1
    41    16    62    1
    42    17    18    2
    43    17    19   am
    44    19    20    1
    45    19    63    1
    46    20    40    1
    47    20    21    1
    48    20    22    1
    49    21    64    1
    50    21    65    1
    51    22    41    1
    52    22    23    1
    53    22    35    1
    54    23    24    1
    55    23    66    1
    56    23    67    1
    57    24    25    1
    58    24    68    1
    59    24    88    1
    60    25    26    1
    61    25    69    1
    62    25    70    1
    63    26    31   ar
    64    26    27   ar
    65    27    28   ar
    66    27    71    1
    67    28    29   ar
    68    28    72    1
    69    29    30   ar
    70    29    73    1
    71    30    31   ar
    72    30    32    1
    73    31    74    1
    74    32    33    1
    75    32    34    1
    76    32    75    1
    77    33    76    1
    78    33    77    1
    79    33    78    1
    80    34    79    1
    81    34    80    1
    82    34    81    1
    83    35    82    1
    84    36    37    1
    85    36    83    1
    86    36    84    1
    87    37    38    1
    88    38    85    1
    89    38    86    1
    90    38    87    1
