@<TRIPOS>MOLECULE
BACE_11.smi:1
 80 82 0 0 0
SMALL
GASTEIGER
****
Structure written by MMmdl.
@<TRIPOS>ATOM
      1 C          28.7039   44.1706  -13.3817 C.3     1  UNL1       -0.0379
      2 C          28.0988   44.0942  -11.9664 C.3     1  UNL1        0.0991
      3 C          26.5514   44.0524  -11.8991 C.2     1  UNL1        0.2336
      4 O          25.8896   44.7694  -12.6469 O.2     1  UNL1       -0.2738
      5 N          25.9823   43.2820  -10.9567 N.am    1  UNL1       -0.3081
      6 C          24.5979   43.3165  -10.4720 C.3     1  UNL1        0.0542
      7 C          24.3457   44.5583   -9.5815 C.3     1  UNL1       -0.0066
      8 C          25.2708   44.6260   -8.3812 C.ar    1  UNL1       -0.0421
      9 C          24.8391   44.1255   -7.1401 C.ar    1  UNL1       -0.0583
     10 C          25.7063   44.1505   -6.0370 C.ar    1  UNL1       -0.0580
     11 C          27.0151   44.6528   -6.1612 C.ar    1  UNL1       -0.0199
     12 C          27.4649   45.1511   -7.4076 C.ar    1  UNL1        0.1208
     13 C          26.5746   45.1565   -8.4986 C.ar    1  UNL1       -0.0167
     14 O          28.7332   45.6337   -7.6406 O.3     1  UNL1       -0.4920
     15 C          29.6929   45.5588   -6.6004 C.3     1  UNL1        0.0896
     16 C          31.0782   45.9389   -7.1486 C.3     1  UNL1       -0.0186
     17 C          31.7647   44.8293   -7.9723 C.3     1  UNL1       -0.0495
     18 C          31.7757   45.0359   -9.5040 C.3     1  UNL1       -0.0447
     19 C          30.4380   44.8591  -10.2616 C.3     1  UNL1        0.0242
     20 C          29.8986   43.4151  -10.3225 C.2     1  UNL1        0.2159
     21 O          30.4580   42.5500   -9.6452 O.2     1  UNL1       -0.2756
     22 N          28.8439   43.1141  -11.1320 N.am    1  UNL1       -0.2932
     23 C          28.4837   41.7019  -11.3068 C.3     1  UNL1        0.0039
     24 C          23.5286   43.0660  -11.5784 C.3     1  UNL1        0.0862
     25 C          22.3198   42.2373  -11.0682 C.3     1  UNL1        0.0240
     26 N          21.6600   41.5292  -12.1685 N.3     1  UNL1       -0.3095
     27 C          20.9503   40.3116  -11.7713 C.3     1  UNL1        0.0213
     28 C          19.6223   40.5487  -11.0806 C.ar    1  UNL1       -0.0333
     29 C          18.6667   41.4154  -11.6466 C.ar    1  UNL1       -0.0573
     30 C          17.4163   41.5860  -11.0252 C.ar    1  UNL1       -0.0612
     31 C          17.1116   40.8867   -9.8421 C.ar    1  UNL1       -0.0583
     32 C          18.0617   40.0158   -9.2586 C.ar    1  UNL1       -0.0445
     33 C          19.3187   39.8594   -9.8874 C.ar    1  UNL1       -0.0539
     34 C          17.7815   39.2384   -7.9682 C.3     1  UNL1       -0.0215
     35 C          17.7965   37.7208   -8.2153 C.3     1  UNL1       -0.0586
     36 C          16.4870   39.6453   -7.2405 C.3     1  UNL1       -0.0586
     37 O          23.0519   44.3122  -12.0400 O.3     1  UNL1       -0.3887
     38 H          28.2648   45.0839  -11.5444 H       1  UNL1        0.0594
     39 H          24.5645   42.4517   -9.8098 H       1  UNL1        0.0527
     40 H          23.9948   42.5519  -12.4227 H       1  UNL1        0.0624
     41 H          28.1497   44.8530  -14.0247 H       1  UNL1        0.0252
     42 H          28.7163   43.1915  -13.8589 H       1  UNL1        0.0252
     43 H          29.7347   44.5232  -13.3529 H       1  UNL1        0.0252
     44 H          26.6136   42.7157  -10.4123 H       1  UNL1        0.1491
     45 H          24.4664   45.4744  -10.1579 H       1  UNL1        0.0332
     46 H          23.3139   44.5599   -9.2307 H       1  UNL1        0.0332
     47 H          23.8478   43.7098   -7.0314 H       1  UNL1        0.0620
     48 H          25.3750   43.7514   -5.0906 H       1  UNL1        0.0619
     49 H          27.6544   44.6316   -5.2937 H       1  UNL1        0.0654
     50 H          26.9104   45.5499   -9.4471 H       1  UNL1        0.0657
     51 H          29.4098   46.2526   -5.8074 H       1  UNL1        0.0696
     52 H          29.7343   44.5599   -6.1662 H       1  UNL1        0.0696
     53 H          31.0270   46.8742   -7.7074 H       1  UNL1        0.0298
     54 H          31.7137   46.1525   -6.2874 H       1  UNL1        0.0298
     55 H          32.8074   44.7984   -7.6567 H       1  UNL1        0.0266
     56 H          31.3723   43.8518   -7.6998 H       1  UNL1        0.0266
     57 H          32.1687   46.0308   -9.7199 H       1  UNL1        0.0270
     58 H          32.5052   44.3490   -9.9346 H       1  UNL1        0.0270
     59 H          29.6836   45.5210   -9.8483 H       1  UNL1        0.0358
     60 H          30.6022   45.1940  -11.2850 H       1  UNL1        0.0358
     61 H          27.9275   41.3479  -10.4408 H       1  UNL1        0.0429
     62 H          29.3609   41.0663  -11.4295 H       1  UNL1        0.0429
     63 H          27.8624   41.5410  -12.1878 H       1  UNL1        0.0429
     64 H          22.6910   41.4949  -10.3602 H       1  UNL1        0.0450
     65 H          21.6125   42.8540  -10.5149 H       1  UNL1        0.0450
     66 H          22.3813   41.2764  -12.8416 H       1  UNL1        0.1223
     67 H          20.7381   39.7207  -12.6629 H       1  UNL1        0.0473
     68 H          21.5910   39.6818  -11.1509 H       1  UNL1        0.0473
     69 H          18.8950   41.9426  -12.5578 H       1  UNL1        0.0621
     70 H          16.6864   42.2516  -11.4578 H       1  UNL1        0.0618
     71 H          16.1414   41.0336   -9.3924 H       1  UNL1        0.0620
     72 H          20.0538   39.1944   -9.4530 H       1  UNL1        0.0623
     73 H          18.6057   39.4687   -7.2931 H       1  UNL1        0.0343
     74 H          18.7394   37.3847   -8.6453 H       1  UNL1        0.0235
     75 H          16.9942   37.4217   -8.8921 H       1  UNL1        0.0235
     76 H          17.6601   37.1799   -7.2789 H       1  UNL1        0.0235
     77 H          16.4718   40.7106   -7.0054 H       1  UNL1        0.0235
     78 H          16.3856   39.1062   -6.2965 H       1  UNL1        0.0235
     79 H          15.6002   39.4171   -7.8331 H       1  UNL1        0.0235
     80 H          23.8044   44.7768  -12.3885 H       1  UNL1        0.2099
@<TRIPOS>BOND
     1     1     2    1
     2     1    41    1
     3     1    42    1
     4     1    43    1
     5     2    38    1
     6     2    22    1
     7     2     3    1
     8     3     4    2
     9     3     5   am
    10     5     6    1
    11     5    44    1
    12     6    39    1
    13     6     7    1
    14     6    24    1
    15     7     8    1
    16     7    45    1
    17     7    46    1
    18     8    13   ar
    19     8     9   ar
    20     9    10   ar
    21     9    47    1
    22    10    11   ar
    23    10    48    1
    24    11    12   ar
    25    11    49    1
    26    12    13   ar
    27    12    14    1
    28    13    50    1
    29    14    15    1
    30    15    16    1
    31    15    51    1
    32    15    52    1
    33    16    17    1
    34    16    53    1
    35    16    54    1
    36    17    18    1
    37    17    55    1
    38    17    56    1
    39    18    19    1
    40    18    57    1
    41    18    58    1
    42    19    20    1
    43    19    59    1
    44    19    60    1
    45    20    21    2
    46    20    22   am
    47    22    23    1
    48    23    61    1
    49    23    62    1
    50    23    63    1
    51    24    40    1
    52    24    25    1
    53    24    37    1
    54    25    26    1
    55    25    64    1
    56    25    65    1
    57    26    27    1
    58    26    66    1
    59    27    28    1
    60    27    67    1
    61    27    68    1
    62    28    33   ar
    63    28    29   ar
    64    29    30   ar
    65    29    69    1
    66    30    31   ar
    67    30    70    1
    68    31    32   ar
    69    31    71    1
    70    32    33   ar
    71    32    34    1
    72    33    72    1
    73    34    35    1
    74    34    36    1
    75    34    73    1
    76    35    74    1
    77    35    75    1
    78    35    76    1
    79    36    77    1
    80    36    78    1
    81    36    79    1
    82    37    80    1
