@<TRIPOS>MOLECULE
BACE_13.smi:1
 77 80 0 0 0
SMALL
GASTEIGER
****
Structure written by MMmdl.
@<TRIPOS>ATOM
      1 C          23.3882   42.9500   -4.2004 C.3     1  UNL1        0.0369
      2 O          22.8554   41.8855   -3.4294 O.3     1  UNL1       -0.3784
      3 C          21.4533   41.7714   -3.5401 C.3     1  UNL1        0.0724
      4 C          21.0361   41.5531   -4.9746 C.ar    1  UNL1       -0.0195
      5 C          20.2864   42.5383   -5.6378 C.ar    1  UNL1       -0.0442
      6 C          19.8382   42.3140   -6.9531 C.ar    1  UNL1        0.0388
      7 C          20.2764   41.1578   -7.6474 C.ar    1  UNL1       -0.0287
      8 C          21.0922   40.1924   -7.0006 C.ar    1  UNL1        0.0282
      9 C          21.4489   40.3924   -5.6545 C.ar    1  UNL1       -0.0355
     10 N          21.5456   39.0156   -7.6198 N.pl3   1  UNL1       -0.3438
     11 C          20.8782   38.5047   -8.8063 C.3     1  UNL1        0.0092
     12 C          21.4474   39.1028  -10.0942 C.3     1  UNL1       -0.0344
     13 C          20.3860   39.1623  -11.2033 C.3     1  UNL1       -0.0172
     14 C          20.8742   39.9041  -12.4616 C.3     1  UNL1        0.0896
     15 O          21.5814   41.0980  -12.1458 O.3     1  UNL1       -0.4920
     16 C          20.9202   42.1942  -11.6399 C.ar    1  UNL1        0.1208
     17 C          21.7256   43.2788  -11.2405 C.ar    1  UNL1       -0.0199
     18 C          21.1469   44.4696  -10.7668 C.ar    1  UNL1       -0.0580
     19 C          19.7495   44.5753  -10.6619 C.ar    1  UNL1       -0.0583
     20 C          18.9309   43.4841  -11.0171 C.ar    1  UNL1       -0.0421
     21 C          19.5131   42.3072  -11.5338 C.ar    1  UNL1       -0.0167
     22 C          17.4343   43.5469  -10.7557 C.3     1  UNL1       -0.0064
     23 C          17.0802   43.6106   -9.2447 C.3     1  UNL1        0.0586
     24 N          18.0167   42.8026   -8.4531 N.am    1  UNL1       -0.3055
     25 C          18.8891   43.3031   -7.5620 C.2     1  UNL1        0.2444
     26 O          18.8796   44.4785   -7.1908 O.2     1  UNL1       -0.2702
     27 C          15.5859   43.2898   -8.9501 C.3     1  UNL1        0.1182
     28 C          15.1446   41.8364   -8.5884 C.3     1  UNL1        0.0296
     29 C          15.5149   40.8021   -9.6767 C.3     1  UNL1        0.0935
     30 O          15.1247   39.4803   -9.3085 O.3     1  UNL1       -0.3634
     31 C          15.6895   39.0311   -8.0761 C.3     1  UNL1        0.1216
     32 C          15.1673   39.9751   -6.9708 C.3     1  UNL1       -0.0041
     33 N          15.5696   41.3728   -7.2400 N.4     1  UNL1        0.2346
     34 C          17.2320   38.9246   -8.2216 C.3     1  UNL1        0.0785
     35 O          17.8157   37.8449   -7.5188 O.3     1  UNL1       -0.3802
     36 C          18.1241   38.1499   -6.1701 C.3     1  UNL1        0.0366
     37 O          15.0737   44.2461   -8.0400 O.3     1  UNL1       -0.3843
     38 H          17.2371   44.6607   -8.9914 H       1  UNL1        0.0529
     39 H          15.0464   43.5331   -9.8669 H       1  UNL1        0.0670
     40 H          14.0598   41.8498   -8.5495 H       1  UNL1        0.0900
     41 H          15.2907   38.0299   -7.9048 H       1  UNL1        0.0673
     42 H          24.4599   42.9500   -4.0653 H       1  UNL1        0.0524
     43 H          22.9912   43.9165   -3.8857 H       1  UNL1        0.0524
     44 H          23.2254   42.8315   -5.2724 H       1  UNL1        0.0524
     45 H          20.9736   42.6594   -3.1241 H       1  UNL1        0.0610
     46 H          21.1189   40.9249   -2.9390 H       1  UNL1        0.0610
     47 H          19.9806   43.4239   -5.0999 H       1  UNL1        0.0628
     48 H          19.9769   41.0111   -8.6735 H       1  UNL1        0.0643
     49 H          22.0530   39.6613   -5.1360 H       1  UNL1        0.0639
     50 H          22.0547   38.3487   -7.0586 H       1  UNL1        0.1461
     51 H          19.8168   38.7182   -8.7262 H       1  UNL1        0.0461
     52 H          20.9636   37.4190   -8.8401 H       1  UNL1        0.0461
     53 H          22.3237   38.5413  -10.4187 H       1  UNL1        0.0281
     54 H          21.8064   40.1118   -9.8896 H       1  UNL1        0.0281
     55 H          19.5002   39.6548  -10.8076 H       1  UNL1        0.0298
     56 H          20.0595   38.1550  -11.4672 H       1  UNL1        0.0298
     57 H          20.0595   40.1086  -13.1561 H       1  UNL1        0.0696
     58 H          21.5684   39.2618  -13.0027 H       1  UNL1        0.0696
     59 H          22.7995   43.1988  -11.3186 H       1  UNL1        0.0654
     60 H          21.7770   45.2946  -10.4698 H       1  UNL1        0.0619
     61 H          19.3120   45.4782  -10.2641 H       1  UNL1        0.0620
     62 H          18.8673   41.4966  -11.8301 H       1  UNL1        0.0657
     63 H          16.9656   42.6824  -11.2247 H       1  UNL1        0.0332
     64 H          17.0238   44.4187  -11.2666 H       1  UNL1        0.0332
     65 H          18.1327   41.8356   -8.7113 H       1  UNL1        0.1494
     66 H          16.5816   40.8231   -9.8959 H       1  UNL1        0.0617
     67 H          15.0118   41.0526  -10.6107 H       1  UNL1        0.0617
     68 H          15.5068   39.6881   -5.9784 H       1  UNL1        0.0840
     69 H          14.0746   39.9171   -6.9301 H       1  UNL1        0.0840
     70 H          16.5688   41.4550   -7.1214 H       1  UNL1        0.2019
     71 H          17.4519   38.7067   -9.2672 H       1  UNL1        0.0587
     72 H          17.7401   39.8640   -8.0014 H       1  UNL1        0.0587
     73 H          18.4597   37.2542   -5.6504 H       1  UNL1        0.0524
     74 H          17.2614   38.5326   -5.6403 H       1  UNL1        0.0524
     75 H          18.9110   38.8982   -6.0986 H       1  UNL1        0.0524
     76 H          15.4593   44.1100   -7.1750 H       1  UNL1        0.2101
     77 H          15.1295   41.9500   -6.5259 H       1  UNL1        0.2019
@<TRIPOS>BOND
     1     1     2    1
     2     1    42    1
     3     1    43    1
     4     1    44    1
     5     2     3    1
     6     3     4    1
     7     3    45    1
     8     3    46    1
     9     4     9   ar
    10     4     5   ar
    11     5     6   ar
    12     5    47    1
    13     6    25    1
    14     6     7   ar
    15     7     8   ar
    16     7    48    1
    17     8     9   ar
    18     8    10    1
    19     9    49    1
    20    10    11    1
    21    10    50    1
    22    11    12    1
    23    11    51    1
    24    11    52    1
    25    12    13    1
    26    12    53    1
    27    12    54    1
    28    13    14    1
    29    13    55    1
    30    13    56    1
    31    14    15    1
    32    14    57    1
    33    14    58    1
    34    15    16    1
    35    16    21   ar
    36    16    17   ar
    37    17    18   ar
    38    17    59    1
    39    18    19   ar
    40    18    60    1
    41    19    20   ar
    42    19    61    1
    43    20    21   ar
    44    20    22    1
    45    21    62    1
    46    22    23    1
    47    22    63    1
    48    22    64    1
    49    23    38    1
    50    23    24    1
    51    23    27    1
    52    24    25   am
    53    24    65    1
    54    25    26    2
    55    27    39    1
    56    27    28    1
    57    27    37    1
    58    28    40    1
    59    28    33    1
    60    28    29    1
    61    29    30    1
    62    29    66    1
    63    29    67    1
    64    30    31    1
    65    31    41    1
    66    31    32    1
    67    31    34    1
    68    32    33    1
    69    32    68    1
    70    32    69    1
    71    33    70    1
    72    33    77    1
    73    34    35    1
    74    34    71    1
    75    34    72    1
    76    35    36    1
    77    36    73    1
    78    36    74    1
    79    36    75    1
    80    37    76    1
