@<TRIPOS>MOLECULE
BACE_12.smi:1
 79 82 0 0 0
SMALL
GASTEIGER
****
Structure written by MMmdl.
@<TRIPOS>ATOM
      1 C          11.7199   43.7821  -11.1136 C.3     1  UNL1       -0.0586
      2 C          13.1309   44.3998  -11.0611 C.3     1  UNL1       -0.0215
      3 C          13.2771   45.4167  -12.2129 C.3     1  UNL1       -0.0586
      4 C          14.2439   43.3421  -11.0289 C.ar    1  UNL1       -0.0444
      5 C          15.5400   43.6338  -11.5207 C.ar    1  UNL1       -0.0583
      6 C          16.5348   42.6378  -11.5569 C.ar    1  UNL1       -0.0611
      7 C          16.2499   41.3451  -11.0832 C.ar    1  UNL1       -0.0535
      8 C          15.0002   41.0628  -10.4931 C.ar    1  UNL1       -0.0027
      9 C          14.0033   42.0573  -10.4857 C.ar    1  UNL1       -0.0501
     10 C          14.7395   39.7275   -9.8105 C.3     1  UNL1       -0.0076
     11 N          14.8618   39.8644   -8.3393 N.4     1  UNL1        0.2321
     12 C          15.6950   38.8426   -7.6548 C.3     1  UNL1       -0.0049
     13 C          16.9991   39.4642   -7.0994 C.3     1  UNL1        0.1133
     14 C          17.9931   39.8967   -8.2125 C.3     1  UNL1        0.0583
     15 C          19.1543   38.9064   -8.4923 C.3     1  UNL1       -0.0066
     16 C          20.0246   39.3768   -9.6353 C.ar    1  UNL1       -0.0453
     17 C          19.5074   39.3703  -10.9440 C.ar    1  UNL1       -0.0585
     18 C          20.2484   39.9410  -11.9897 C.ar    1  UNL1       -0.0612
     19 C          21.5202   40.4745  -11.7364 C.ar    1  UNL1       -0.0586
     20 C          22.0810   40.4161  -10.4420 C.ar    1  UNL1       -0.0471
     21 C          21.3205   39.8753   -9.3877 C.ar    1  UNL1       -0.0553
     22 C          23.4956   40.9193  -10.1901 C.3     1  UNL1       -0.0276
     23 C          23.6595   42.4225  -10.4502 C.3     1  UNL1       -0.0476
     24 C          22.9773   43.2952   -9.3841 C.3     1  UNL1       -0.0371
     25 C          22.2717   44.5166   -9.9931 C.3     1  UNL1        0.0104
     26 N          21.6754   45.3739   -8.9803 N.pl3   1  UNL1       -0.3289
     27 C          20.4643   45.0682   -8.3491 C.ar    1  UNL1        0.1232
     28 C          19.7464   43.8718   -8.5774 C.ar    1  UNL1       -0.0095
     29 C          18.5409   43.6573   -7.8748 C.ar    1  UNL1        0.0450
     30 C          18.0815   44.6743   -7.0149 C.ar    1  UNL1        0.0122
     31 C          18.8735   45.8217   -6.8308 C.ar    1  UNL1        0.2168
     32 N          20.0400   46.0140   -7.4894 N.ar    1  UNL1       -0.1981
     33 O          18.4602   46.7769   -5.9243 O.3     1  UNL1       -0.4796
     34 C          19.2881   47.9186   -5.7250 C.3     1  UNL1        0.0804
     35 C          17.7596   42.3871   -8.0393 C.2     1  UNL1        0.2447
     36 O          16.5296   42.3959   -8.1074 O.2     1  UNL1       -0.2702
     37 N          18.4934   41.2627   -8.0401 N.am    1  UNL1       -0.3055
     38 O          17.6594   38.5499   -6.2544 O.3     1  UNL1       -0.3847
     39 H          16.6911   40.2951   -6.4721 H       1  UNL1        0.0666
     40 H          17.4277   39.9308   -9.1340 H       1  UNL1        0.0529
     41 H          11.4721   43.2483  -10.1938 H       1  UNL1        0.0235
     42 H          11.6230   43.0887  -11.9520 H       1  UNL1        0.0235
     43 H          10.9617   44.5491  -11.2371 H       1  UNL1        0.0235
     44 H          13.2113   44.9494  -10.1246 H       1  UNL1        0.0343
     45 H          14.1815   46.0191  -12.1184 H       1  UNL1        0.0235
     46 H          12.4467   46.1230  -12.2302 H       1  UNL1        0.0235
     47 H          13.2942   44.9116  -13.1805 H       1  UNL1        0.0235
     48 H          15.7915   44.6121  -11.8980 H       1  UNL1        0.0620
     49 H          17.5138   42.8643  -11.9541 H       1  UNL1        0.0618
     50 H          17.0169   40.5905  -11.1378 H       1  UNL1        0.0622
     51 H          13.0524   41.8087  -10.0385 H       1  UNL1        0.0625
     52 H          13.7348   39.3697  -10.0406 H       1  UNL1        0.0866
     53 H          15.4339   38.9862  -10.2100 H       1  UNL1        0.0866
     54 H          15.2618   40.7754   -8.1385 H       1  UNL1        0.2018
     55 H          15.0892   38.4661   -6.8319 H       1  UNL1        0.0840
     56 H          15.9019   37.9778   -8.2880 H       1  UNL1        0.0840
     57 H          19.7819   38.7828   -7.6087 H       1  UNL1        0.0332
     58 H          18.7612   37.9188   -8.7366 H       1  UNL1        0.0332
     59 H          18.5309   38.9553  -11.1467 H       1  UNL1        0.0620
     60 H          19.8448   39.9715  -12.9894 H       1  UNL1        0.0618
     61 H          22.0599   40.9124  -12.5579 H       1  UNL1        0.0620
     62 H          21.7282   39.8560   -8.3868 H       1  UNL1        0.0623
     63 H          23.8032   40.6803   -9.1719 H       1  UNL1        0.0313
     64 H          24.1691   40.3618  -10.8402 H       1  UNL1        0.0313
     65 H          24.7214   42.6681  -10.4689 H       1  UNL1        0.0269
     66 H          23.2893   42.6599  -11.4476 H       1  UNL1        0.0269
     67 H          22.2596   42.6977   -8.8235 H       1  UNL1        0.0280
     68 H          23.7207   43.6186   -8.6520 H       1  UNL1        0.0280
     69 H          22.9962   45.1120  -10.5508 H       1  UNL1        0.0461
     70 H          21.5098   44.2072  -10.7097 H       1  UNL1        0.0461
     71 H          22.1254   46.2483   -8.7555 H       1  UNL1        0.1475
     72 H          20.1056   43.1261   -9.2705 H       1  UNL1        0.0659
     73 H          17.1565   44.5507   -6.4695 H       1  UNL1        0.0678
     74 H          18.8508   48.5507   -4.9546 H       1  UNL1        0.0660
     75 H          19.3717   48.5103   -6.6369 H       1  UNL1        0.0660
     76 H          20.2895   47.6363   -5.3909 H       1  UNL1        0.0660
     77 H          19.4911   41.3633   -7.9274 H       1  UNL1        0.1494
     78 H          17.0464   37.8500   -6.0398 H       1  UNL1        0.2101
     79 H          13.9288   39.8511   -7.9426 H       1  UNL1        0.2018
@<TRIPOS>BOND
     1     1     2    1
     2     1    41    1
     3     1    42    1
     4     1    43    1
     5     2     3    1
     6     2     4    1
     7     2    44    1
     8     3    45    1
     9     3    46    1
    10     3    47    1
    11     4     9   ar
    12     4     5   ar
    13     5     6   ar
    14     5    48    1
    15     6     7   ar
    16     6    49    1
    17     7     8   ar
    18     7    50    1
    19     8     9   ar
    20     8    10    1
    21     9    51    1
    22    10    11    1
    23    10    52    1
    24    10    53    1
    25    11    12    1
    26    11    54    1
    27    11    79    1
    28    12    13    1
    29    12    55    1
    30    12    56    1
    31    13    39    1
    32    13    14    1
    33    13    38    1
    34    14    40    1
    35    14    37    1
    36    14    15    1
    37    15    16    1
    38    15    57    1
    39    15    58    1
    40    16    21   ar
    41    16    17   ar
    42    17    18   ar
    43    17    59    1
    44    18    19   ar
    45    18    60    1
    46    19    20   ar
    47    19    61    1
    48    20    21   ar
    49    20    22    1
    50    21    62    1
    51    22    23    1
    52    22    63    1
    53    22    64    1
    54    23    24    1
    55    23    65    1
    56    23    66    1
    57    24    25    1
    58    24    67    1
    59    24    68    1
    60    25    26    1
    61    25    69    1
    62    25    70    1
    63    26    27    1
    64    26    71    1
    65    27    32   ar
    66    27    28   ar
    67    28    29   ar
    68    28    72    1
    69    29    30   ar
    70    29    35    1
    71    30    31   ar
    72    30    73    1
    73    31    32   ar
    74    31    33    1
    75    33    34    1
    76    34    74    1
    77    34    75    1
    78    34    76    1
    79    35    36    2
    80    35    37   am
    81    37    77    1
    82    38    78    1
