@<TRIPOS>MOLECULE
BACE_14.smi:1
 86 90 0 0 0
SMALL
GASTEIGER
****
Structure written by MMmdl.
@<TRIPOS>ATOM
      1 C          21.9346   39.5962   -6.7319 C.3     1  UNL1       -0.0586
      2 C          20.9383   40.5158   -7.4601 C.3     1  UNL1       -0.0215
      3 C          21.6530   41.5148   -8.3875 C.3     1  UNL1       -0.0586
      4 C          19.8575   39.7239   -8.1940 C.ar    1  UNL1       -0.0443
      5 C          20.1836   38.8878   -9.2855 C.ar    1  UNL1       -0.0583
      6 C          19.1763   38.1644   -9.9510 C.ar    1  UNL1       -0.0610
      7 C          17.8366   38.2704   -9.5322 C.ar    1  UNL1       -0.0529
      8 C          17.4892   39.1005   -8.4440 C.ar    1  UNL1        0.0034
      9 C          18.5085   39.8221   -7.7829 C.ar    1  UNL1       -0.0495
     10 C          16.0429   39.2240   -7.9863 C.3     1  UNL1        0.0145
     11 C          15.1936   37.9757   -8.0080 C.3     1  UNL1        0.0032
     12 C          14.9632   39.0635   -9.0296 C.3     1  UNL1        0.0032
     13 N          15.8055   40.1908   -6.9034 N.4     1  UNL1        0.2365
     14 C          15.8499   41.6198   -7.2897 C.3     1  UNL1       -0.0044
     15 C          16.4565   41.8000   -8.7007 C.3     1  UNL1        0.1133
     16 C          17.3471   43.0594   -8.9109 C.3     1  UNL1        0.0583
     17 C          17.9958   43.0719  -10.3228 C.3     1  UNL1       -0.0065
     18 C          18.9901   44.2074  -10.5322 C.ar    1  UNL1       -0.0421
     19 C          18.5266   45.5155  -10.7760 C.ar    1  UNL1       -0.0583
     20 C          19.4460   46.5707  -10.9174 C.ar    1  UNL1       -0.0580
     21 C          20.8295   46.3264  -10.8176 C.ar    1  UNL1       -0.0199
     22 C          21.3121   45.0145  -10.5825 C.ar    1  UNL1        0.1208
     23 C          20.3791   43.9653  -10.4492 C.ar    1  UNL1       -0.0167
     24 O          22.6457   44.6755  -10.4729 O.3     1  UNL1       -0.4920
     25 C          23.6382   45.7011  -10.4574 C.3     1  UNL1        0.0896
     26 C          23.7257   46.3782   -9.0774 C.3     1  UNL1       -0.0172
     27 C          24.2593   45.4334   -7.9843 C.3     1  UNL1       -0.0344
     28 C          24.2850   46.0629   -6.5769 C.3     1  UNL1        0.0092
     29 N          22.9512   46.3816   -6.0726 N.pl3   1  UNL1       -0.3438
     30 C          22.0821   45.2977   -5.9004 C.ar    1  UNL1        0.0285
     31 C          20.8190   45.3349   -6.5209 C.ar    1  UNL1       -0.0287
     32 C          19.9471   44.2284   -6.4428 C.ar    1  UNL1        0.0391
     33 C          20.3246   43.0955   -5.6872 C.ar    1  UNL1       -0.0390
     34 C          21.5751   43.0659   -5.0399 C.ar    1  UNL1        0.0196
     35 C          22.4558   44.1591   -5.1534 C.ar    1  UNL1       -0.0303
     36 C          21.9677   41.8927   -4.2591 C.2     1  UNL1        0.1602
     37 O          23.1387   41.5825   -4.0402 O.2     1  UNL1       -0.2924
     38 C          20.8641   41.0011   -3.6884 C.3     1  UNL1       -0.0014
     39 C          18.6439   44.2705   -7.1790 C.2     1  UNL1        0.2445
     40 O          17.9808   45.2937   -7.2206 O.2     1  UNL1       -0.2702
     41 N          18.3886   43.1609   -7.8800 N.am    1  UNL1       -0.3055
     42 O          15.4196   41.8146   -9.6639 O.3     1  UNL1       -0.3847
     43 H          17.0553   40.9184   -8.9338 H       1  UNL1        0.0666
     44 H          16.6925   43.9323   -8.8730 H       1  UNL1        0.0529
     45 H          22.6565   40.1779   -6.1578 H       1  UNL1        0.0235
     46 H          22.4974   38.9711   -7.4257 H       1  UNL1        0.0235
     47 H          21.4202   38.9367   -6.0321 H       1  UNL1        0.0235
     48 H          20.4443   41.1086   -6.6891 H       1  UNL1        0.0343
     49 H          22.3716   42.1188   -7.8326 H       1  UNL1        0.0235
     50 H          20.9411   42.2005   -8.8483 H       1  UNL1        0.0235
     51 H          22.1976   41.0132   -9.1878 H       1  UNL1        0.0235
     52 H          21.2061   38.7940   -9.6207 H       1  UNL1        0.0620
     53 H          19.4317   37.5265  -10.7844 H       1  UNL1        0.0618
     54 H          17.0748   37.7079  -10.0521 H       1  UNL1        0.0622
     55 H          18.2462   40.4576   -6.9493 H       1  UNL1        0.0625
     56 H          15.6614   37.0526   -8.3502 H       1  UNL1        0.0329
     57 H          14.4497   37.8575   -7.2200 H       1  UNL1        0.0329
     58 H          14.0653   39.6726   -8.9247 H       1  UNL1        0.0329
     59 H          15.2770   38.8677  -10.0549 H       1  UNL1        0.0329
     60 H          16.5119   40.0407   -6.1972 H       1  UNL1        0.2023
     61 H          16.4584   42.1526   -6.5591 H       1  UNL1        0.0840
     62 H          14.8449   42.0418   -7.2425 H       1  UNL1        0.0840
     63 H          18.5052   42.1241  -10.4965 H       1  UNL1        0.0332
     64 H          17.2175   43.1326  -11.0835 H       1  UNL1        0.0332
     65 H          17.4676   45.7173  -10.8400 H       1  UNL1        0.0620
     66 H          19.0893   47.5743  -11.0962 H       1  UNL1        0.0619
     67 H          21.4954   47.1699  -10.9241 H       1  UNL1        0.0654
     68 H          20.7391   42.9649  -10.2599 H       1  UNL1        0.0657
     69 H          24.5968   45.2365  -10.6883 H       1  UNL1        0.0696
     70 H          23.4807   46.4278  -11.2544 H       1  UNL1        0.0696
     71 H          24.3486   47.2703   -9.1434 H       1  UNL1        0.0298
     72 H          22.7332   46.7251   -8.7898 H       1  UNL1        0.0298
     73 H          23.6782   44.5112   -7.9751 H       1  UNL1        0.0281
     74 H          25.2736   45.1336   -8.2477 H       1  UNL1        0.0281
     75 H          24.7636   45.3750   -5.8799 H       1  UNL1        0.0461
     76 H          24.9073   46.9577   -6.5826 H       1  UNL1        0.0461
     77 H          22.5344   47.1859   -6.5193 H       1  UNL1        0.1461
     78 H          20.5266   46.1936   -7.1071 H       1  UNL1        0.0643
     79 H          19.6621   42.2470   -5.6000 H       1  UNL1        0.0632
     80 H          23.4148   44.1120   -4.6588 H       1  UNL1        0.0643
     81 H          20.2282   40.6152   -4.4856 H       1  UNL1        0.0309
     82 H          20.2477   41.5556   -2.9804 H       1  UNL1        0.0309
     83 H          21.2975   40.1500   -3.1624 H       1  UNL1        0.0309
     84 H          19.0469   42.4008   -7.7855 H       1  UNL1        0.1494
     85 H          14.8102   41.1221   -9.4588 H       1  UNL1        0.2101
     86 H          14.9021   39.9980   -6.4951 H       1  UNL1        0.2023
@<TRIPOS>BOND
     1     1     2    1
     2     1    45    1
     3     1    46    1
     4     1    47    1
     5     2     3    1
     6     2     4    1
     7     2    48    1
     8     3    49    1
     9     3    50    1
    10     3    51    1
    11     4     9   ar
    12     4     5   ar
    13     5     6   ar
    14     5    52    1
    15     6     7   ar
    16     6    53    1
    17     7     8   ar
    18     7    54    1
    19     8     9   ar
    20     8    10    1
    21     9    55    1
    22    10    12    1
    23    10    11    1
    24    10    13    1
    25    11    12    1
    26    11    56    1
    27    11    57    1
    28    12    58    1
    29    12    59    1
    30    13    14    1
    31    13    60    1
    32    13    86    1
    33    14    15    1
    34    14    61    1
    35    14    62    1
    36    15    43    1
    37    15    16    1
    38    15    42    1
    39    16    44    1
    40    16    41    1
    41    16    17    1
    42    17    18    1
    43    17    63    1
    44    17    64    1
    45    18    23   ar
    46    18    19   ar
    47    19    20   ar
    48    19    65    1
    49    20    21   ar
    50    20    66    1
    51    21    22   ar
    52    21    67    1
    53    22    23   ar
    54    22    24    1
    55    23    68    1
    56    24    25    1
    57    25    26    1
    58    25    69    1
    59    25    70    1
    60    26    27    1
    61    26    71    1
    62    26    72    1
    63    27    28    1
    64    27    73    1
    65    27    74    1
    66    28    29    1
    67    28    75    1
    68    28    76    1
    69    29    30    1
    70    29    77    1
    71    30    35   ar
    72    30    31   ar
    73    31    32   ar
    74    31    78    1
    75    32    33   ar
    76    32    39    1
    77    33    34   ar
    78    33    79    1
    79    34    35   ar
    80    34    36    1
    81    35    80    1
    82    36    37    2
    83    36    38    1
    84    38    81    1
    85    38    82    1
    86    38    83    1
    87    39    40    2
    88    39    41   am
    89    41    84    1
    90    42    85    1
