@<TRIPOS>MOLECULE
BACE_13.smi:1
 77 80 0 0 0
SMALL
GASTEIGER
****
Structure written by MMmdl.
@<TRIPOS>ATOM
      1 C          18.3039   42.9485  -13.0017 C.3     1  UNL1        0.0369
      2 O          16.9761   43.4356  -12.8399 O.3     1  UNL1       -0.3784
      3 C          16.7974   44.2685  -11.6972 C.3     1  UNL1        0.0724
      4 C          17.1508   43.5694  -10.3965 C.ar    1  UNL1       -0.0195
      5 C          18.4773   43.6126   -9.9233 C.ar    1  UNL1       -0.0442
      6 C          18.8533   42.8581   -8.7945 C.ar    1  UNL1        0.0388
      7 C          17.8737   42.1352   -8.0871 C.ar    1  UNL1       -0.0287
      8 C          16.5392   42.1047   -8.5386 C.ar    1  UNL1        0.0282
      9 C          16.1812   42.8168   -9.7020 C.ar    1  UNL1       -0.0355
     10 N          15.6087   41.3282   -7.8445 N.pl3   1  UNL1       -0.3438
     11 C          14.7499   40.4187   -8.5963 C.3     1  UNL1        0.0092
     12 C          15.5184   39.2935   -9.3071 C.3     1  UNL1       -0.0344
     13 C          16.0841   38.2695   -8.3102 C.3     1  UNL1       -0.0172
     14 C          17.0058   37.2209   -8.9556 C.3     1  UNL1        0.0896
     15 O          18.1118   37.8056   -9.6382 O.3     1  UNL1       -0.4920
     16 C          19.1429   38.3651   -8.9119 C.ar    1  UNL1        0.1208
     17 C          19.2264   38.3470   -7.4953 C.ar    1  UNL1       -0.0199
     18 C          20.3146   38.9464   -6.8395 C.ar    1  UNL1       -0.0580
     19 C          21.3428   39.5477   -7.5768 C.ar    1  UNL1       -0.0583
     20 C          21.2670   39.5908   -8.9812 C.ar    1  UNL1       -0.0421
     21 C          20.1743   38.9914   -9.6417 C.ar    1  UNL1       -0.0167
     22 C          22.3381   40.3351   -9.7607 C.3     1  UNL1       -0.0064
     23 C          22.4245   41.8444   -9.3895 C.3     1  UNL1        0.0586
     24 N          21.0809   42.4152   -9.4489 N.am    1  UNL1       -0.3055
     25 C          20.2916   42.7387   -8.4123 C.2     1  UNL1        0.2444
     26 O          20.6690   42.8171   -7.2448 O.2     1  UNL1       -0.2702
     27 C          23.3541   42.7314  -10.2595 C.3     1  UNL1        0.1182
     28 C          24.8785   42.6608   -9.9818 C.3     1  UNL1        0.0296
     29 C          25.5582   41.2954  -10.2429 C.3     1  UNL1        0.0935
     30 O          26.9613   41.3857  -10.0401 O.3     1  UNL1       -0.3634
     31 C          27.6426   42.3508  -10.8298 C.3     1  UNL1        0.1216
     32 C          27.0201   43.7392  -10.5831 C.3     1  UNL1       -0.0041
     33 N          25.5570   43.7141  -10.7745 N.4     1  UNL1        0.2346
     34 C          27.6927   41.9323  -12.3080 C.3     1  UNL1        0.0785
     35 O          28.7351   42.6105  -12.9952 O.3     1  UNL1       -0.3802
     36 C          29.9617   41.8906  -13.0212 C.3     1  UNL1        0.0366
     37 O          23.0933   42.5503  -11.6400 O.3     1  UNL1       -0.3843
     38 H          22.7814   41.9197   -8.3607 H       1  UNL1        0.0529
     39 H          23.0716   43.7654  -10.0489 H       1  UNL1        0.0670
     40 H          25.0354   42.9073   -8.9295 H       1  UNL1        0.0900
     41 H          28.6627   42.3655  -10.4480 H       1  UNL1        0.0673
     42 H          18.4570   42.5502  -14.0047 H       1  UNL1        0.0524
     43 H          18.5155   42.1398  -12.3003 H       1  UNL1        0.0524
     44 H          19.0323   43.7437  -12.8406 H       1  UNL1        0.0524
     45 H          15.7576   44.5892  -11.6644 H       1  UNL1        0.0610
     46 H          17.3957   45.1744  -11.8041 H       1  UNL1        0.0610
     47 H          19.2200   44.1744  -10.4703 H       1  UNL1        0.0628
     48 H          18.1641   41.5324   -7.2398 H       1  UNL1        0.0643
     49 H          15.1696   42.7812  -10.0741 H       1  UNL1        0.0639
     50 H          15.8598   41.0211   -6.9122 H       1  UNL1        0.1461
     51 H          14.1388   40.9755   -9.3085 H       1  UNL1        0.0461
     52 H          14.0588   39.9657   -7.8867 H       1  UNL1        0.0461
     53 H          16.3153   39.7101   -9.9242 H       1  UNL1        0.0281
     54 H          14.8465   38.7772   -9.9917 H       1  UNL1        0.0281
     55 H          15.2606   37.7558   -7.8155 H       1  UNL1        0.0298
     56 H          16.6046   38.7984   -7.5148 H       1  UNL1        0.0298
     57 H          16.4368   36.6568   -9.6950 H       1  UNL1        0.0696
     58 H          17.3459   36.4871   -8.2250 H       1  UNL1        0.0696
     59 H          18.4729   37.8761   -6.8826 H       1  UNL1        0.0654
     60 H          20.3598   38.9492   -5.7609 H       1  UNL1        0.0619
     61 H          22.1684   40.0110   -7.0546 H       1  UNL1        0.0620
     62 H          20.1057   39.0236  -10.7190 H       1  UNL1        0.0657
     63 H          22.1492   40.2105  -10.8261 H       1  UNL1        0.0332
     64 H          23.2610   39.8103   -9.5518 H       1  UNL1        0.0332
     65 H          20.6367   42.3788  -10.3542 H       1  UNL1        0.1494
     66 H          25.3407   40.9155  -11.2372 H       1  UNL1        0.0617
     67 H          25.2120   40.5509   -9.5314 H       1  UNL1        0.0617
     68 H          27.4670   44.4839  -11.2446 H       1  UNL1        0.0840
     69 H          27.2326   44.0598   -9.5614 H       1  UNL1        0.0840
     70 H          25.3452   43.5419  -11.7481 H       1  UNL1        0.2019
     71 H          27.8219   40.8520  -12.3830 H       1  UNL1        0.0587
     72 H          26.7469   42.1712  -12.7981 H       1  UNL1        0.0587
     73 H          30.7221   42.4787  -13.5340 H       1  UNL1        0.0524
     74 H          29.8509   40.9513  -13.5651 H       1  UNL1        0.0524
     75 H          30.3242   41.6718  -12.0158 H       1  UNL1        0.0524
     76 H          23.3461   41.6765  -11.9230 H       1  UNL1        0.2101
     77 H          25.1707   44.6128  -10.5251 H       1  UNL1        0.2019
@<TRIPOS>BOND
     1     1     2    1
     2     1    42    1
     3     1    43    1
     4     1    44    1
     5     2     3    1
     6     3     4    1
     7     3    45    1
     8     3    46    1
     9     4     9   ar
    10     4     5   ar
    11     5     6   ar
    12     5    47    1
    13     6    25    1
    14     6     7   ar
    15     7     8   ar
    16     7    48    1
    17     8     9   ar
    18     8    10    1
    19     9    49    1
    20    10    11    1
    21    10    50    1
    22    11    12    1
    23    11    51    1
    24    11    52    1
    25    12    13    1
    26    12    53    1
    27    12    54    1
    28    13    14    1
    29    13    55    1
    30    13    56    1
    31    14    15    1
    32    14    57    1
    33    14    58    1
    34    15    16    1
    35    16    21   ar
    36    16    17   ar
    37    17    18   ar
    38    17    59    1
    39    18    19   ar
    40    18    60    1
    41    19    20   ar
    42    19    61    1
    43    20    21   ar
    44    20    22    1
    45    21    62    1
    46    22    23    1
    47    22    63    1
    48    22    64    1
    49    23    38    1
    50    23    24    1
    51    23    27    1
    52    24    25   am
    53    24    65    1
    54    25    26    2
    55    27    39    1
    56    27    28    1
    57    27    37    1
    58    28    40    1
    59    28    33    1
    60    28    29    1
    61    29    30    1
    62    29    66    1
    63    29    67    1
    64    30    31    1
    65    31    41    1
    66    31    32    1
    67    31    34    1
    68    32    33    1
    69    32    68    1
    70    32    69    1
    71    33    70    1
    72    33    77    1
    73    34    35    1
    74    34    71    1
    75    34    72    1
    76    35    36    1
    77    36    73    1
    78    36    74    1
    79    36    75    1
    80    37    76    1
