@<TRIPOS>MOLECULE
BACE_13.smi:1
 77 80 0 0 0
SMALL
GASTEIGER
****
Structure written by MMmdl.
@<TRIPOS>ATOM
      1 C          20.3321   42.6833   -1.1707 C.3     1  UNL1        0.0369
      2 O          20.3717   42.0176   -2.4195 O.3     1  UNL1       -0.3784
      3 C          21.4980   42.3599   -3.2135 C.3     1  UNL1        0.0724
      4 C          21.2047   42.0823   -4.6720 C.ar    1  UNL1       -0.0195
      5 C          20.3414   42.9495   -5.3672 C.ar    1  UNL1       -0.0442
      6 C          19.9255   42.6504   -6.6824 C.ar    1  UNL1        0.0388
      7 C          20.4646   41.5111   -7.3254 C.ar    1  UNL1       -0.0287
      8 C          21.3459   40.6382   -6.6397 C.ar    1  UNL1        0.0282
      9 C          21.7118   40.9324   -5.3098 C.ar    1  UNL1       -0.0355
     10 N          21.8467   39.4622   -7.2228 N.pl3   1  UNL1       -0.3438
     11 C          21.0985   38.8284   -8.3003 C.3     1  UNL1        0.0092
     12 C          21.5863   39.2643   -9.6877 C.3     1  UNL1       -0.0344
     13 C          20.4847   39.1511  -10.7542 C.3     1  UNL1       -0.0172
     14 C          20.9112   39.6721  -12.1415 C.3     1  UNL1        0.0896
     15 O          21.6402   40.8926  -12.0851 O.3     1  UNL1       -0.4920
     16 C          21.0329   42.0412  -11.6358 C.ar    1  UNL1        0.1208
     17 C          21.8814   43.1174  -11.3096 C.ar    1  UNL1       -0.0199
     18 C          21.3532   44.3306  -10.8330 C.ar    1  UNL1       -0.0580
     19 C          19.9640   44.4701  -10.6609 C.ar    1  UNL1       -0.0583
     20 C          19.1043   43.3940  -10.9627 C.ar    1  UNL1       -0.0421
     21 C          19.6356   42.1931  -11.4752 C.ar    1  UNL1       -0.0167
     22 C          17.6129   43.5137  -10.7016 C.3     1  UNL1       -0.0064
     23 C          17.2289   43.6612   -9.2043 C.3     1  UNL1        0.0586
     24 N          18.1684   42.9477   -8.3275 N.am    1  UNL1       -0.3055
     25 C          18.8919   43.5210   -7.3457 C.2     1  UNL1        0.2444
     26 O          18.6967   44.6724   -6.9530 O.2     1  UNL1       -0.2702
     27 C          15.7353   43.2971   -8.9529 C.3     1  UNL1        0.1182
     28 C          15.3174   41.8318   -8.6157 C.3     1  UNL1        0.0296
     29 C          15.8341   40.7576   -9.5965 C.3     1  UNL1        0.0935
     30 O          15.3389   39.4724   -9.2286 O.3     1  UNL1       -0.3634
     31 C          15.6855   39.0376   -7.9087 C.3     1  UNL1        0.1216
     32 C          15.1819   40.0776   -6.8925 C.3     1  UNL1       -0.0041
     33 N          15.6597   41.4329   -7.2381 N.4     1  UNL1        0.2346
     34 C          17.1977   38.7488   -7.7698 C.3     1  UNL1        0.0785
     35 O          17.7054   37.9843   -8.8567 O.3     1  UNL1       -0.3802
     36 C          17.3359   36.6159   -8.8188 C.3     1  UNL1        0.0366
     37 O          15.1750   44.2276   -8.0411 O.3     1  UNL1       -0.3843
     38 H          17.3421   44.7320   -9.0162 H       1  UNL1        0.0529
     39 H          15.2120   43.5354   -9.8807 H       1  UNL1        0.0670
     40 H          14.2273   41.8058   -8.6703 H       1  UNL1        0.0900
     41 H          15.1437   38.1096   -7.7252 H       1  UNL1        0.0673
     42 H          19.5148   42.2829   -0.5702 H       1  UNL1        0.0524
     43 H          20.1534   43.7501   -1.3040 H       1  UNL1        0.0524
     44 H          21.2615   42.5506   -0.6189 H       1  UNL1        0.0524
     45 H          22.3708   41.7989   -2.8755 H       1  UNL1        0.0610
     46 H          21.7439   43.4175   -3.1128 H       1  UNL1        0.0610
     47 H          19.9367   43.8058   -4.8463 H       1  UNL1        0.0628
     48 H          20.1847   41.2945   -8.3451 H       1  UNL1        0.0643
     49 H          22.3587   40.2600   -4.7648 H       1  UNL1        0.0639
     50 H          22.3996   38.8510   -6.6383 H       1  UNL1        0.1461
     51 H          20.0372   39.0387   -8.1765 H       1  UNL1        0.0461
     52 H          21.1925   37.7503   -8.2085 H       1  UNL1        0.0461
     53 H          22.4590   38.6799   -9.9787 H       1  UNL1        0.0281
     54 H          21.9234   40.2988   -9.6363 H       1  UNL1        0.0281
     55 H          19.6111   39.6988  -10.4073 H       1  UNL1        0.0298
     56 H          20.1547   38.1169  -10.8413 H       1  UNL1        0.0298
     57 H          20.0608   39.7525  -12.8181 H       1  UNL1        0.0696
     58 H          21.5827   38.9503  -12.6033 H       1  UNL1        0.0696
     59 H          22.9495   43.0074  -11.4326 H       1  UNL1        0.0654
     60 H          22.0135   45.1479  -10.5896 H       1  UNL1        0.0619
     61 H          19.5647   45.3944  -10.2709 H       1  UNL1        0.0620
     62 H          18.9594   41.3904  -11.7249 H       1  UNL1        0.0657
     63 H          17.1282   42.6387  -11.1311 H       1  UNL1        0.0332
     64 H          17.2283   44.3642  -11.2646 H       1  UNL1        0.0332
     65 H          18.4245   42.0068   -8.5884 H       1  UNL1        0.1494
     66 H          16.9243   40.7410   -9.6409 H       1  UNL1        0.0617
     67 H          15.4835   40.9740  -10.6056 H       1  UNL1        0.0617
     68 H          15.4949   39.8156   -5.8803 H       1  UNL1        0.0840
     69 H          14.0921   40.0960   -6.8751 H       1  UNL1        0.0840
     70 H          16.6579   41.4731   -7.0895 H       1  UNL1        0.2019
     71 H          17.7574   39.6836   -7.7461 H       1  UNL1        0.0587
     72 H          17.4071   38.2551   -6.8201 H       1  UNL1        0.0587
     73 H          17.8207   36.0898   -9.6404 H       1  UNL1        0.0524
     74 H          16.2594   36.4800   -8.9265 H       1  UNL1        0.0524
     75 H          17.6597   36.1500   -7.8868 H       1  UNL1        0.0524
     76 H          15.5450   44.0902   -7.1706 H       1  UNL1        0.2101
     77 H          15.2233   42.0678   -6.5731 H       1  UNL1        0.2019
@<TRIPOS>BOND
     1     1     2    1
     2     1    42    1
     3     1    43    1
     4     1    44    1
     5     2     3    1
     6     3     4    1
     7     3    45    1
     8     3    46    1
     9     4     9   ar
    10     4     5   ar
    11     5     6   ar
    12     5    47    1
    13     6    25    1
    14     6     7   ar
    15     7     8   ar
    16     7    48    1
    17     8     9   ar
    18     8    10    1
    19     9    49    1
    20    10    11    1
    21    10    50    1
    22    11    12    1
    23    11    51    1
    24    11    52    1
    25    12    13    1
    26    12    53    1
    27    12    54    1
    28    13    14    1
    29    13    55    1
    30    13    56    1
    31    14    15    1
    32    14    57    1
    33    14    58    1
    34    15    16    1
    35    16    21   ar
    36    16    17   ar
    37    17    18   ar
    38    17    59    1
    39    18    19   ar
    40    18    60    1
    41    19    20   ar
    42    19    61    1
    43    20    21   ar
    44    20    22    1
    45    21    62    1
    46    22    23    1
    47    22    63    1
    48    22    64    1
    49    23    38    1
    50    23    24    1
    51    23    27    1
    52    24    25   am
    53    24    65    1
    54    25    26    2
    55    27    39    1
    56    27    28    1
    57    27    37    1
    58    28    40    1
    59    28    33    1
    60    28    29    1
    61    29    30    1
    62    29    66    1
    63    29    67    1
    64    30    31    1
    65    31    41    1
    66    31    32    1
    67    31    34    1
    68    32    33    1
    69    32    68    1
    70    32    69    1
    71    33    70    1
    72    33    77    1
    73    34    35    1
    74    34    71    1
    75    34    72    1
    76    35    36    1
    77    36    73    1
    78    36    74    1
    79    36    75    1
    80    37    76    1
