@<TRIPOS>MOLECULE
BACE_9.smi:1
 88 90 0 0 0
SMALL
GASTEIGER
****
Structure written by MMmdl.
@<TRIPOS>ATOM
      1 C          21.8527   43.3759   -6.0466 C.3     1  UNL1       -0.0624
      2 C          23.2581   43.5775   -6.6402 C.3     1  UNL1       -0.0421
      3 C          23.9686   44.7435   -5.9168 C.3     1  UNL1       -0.0504
      4 C          25.4411   44.9436   -6.3134 C.3     1  UNL1       -0.0528
      5 C          26.1360   46.0410   -5.4880 C.3     1  UNL1       -0.0530
      6 C          27.5314   46.4076   -6.0149 C.3     1  UNL1       -0.0530
      7 C          28.6037   45.3286   -5.7653 C.3     1  UNL1       -0.0516
      8 C          29.9324   45.6163   -6.4938 C.3     1  UNL1       -0.0375
      9 C          30.0526   44.9281   -7.8656 C.3     1  UNL1        0.0091
     10 N          28.9835   45.3238   -8.7728 N.pl3   1  UNL1       -0.3438
     11 C          28.4596   44.3821   -9.6679 C.ar    1  UNL1        0.0282
     12 C          29.2511   43.3474  -10.2138 C.ar    1  UNL1       -0.0355
     13 C          28.6975   42.4347  -11.1338 C.ar    1  UNL1       -0.0195
     14 C          27.3389   42.5457  -11.4970 C.ar    1  UNL1       -0.0442
     15 C          26.5293   43.5573  -10.9368 C.ar    1  UNL1        0.0388
     16 C          27.1032   44.4832  -10.0383 C.ar    1  UNL1       -0.0287
     17 C          25.0847   43.6681  -11.3357 C.2     1  UNL1        0.2444
     18 O          24.7937   43.9399  -12.4961 O.2     1  UNL1       -0.2702
     19 N          24.1247   43.4664  -10.4121 N.am    1  UNL1       -0.3058
     20 C          24.2534   43.0265   -9.0172 C.3     1  UNL1        0.0545
     21 C          23.1798   43.7685   -8.1791 C.3     1  UNL1       -0.0293
     22 C          24.2018   41.4743   -8.9042 C.3     1  UNL1        0.1130
     23 C          22.8743   40.7885   -9.3083 C.3     1  UNL1       -0.0050
     24 N          22.8600   39.3844   -8.8400 N.4     1  UNL1        0.2321
     25 C          21.7368   38.5443   -9.3122 C.3     1  UNL1       -0.0076
     26 C          20.4659   38.6724   -8.4853 C.ar    1  UNL1       -0.0027
     27 C          20.5183   39.0290   -7.1205 C.ar    1  UNL1       -0.0535
     28 C          19.3361   39.0793   -6.3639 C.ar    1  UNL1       -0.0611
     29 C          18.1005   38.7495   -6.9401 C.ar    1  UNL1       -0.0583
     30 C          18.0323   38.3811   -8.2958 C.ar    1  UNL1       -0.0444
     31 C          19.2170   38.3545   -9.0695 C.ar    1  UNL1       -0.0501
     32 C          16.6849   37.9942   -8.8870 C.3     1  UNL1       -0.0215
     33 C          16.6638   36.5161   -9.2983 C.3     1  UNL1       -0.0586
     34 C          16.2799   38.9342  -10.0303 C.3     1  UNL1       -0.0586
     35 O          25.2523   40.9500   -9.6913 O.3     1  UNL1       -0.3847
     36 C          29.5608   41.3222  -11.7015 C.3     1  UNL1        0.0724
     37 O          30.8752   41.7502  -12.0274 O.3     1  UNL1       -0.3784
     38 C          30.9403   42.4842  -13.2412 C.3     1  UNL1        0.0369
     39 H          23.8104   42.6702   -6.4102 H       1  UNL1        0.0299
     40 H          25.2220   43.3354   -8.6310 H       1  UNL1        0.0526
     41 H          24.4513   41.2008   -7.8826 H       1  UNL1        0.0666
     42 H          21.2196   44.2467   -6.2192 H       1  UNL1        0.0232
     43 H          21.9008   43.2089   -4.9697 H       1  UNL1        0.0232
     44 H          21.3569   42.5081   -6.4852 H       1  UNL1        0.0232
     45 H          23.4194   45.6700   -6.0894 H       1  UNL1        0.0268
     46 H          23.9239   44.5679   -4.8411 H       1  UNL1        0.0268
     47 H          25.9776   44.0004   -6.2033 H       1  UNL1        0.0265
     48 H          25.4961   45.2164   -7.3663 H       1  UNL1        0.0265
     49 H          25.5179   46.9394   -5.5113 H       1  UNL1        0.0265
     50 H          26.2029   45.7500   -4.4402 H       1  UNL1        0.0265
     51 H          27.4518   46.6442   -7.0738 H       1  UNL1        0.0265
     52 H          27.8580   47.3307   -5.5343 H       1  UNL1        0.0265
     53 H          28.7892   45.2775   -4.6914 H       1  UNL1        0.0266
     54 H          28.2424   44.3398   -6.0511 H       1  UNL1        0.0266
     55 H          30.0891   46.6917   -6.5902 H       1  UNL1        0.0280
     56 H          30.7538   45.2583   -5.8721 H       1  UNL1        0.0280
     57 H          31.0092   45.1854   -8.3212 H       1  UNL1        0.0461
     58 H          30.0598   43.8487   -7.7224 H       1  UNL1        0.0461
     59 H          28.3477   46.0230   -8.4224 H       1  UNL1        0.1461
     60 H          30.2946   43.2579   -9.9503 H       1  UNL1        0.0639
     61 H          26.9080   41.8393  -12.1918 H       1  UNL1        0.0628
     62 H          26.4948   45.2753   -9.6272 H       1  UNL1        0.0643
     63 H          23.1829   43.5760  -10.7546 H       1  UNL1        0.1494
     64 H          22.1932   43.4789   -8.5383 H       1  UNL1        0.0286
     65 H          23.2336   44.8363   -8.3975 H       1  UNL1        0.0286
     66 H          22.0187   41.2887   -8.8576 H       1  UNL1        0.0840
     67 H          22.7407   40.8314  -10.3905 H       1  UNL1        0.0840
     68 H          23.7039   38.9453   -9.2113 H       1  UNL1        0.2018
     69 H          21.5322   38.7446  -10.3648 H       1  UNL1        0.0866
     70 H          22.0559   37.5033   -9.2509 H       1  UNL1        0.0866
     71 H          21.4510   39.2557   -6.6273 H       1  UNL1        0.0622
     72 H          19.3726   39.3507   -5.3193 H       1  UNL1        0.0618
     73 H          17.2067   38.7686   -6.3299 H       1  UNL1        0.0620
     74 H          19.1681   38.0568  -10.1075 H       1  UNL1        0.0625
     75 H          15.9301   38.1076   -8.1060 H       1  UNL1        0.0343
     76 H          16.8514   35.8747   -8.4367 H       1  UNL1        0.0235
     77 H          17.4317   36.3060  -10.0390 H       1  UNL1        0.0235
     78 H          15.6977   36.2357   -9.7198 H       1  UNL1        0.0235
     79 H          16.2034   39.9628   -9.6774 H       1  UNL1        0.0235
     80 H          15.3085   38.6553  -10.4402 H       1  UNL1        0.0235
     81 H          17.0080   38.9185  -10.8399 H       1  UNL1        0.0235
     82 H          25.2717   40.0027   -9.6403 H       1  UNL1        0.2101
     83 H          29.6604   40.5501  -10.9396 H       1  UNL1        0.0610
     84 H          29.0805   40.8484  -12.5605 H       1  UNL1        0.0610
     85 H          31.9735   42.7751  -13.4325 H       1  UNL1        0.0524
     86 H          30.3387   43.3930  -13.1952 H       1  UNL1        0.0524
     87 H          30.6002   41.8802  -14.0854 H       1  UNL1        0.0524
     88 H          22.9027   39.3531   -7.8332 H       1  UNL1        0.2018
@<TRIPOS>BOND
     1     1     2    1
     2     1    42    1
     3     1    43    1
     4     1    44    1
     5     2    39    1
     6     2    21    1
     7     2     3    1
     8     3     4    1
     9     3    45    1
    10     3    46    1
    11     4     5    1
    12     4    47    1
    13     4    48    1
    14     5     6    1
    15     5    49    1
    16     5    50    1
    17     6     7    1
    18     6    51    1
    19     6    52    1
    20     7     8    1
    21     7    53    1
    22     7    54    1
    23     8     9    1
    24     8    55    1
    25     8    56    1
    26     9    10    1
    27     9    57    1
    28     9    58    1
    29    10    11    1
    30    10    59    1
    31    11    16   ar
    32    11    12   ar
    33    12    13   ar
    34    12    60    1
    35    13    14   ar
    36    13    36    1
    37    14    15   ar
    38    14    61    1
    39    15    16   ar
    40    15    17    1
    41    16    62    1
    42    17    18    2
    43    17    19   am
    44    19    20    1
    45    19    63    1
    46    20    40    1
    47    20    21    1
    48    20    22    1
    49    21    64    1
    50    21    65    1
    51    22    41    1
    52    22    23    1
    53    22    35    1
    54    23    24    1
    55    23    66    1
    56    23    67    1
    57    24    25    1
    58    24    68    1
    59    24    88    1
    60    25    26    1
    61    25    69    1
    62    25    70    1
    63    26    31   ar
    64    26    27   ar
    65    27    28   ar
    66    27    71    1
    67    28    29   ar
    68    28    72    1
    69    29    30   ar
    70    29    73    1
    71    30    31   ar
    72    30    32    1
    73    31    74    1
    74    32    33    1
    75    32    34    1
    76    32    75    1
    77    33    76    1
    78    33    77    1
    79    33    78    1
    80    34    79    1
    81    34    80    1
    82    34    81    1
    83    35    82    1
    84    36    37    1
    85    36    83    1
    86    36    84    1
    87    37    38    1
    88    38    85    1
    89    38    86    1
    90    38    87    1
