@<TRIPOS>MOLECULE
BACE_14.smi:1
 85 89 0 0 0
SMALL
GASTEIGER
****
Structure written by MMmdl.
@<TRIPOS>ATOM
      1 C          28.0462   46.1696   -8.3625 C.3     1  UNL1       -0.0586
      2 C          28.0611   44.6872   -7.9643 C.3     1  UNL1       -0.0215
      3 C          27.2633   44.4390   -6.6731 C.3     1  UNL1       -0.0586
      4 C          27.5760   43.8092   -9.1106 C.ar    1  UNL1       -0.0445
      5 C          28.4847   42.9702   -9.7932 C.ar    1  UNL1       -0.0583
      6 C          28.0351   42.1500  -10.8425 C.ar    1  UNL1       -0.0612
      7 C          26.6798   42.1657  -11.2189 C.ar    1  UNL1       -0.0568
      8 C          25.7618   43.0049  -10.5541 C.ar    1  UNL1       -0.0271
      9 C          26.2213   43.8235   -9.5017 C.ar    1  UNL1       -0.0534
     10 C          24.3105   42.9995  -10.9411 C.3     1  UNL1        0.0447
     11 C          23.5478   44.2919  -11.1339 C.3     1  UNL1       -0.0285
     12 C          23.9233   43.4458  -12.3306 C.3     1  UNL1       -0.0285
     13 N          23.6007   41.8506  -10.3888 N.3     1  UNL1       -0.3042
     14 C          23.3334   41.9388   -8.9517 C.3     1  UNL1        0.0245
     15 C          22.5632   40.6930   -8.4633 C.3     1  UNL1        0.0862
     16 C          21.5988   40.9466   -7.2725 C.3     1  UNL1        0.0545
     17 C          20.8333   39.6787   -6.8213 C.3     1  UNL1       -0.0066
     18 C          19.7933   39.1743   -7.8118 C.ar    1  UNL1       -0.0421
     19 C          20.1786   38.3747   -8.9076 C.ar    1  UNL1       -0.0583
     20 C          19.2139   37.9314   -9.8283 C.ar    1  UNL1       -0.0580
     21 C          17.8553   38.2378   -9.6401 C.ar    1  UNL1       -0.0199
     22 C          17.4501   39.0311   -8.5391 C.ar    1  UNL1        0.1208
     23 C          18.4307   39.4964   -7.6437 C.ar    1  UNL1       -0.0167
     24 O          16.1437   39.3877   -8.2823 O.3     1  UNL1       -0.4920
     25 C          15.2162   39.4521   -9.3604 C.3     1  UNL1        0.0896
     26 C          15.5887   40.5885  -10.3332 C.3     1  UNL1       -0.0172
     27 C          15.6493   41.9655   -9.6481 C.3     1  UNL1       -0.0344
     28 C          16.4118   43.0043  -10.4866 C.3     1  UNL1        0.0092
     29 N          16.4962   44.3045   -9.8342 N.pl3   1  UNL1       -0.3438
     30 C          17.4186   44.5806   -8.8089 C.ar    1  UNL1        0.0285
     31 C          18.3310   43.6222   -8.3126 C.ar    1  UNL1       -0.0287
     32 C          19.2282   43.9509   -7.2683 C.ar    1  UNL1        0.0391
     33 C          19.1802   45.2426   -6.7022 C.ar    1  UNL1       -0.0390
     34 C          18.2859   46.2176   -7.1968 C.ar    1  UNL1        0.0196
     35 C          17.4089   45.8756   -8.2511 C.ar    1  UNL1       -0.0303
     36 C          18.2264   47.5540   -6.5495 C.2     1  UNL1        0.1602
     37 O          18.4563   47.7403   -5.3567 O.2     1  UNL1       -0.2924
     38 C          17.8562   48.7450   -7.4270 C.3     1  UNL1       -0.0014
     39 C          20.1914   42.9343   -6.7205 C.2     1  UNL1        0.2445
     40 O          20.5716   43.0050   -5.5497 O.2     1  UNL1       -0.2702
     41 N          20.6466   42.0153   -7.5892 N.am    1  UNL1       -0.3057
     42 O          23.5359   39.7504   -8.0402 O.3     1  UNL1       -0.3887
     43 H          21.9992   40.2759   -9.2979 H       1  UNL1        0.0624
     44 H          22.2233   41.2669   -6.4336 H       1  UNL1        0.0527
     45 H          28.4276   46.7973   -7.5568 H       1  UNL1        0.0235
     46 H          27.0381   46.5088   -8.5999 H       1  UNL1        0.0235
     47 H          28.6695   46.3417   -9.2403 H       1  UNL1        0.0235
     48 H          29.0965   44.4179   -7.7568 H       1  UNL1        0.0343
     49 H          27.6895   44.9961   -5.8389 H       1  UNL1        0.0235
     50 H          27.2696   43.3831   -6.4038 H       1  UNL1        0.0235
     51 H          26.2227   44.7470   -6.7723 H       1  UNL1        0.0235
     52 H          29.5244   42.9468   -9.5039 H       1  UNL1        0.0620
     53 H          28.7297   41.4997  -11.3574 H       1  UNL1        0.0618
     54 H          26.3423   41.5304  -12.0253 H       1  UNL1        0.0621
     55 H          25.5211   44.4637   -8.9870 H       1  UNL1        0.0624
     56 H          22.4921   44.3159  -10.8677 H       1  UNL1        0.0287
     57 H          24.0815   45.2319  -11.0040 H       1  UNL1        0.0287
     58 H          24.7116   43.8213  -12.9799 H       1  UNL1        0.0287
     59 H          23.1159   42.9191  -12.8360 H       1  UNL1        0.0287
     60 H          24.1533   41.0166  -10.5721 H       1  UNL1        0.1229
     61 H          22.7474   42.8387   -8.7643 H       1  UNL1        0.0450
     62 H          24.2558   42.0640   -8.3836 H       1  UNL1        0.0450
     63 H          21.5307   38.8668   -6.6031 H       1  UNL1        0.0332
     64 H          20.3318   39.8842   -5.8740 H       1  UNL1        0.0332
     65 H          21.2155   38.1066   -9.0522 H       1  UNL1        0.0620
     66 H          19.5155   37.3533  -10.6859 H       1  UNL1        0.0619
     67 H          17.1425   37.8613  -10.3554 H       1  UNL1        0.0654
     68 H          18.1232   40.1287   -6.8276 H       1  UNL1        0.0657
     69 H          15.1269   38.4944   -9.8736 H       1  UNL1        0.0696
     70 H          14.2319   39.6481   -8.9350 H       1  UNL1        0.0696
     71 H          16.5509   40.3693  -10.7956 H       1  UNL1        0.0298
     72 H          14.8667   40.6180  -11.1480 H       1  UNL1        0.0298
     73 H          14.6355   42.3125   -9.4400 H       1  UNL1        0.0281
     74 H          16.1344   41.8680   -8.6763 H       1  UNL1        0.0281
     75 H          17.4140   42.6445  -10.7231 H       1  UNL1        0.0461
     76 H          15.9064   43.1378  -11.4426 H       1  UNL1        0.0461
     77 H          15.8535   45.0258  -10.1281 H       1  UNL1        0.1461
     78 H          18.3461   42.6239   -8.7223 H       1  UNL1        0.0643
     79 H          19.8425   45.4909   -5.8816 H       1  UNL1        0.0632
     80 H          16.6996   46.5966   -8.6260 H       1  UNL1        0.0643
     81 H          16.8271   48.6725   -7.7722 H       1  UNL1        0.0309
     82 H          18.5085   48.7866   -8.2998 H       1  UNL1        0.0309
     83 H          17.9649   49.6738   -6.8645 H       1  UNL1        0.0309
     84 H          20.2800   42.0283   -8.5272 H       1  UNL1        0.1494
     85 H          23.9951   39.4022   -8.7968 H       1  UNL1        0.2099
@<TRIPOS>BOND
     1     1     2    1
     2     1    45    1
     3     1    46    1
     4     1    47    1
     5     2     3    1
     6     2     4    1
     7     2    48    1
     8     3    49    1
     9     3    50    1
    10     3    51    1
    11     4     9   ar
    12     4     5   ar
    13     5     6   ar
    14     5    52    1
    15     6     7   ar
    16     6    53    1
    17     7     8   ar
    18     7    54    1
    19     8     9   ar
    20     8    10    1
    21     9    55    1
    22    10    12    1
    23    10    11    1
    24    10    13    1
    25    11    12    1
    26    11    56    1
    27    11    57    1
    28    12    58    1
    29    12    59    1
    30    13    14    1
    31    13    60    1
    32    14    15    1
    33    14    61    1
    34    14    62    1
    35    15    43    1
    36    15    16    1
    37    15    42    1
    38    16    44    1
    39    16    41    1
    40    16    17    1
    41    17    18    1
    42    17    63    1
    43    17    64    1
    44    18    23   ar
    45    18    19   ar
    46    19    20   ar
    47    19    65    1
    48    20    21   ar
    49    20    66    1
    50    21    22   ar
    51    21    67    1
    52    22    23   ar
    53    22    24    1
    54    23    68    1
    55    24    25    1
    56    25    26    1
    57    25    69    1
    58    25    70    1
    59    26    27    1
    60    26    71    1
    61    26    72    1
    62    27    28    1
    63    27    73    1
    64    27    74    1
    65    28    29    1
    66    28    75    1
    67    28    76    1
    68    29    30    1
    69    29    77    1
    70    30    35   ar
    71    30    31   ar
    72    31    32   ar
    73    31    78    1
    74    32    33   ar
    75    32    39    1
    76    33    34   ar
    77    33    79    1
    78    34    35   ar
    79    34    36    1
    80    35    80    1
    81    36    37    2
    82    36    38    1
    83    38    81    1
    84    38    82    1
    85    38    83    1
    86    39    40    2
    87    39    41   am
    88    41    84    1
    89    42    85    1
