@<TRIPOS>MOLECULE
BACE_3.smi:1
 86 87 0 0 0
SMALL
GASTEIGER
****
Structure written by MMmdl.
@<TRIPOS>ATOM
      1 C          26.6577   43.6791   -9.7681 C.ar    1  UNL1       -0.0535
      2 C          27.7074   44.5760  -10.0339 C.ar    1  UNL1       -0.0611
      3 C          28.7798   44.1809  -10.8528 C.ar    1  UNL1       -0.0583
      4 C          28.8139   42.8869  -11.4121 C.ar    1  UNL1       -0.0444
      5 C          30.0052   42.4778  -12.2681 C.3     1  UNL1       -0.0215
      6 C          31.0557   41.7528  -11.4245 C.3     1  UNL1       -0.0586
      7 C          29.6075   41.6416  -13.4922 C.3     1  UNL1       -0.0586
      8 C          27.7564   41.9879  -11.1427 C.ar    1  UNL1       -0.0501
      9 C          26.6786   42.3840  -10.3255 C.ar    1  UNL1       -0.0027
     10 C          25.5506   41.4206  -10.0315 C.3     1  UNL1       -0.0075
     11 N          24.3691   41.7563  -10.8395 N.4     1  UNL1        0.2341
     12 C          23.1057   41.2548  -10.2644 C.3     1  UNL1        0.0236
     13 C          21.9145   42.1116  -10.7250 C.3     1  UNL1        0.2249
     14 O          21.5744   41.7475  -12.0448 O.3     1  UNL1       -0.3594
     15 O          22.3270   43.4618  -10.6456 O.3     1  UNL1       -0.3594
     16 C          20.7043   41.9665   -9.7566 C.3     1  UNL1        0.0822
     17 N          19.5383   42.6966  -10.2576 N.am    1  UNL1       -0.3056
     18 C          18.9239   43.7300   -9.6632 C.2     1  UNL1        0.2337
     19 O          19.3659   44.2918   -8.6637 O.2     1  UNL1       -0.2738
     20 C          17.6017   44.1772  -10.3077 C.3     1  UNL1        0.0991
     21 C          17.4152   45.7077  -10.2586 C.3     1  UNL1       -0.0379
     22 C          20.2972   40.5200   -9.3614 C.3     1  UNL1       -0.0267
     23 C          19.9550   39.5120  -10.4892 C.3     1  UNL1       -0.0420
     24 C          18.8464   40.0082  -11.4299 C.3     1  UNL1       -0.0624
     25 C          19.6926   38.0854   -9.9299 C.3     1  UNL1       -0.0504
     26 C          18.4699   37.9049   -9.0024 C.3     1  UNL1       -0.0528
     27 C          17.1315   37.7838   -9.7461 C.3     1  UNL1       -0.0530
     28 C          15.9157   37.5433   -8.8472 C.3     1  UNL1       -0.0531
     29 C          15.6234   38.6330   -7.7966 C.3     1  UNL1       -0.0530
     30 C          15.6184   40.0887   -8.3009 C.3     1  UNL1       -0.0526
     31 C          14.6496   40.3803   -9.4645 C.3     1  UNL1       -0.0448
     32 C          14.4858   41.8874   -9.7542 C.3     1  UNL1        0.0242
     33 C          15.7420   42.5455  -10.3680 C.2     1  UNL1        0.2159
     34 O          16.0608   42.2049  -11.5096 O.2     1  UNL1       -0.2756
     35 N          16.4405   43.4892   -9.6853 N.am    1  UNL1       -0.2932
     36 C          16.1520   43.7861   -8.2739 C.3     1  UNL1        0.0039
     37 H          21.0096   42.4233   -8.8128 H       1  UNL1        0.0553
     38 H          17.6798   43.9446  -11.3711 H       1  UNL1        0.0594
     39 H          20.8437   39.3977  -11.1108 H       1  UNL1        0.0299
     40 H          25.8384   43.9897   -9.1347 H       1  UNL1        0.0622
     41 H          27.6937   45.5707   -9.6097 H       1  UNL1        0.0618
     42 H          29.5849   44.8760  -11.0427 H       1  UNL1        0.0620
     43 H          30.4601   43.3917  -12.6490 H       1  UNL1        0.0343
     44 H          31.3992   42.3860  -10.6061 H       1  UNL1        0.0235
     45 H          31.9188   41.4881  -12.0348 H       1  UNL1        0.0235
     46 H          30.6509   40.8375  -10.9929 H       1  UNL1        0.0235
     47 H          28.8300   42.1513  -14.0543 H       1  UNL1        0.0235
     48 H          29.2362   40.6531  -13.2195 H       1  UNL1        0.0235
     49 H          30.4616   41.4897  -14.1547 H       1  UNL1        0.0235
     50 H          27.7726   40.9843  -11.5433 H       1  UNL1        0.0625
     51 H          25.2734   41.4963   -8.9784 H       1  UNL1        0.0866
     52 H          25.8590   40.3917  -10.2150 H       1  UNL1        0.0866
     53 H          24.4794   41.4021  -11.7889 H       1  UNL1        0.2019
     54 H          23.1512   41.3172   -9.1770 H       1  UNL1        0.0868
     55 H          22.9807   40.1984  -10.5065 H       1  UNL1        0.0868
     56 H          22.3577   41.5231  -12.5299 H       1  UNL1        0.2130
     57 H          21.5565   43.9896  -10.4747 H       1  UNL1        0.2130
     58 H          19.1251   42.3235  -11.1001 H       1  UNL1        0.1492
     59 H          18.2365   46.2179  -10.7639 H       1  UNL1        0.0252
     60 H          17.3733   46.1008   -9.2427 H       1  UNL1        0.0252
     61 H          16.4932   45.9994  -10.7618 H       1  UNL1        0.0252
     62 H          21.0912   40.0903   -8.7532 H       1  UNL1        0.0287
     63 H          19.4485   40.6042   -8.6826 H       1  UNL1        0.0287
     64 H          18.4600   39.2044  -12.0396 H       1  UNL1        0.0232
     65 H          19.2038   40.7650  -12.1240 H       1  UNL1        0.0232
     66 H          18.0154   40.4411  -10.8781 H       1  UNL1        0.0232
     67 H          19.6264   37.3611  -10.7439 H       1  UNL1        0.0268
     68 H          20.5772   37.7863   -9.3670 H       1  UNL1        0.0268
     69 H          18.4280   38.6928   -8.2529 H       1  UNL1        0.0265
     70 H          18.6081   36.9827   -8.4380 H       1  UNL1        0.0265
     71 H          16.9304   38.6556  -10.3535 H       1  UNL1        0.0265
     72 H          17.2001   36.9508  -10.4381 H       1  UNL1        0.0265
     73 H          16.0588   36.5853   -8.3506 H       1  UNL1        0.0265
     74 H          15.0387   37.4299   -9.4831 H       1  UNL1        0.0265
     75 H          14.6641   38.4156   -7.3278 H       1  UNL1        0.0265
     76 H          16.3529   38.5563   -6.9878 H       1  UNL1        0.0265
     77 H          16.6312   40.3845   -8.5786 H       1  UNL1        0.0265
     78 H          15.3479   40.7181   -7.4539 H       1  UNL1        0.0265
     79 H          14.9754   39.8659  -10.3687 H       1  UNL1        0.0270
     80 H          13.6659   39.9679   -9.2365 H       1  UNL1        0.0270
     81 H          14.1290   42.3929   -8.8609 H       1  UNL1        0.0358
     82 H          13.6787   41.9998  -10.4785 H       1  UNL1        0.0358
     83 H          16.8698   44.4720   -7.8236 H       1  UNL1        0.0429
     84 H          16.1669   42.8834   -7.6603 H       1  UNL1        0.0429
     85 H          15.1719   44.2545   -8.1727 H       1  UNL1        0.0429
     86 H          24.2682   42.7622  -10.8725 H       1  UNL1        0.2019
@<TRIPOS>BOND
     1     1     9   ar
     2     1     2   ar
     3     1    40    1
     4     2     3   ar
     5     2    41    1
     6     3     4   ar
     7     3    42    1
     8     4     5    1
     9     4     8   ar
    10     5     6    1
    11     5     7    1
    12     5    43    1
    13     6    44    1
    14     6    45    1
    15     6    46    1
    16     7    47    1
    17     7    48    1
    18     7    49    1
    19     8     9   ar
    20     8    50    1
    21     9    10    1
    22    10    11    1
    23    10    51    1
    24    10    52    1
    25    11    12    1
    26    11    53    1
    27    11    86    1
    28    12    13    1
    29    12    54    1
    30    12    55    1
    31    13    14    1
    32    13    15    1
    33    13    16    1
    34    14    56    1
    35    15    57    1
    36    16    37    1
    37    16    17    1
    38    16    22    1
    39    17    18   am
    40    17    58    1
    41    18    19    2
    42    18    20    1
    43    20    38    1
    44    20    35    1
    45    20    21    1
    46    21    59    1
    47    21    60    1
    48    21    61    1
    49    22    23    1
    50    22    62    1
    51    22    63    1
    52    23    39    1
    53    23    24    1
    54    23    25    1
    55    24    64    1
    56    24    65    1
    57    24    66    1
    58    25    26    1
    59    25    67    1
    60    25    68    1
    61    26    27    1
    62    26    69    1
    63    26    70    1
    64    27    28    1
    65    27    71    1
    66    27    72    1
    67    28    29    1
    68    28    73    1
    69    28    74    1
    70    29    30    1
    71    29    75    1
    72    29    76    1
    73    30    31    1
    74    30    77    1
    75    30    78    1
    76    31    32    1
    77    31    79    1
    78    31    80    1
    79    32    33    1
    80    32    81    1
    81    32    82    1
    82    33    34    2
    83    33    35   am
    84    35    36    1
    85    36    83    1
    86    36    84    1
    87    36    85    1
