@<TRIPOS>MOLECULE
BACE_19.smi:1
 76 77 0 0 0
SMALL
GASTEIGER
****
Structure written by MMmdl.
@<TRIPOS>ATOM
      1 C          21.7242   40.7931   -3.4041 C.3     1  UNL1       -0.0652
      2 C          20.9777   41.1958   -4.6845 C.3     1  UNL1       -0.0545
      3 C          21.9298   41.5069   -5.8514 C.3     1  UNL1       -0.0376
      4 C          21.9336   40.4576   -6.9774 C.3     1  UNL1        0.0116
      5 N          22.8982   40.7554   -8.0249 N.am    1  UNL1       -0.3151
      6 C          23.5063   41.9280   -8.2399 C.2     1  UNL1        0.2159
      7 O          23.3535   42.9051   -7.5090 O.2     1  UNL1       -0.2755
      8 C          24.3855   41.9961   -9.4939 C.3     1  UNL1        0.0351
      9 C          25.2972   43.2384   -9.4503 C.3     1  UNL1       -0.0540
     10 C          23.5788   41.8078  -10.8073 C.3     1  UNL1       -0.0143
     11 C          22.1622   42.4445  -10.8479 C.3     1  UNL1        0.0742
     12 C          21.0080   41.4926  -10.4033 C.3     1  UNL1        0.0493
     13 C          20.9088   40.1727  -11.2150 C.3     1  UNL1       -0.0295
     14 C          19.8835   39.1056  -10.7389 C.3     1  UNL1       -0.0418
     15 C          19.9753   38.8107   -9.2130 C.3     1  UNL1       -0.0464
     16 C          18.9285   37.8454   -8.6066 C.3     1  UNL1       -0.0274
     17 C          17.5464   38.4655   -8.4318 C.ar    1  UNL1       -0.0470
     18 C          16.4110   37.8063   -8.9454 C.ar    1  UNL1       -0.0586
     19 C          15.1465   38.4203   -8.8666 C.ar    1  UNL1       -0.0612
     20 C          15.0213   39.6998   -8.2982 C.ar    1  UNL1       -0.0570
     21 C          16.1441   40.3732   -7.7748 C.ar    1  UNL1       -0.0263
     22 C          17.3955   39.7198   -7.8002 C.ar    1  UNL1       -0.0538
     23 C          15.9752   41.7729   -7.1819 C.3     1  UNL1        0.0907
     24 S          17.1911   43.0141   -7.8487 S.O2    1  UNL1       -0.0263
     25 O          16.8293   44.3442   -7.3340 O.2     1  UNL1       -0.1740
     26 O          18.5641   42.5300   -7.6478 O.2     1  UNL1       -0.1740
     27 C          16.8353   42.9717   -9.6663 C.3     1  UNL1        0.0769
     28 C          17.8467   43.7365  -10.5518 C.3     1  UNL1        0.0520
     29 C          19.0031   42.8720  -11.0816 C.2     1  UNL1        0.2177
     30 O          19.2600   42.8761  -12.2842 O.2     1  UNL1       -0.2755
     31 N          19.7276   42.1879  -10.1836 N.am    1  UNL1       -0.3097
     32 C          18.3719   45.0634   -9.9781 C.3     1  UNL1       -0.0526
     33 C          18.4685   39.4056  -11.2618 C.3     1  UNL1       -0.0623
     34 O          22.1420   43.6151  -10.0595 O.3     1  UNL1       -0.3899
     35 H          25.0441   41.1272   -9.4263 H       1  UNL1        0.0392
     36 H          21.9639   42.7984  -11.8591 H       1  UNL1        0.0612
     37 H          21.2866   41.1819   -9.4024 H       1  UNL1        0.0524
     38 H          20.1712   38.1831  -11.2451 H       1  UNL1        0.0299
     39 H          17.2898   44.0084  -11.4474 H       1  UNL1        0.0407
     40 H          21.0197   40.5621   -2.6041 H       1  UNL1        0.0230
     41 H          22.3665   41.6001   -3.0525 H       1  UNL1        0.0230
     42 H          22.3440   39.9106   -3.5637 H       1  UNL1        0.0230
     43 H          20.2913   40.3956   -4.9651 H       1  UNL1        0.0263
     44 H          20.3680   42.0723   -4.4703 H       1  UNL1        0.0263
     45 H          21.6649   42.4753   -6.2784 H       1  UNL1        0.0280
     46 H          22.9425   41.6008   -5.4670 H       1  UNL1        0.0280
     47 H          22.1773   39.4746   -6.5796 H       1  UNL1        0.0462
     48 H          20.9391   40.3787   -7.4165 H       1  UNL1        0.0462
     49 H          23.1515   39.9982   -8.6513 H       1  UNL1        0.1487
     50 H          25.8121   43.3239   -8.4943 H       1  UNL1        0.0237
     51 H          24.7422   44.1656   -9.5769 H       1  UNL1        0.0237
     52 H          26.0671   43.1831  -10.2183 H       1  UNL1        0.0237
     53 H          24.1882   42.1542  -11.6397 H       1  UNL1        0.0298
     54 H          23.4848   40.7383  -10.9965 H       1  UNL1        0.0298
     55 H          20.7346   40.3986  -12.2673 H       1  UNL1        0.0286
     56 H          21.8968   39.7102  -11.1921 H       1  UNL1        0.0286
     57 H          20.9629   38.3853   -9.0279 H       1  UNL1        0.0271
     58 H          19.9552   39.7287   -8.6341 H       1  UNL1        0.0271
     59 H          18.8653   36.9405   -9.2124 H       1  UNL1        0.0313
     60 H          19.2643   37.5282   -7.6188 H       1  UNL1        0.0313
     61 H          16.5069   36.8405   -9.4173 H       1  UNL1        0.0620
     62 H          14.2757   37.9129   -9.2583 H       1  UNL1        0.0618
     63 H          14.0427   40.1529   -8.2351 H       1  UNL1        0.0621
     64 H          18.2589   40.1910   -7.3590 H       1  UNL1        0.0623
     65 H          14.9778   42.1565   -7.3938 H       1  UNL1        0.0549
     66 H          16.0600   41.7433   -6.1000 H       1  UNL1        0.0549
     67 H          16.7555   41.9338   -9.9751 H       1  UNL1        0.0507
     68 H          15.8487   43.4064   -9.8069 H       1  UNL1        0.0507
     69 H          19.4157   42.2415   -9.2165 H       1  UNL1        0.1491
     70 H          19.0300   45.5587  -10.6936 H       1  UNL1        0.0237
     71 H          18.9438   44.9198   -9.0616 H       1  UNL1        0.0237
     72 H          17.5547   45.7529   -9.7623 H       1  UNL1        0.0237
     73 H          17.9693   40.1668  -10.6686 H       1  UNL1        0.0232
     74 H          17.8488   38.5104  -11.2385 H       1  UNL1        0.0232
     75 H          18.4871   39.7470  -12.2978 H       1  UNL1        0.0232
     76 H          22.4524   43.3793   -9.1904 H       1  UNL1        0.2099
@<TRIPOS>BOND
     1     1     2    1
     2     1    40    1
     3     1    41    1
     4     1    42    1
     5     2     3    1
     6     2    43    1
     7     2    44    1
     8     3     4    1
     9     3    45    1
    10     3    46    1
    11     4     5    1
    12     4    47    1
    13     4    48    1
    14     5     6   am
    15     5    49    1
    16     6     7    2
    17     6     8    1
    18     8    35    1
    19     8     9    1
    20     8    10    1
    21     9    50    1
    22     9    51    1
    23     9    52    1
    24    10    11    1
    25    10    53    1
    26    10    54    1
    27    11    36    1
    28    11    12    1
    29    11    34    1
    30    12    37    1
    31    12    31    1
    32    12    13    1
    33    13    14    1
    34    13    55    1
    35    13    56    1
    36    14    38    1
    37    14    15    1
    38    14    33    1
    39    15    16    1
    40    15    57    1
    41    15    58    1
    42    16    17    1
    43    16    59    1
    44    16    60    1
    45    17    22   ar
    46    17    18   ar
    47    18    19   ar
    48    18    61    1
    49    19    20   ar
    50    19    62    1
    51    20    21   ar
    52    20    63    1
    53    21    22   ar
    54    21    23    1
    55    22    64    1
    56    23    24    1
    57    23    65    1
    58    23    66    1
    59    24    25    2
    60    24    26    2
    61    24    27    1
    62    27    28    1
    63    27    67    1
    64    27    68    1
    65    28    39    1
    66    28    29    1
    67    28    32    1
    68    29    30    2
    69    29    31   am
    70    31    69    1
    71    32    70    1
    72    32    71    1
    73    32    72    1
    74    33    73    1
    75    33    74    1
    76    33    75    1
    77    34    76    1
