@<TRIPOS>MOLECULE
BACE_4.smi:1
 89 91 0 0 0
SMALL
GASTEIGER
****
Structure written by MMmdl.
@<TRIPOS>ATOM
      1 C          21.8015   44.5538   -4.8389 C.3     1  UNL1       -0.0624
      2 C          22.8852   43.5563   -5.2683 C.3     1  UNL1       -0.0421
      3 C          23.6200   43.8694   -6.6062 C.3     1  UNL1       -0.0504
      4 C          23.5257   45.3001   -7.1730 C.3     1  UNL1       -0.0528
      5 C          24.2436   46.3980   -6.3666 C.3     1  UNL1       -0.0530
      6 C          24.1103   47.8093   -6.9816 C.3     1  UNL1       -0.0510
      7 C          22.6739   48.2745   -7.3033 C.3     1  UNL1       -0.0294
      8 C          21.7013   48.2547   -6.1100 C.3     1  UNL1        0.0483
      9 O          20.4183   48.8001   -6.4162 O.3     1  UNL1       -0.3706
     10 C          19.6057   48.0894   -7.3536 C.3     1  UNL1        0.1238
     11 C          19.1840   46.6959   -6.8270 C.2     1  UNL1        0.2417
     12 O          18.8585   46.6158   -5.6405 O.2     1  UNL1       -0.2731
     13 N          19.1995   45.6142   -7.6556 N.am    1  UNL1       -0.2914
     14 C          18.9076   44.2451   -7.1472 C.3     1  UNL1        0.0991
     15 C          20.0136   43.2056   -7.4126 C.2     1  UNL1        0.2336
     16 O          20.6304   43.1666   -8.4758 O.2     1  UNL1       -0.2738
     17 N          20.2721   42.3723   -6.3987 N.am    1  UNL1       -0.3084
     18 C          21.4475   41.5175   -6.2629 C.3     1  UNL1        0.0505
     19 C          22.3781   42.0937   -5.1512 C.3     1  UNL1       -0.0295
     20 C          20.9870   40.0667   -5.9687 C.3     1  UNL1        0.0859
     21 C          20.5645   39.2732   -7.2170 C.3     1  UNL1        0.0245
     22 N          19.2661   39.7152   -7.7075 N.3     1  UNL1       -0.3042
     23 C          18.7570   39.1288   -8.9504 C.3     1  UNL1        0.0447
     24 C          19.3208   37.8277   -9.4930 C.3     1  UNL1       -0.0285
     25 C          19.6159   39.1320  -10.1974 C.3     1  UNL1       -0.0285
     26 C          17.2934   39.4026   -9.0584 C.ar    1  UNL1       -0.0271
     27 C          16.3689   38.5368   -8.4429 C.ar    1  UNL1       -0.0568
     28 C          14.9929   38.8043   -8.5159 C.ar    1  UNL1       -0.0612
     29 C          14.5350   39.9378   -9.2092 C.ar    1  UNL1       -0.0580
     30 C          15.4429   40.8414   -9.8134 C.ar    1  UNL1       -0.0417
     31 C          16.8269   40.5561   -9.7206 C.ar    1  UNL1       -0.0531
     32 C          14.9167   42.0965  -10.5331 C.3     1  UNL1       -0.0127
     33 C          14.4191   43.1149   -9.4928 C.3     1  UNL1       -0.0560
     34 C          15.9942   42.7677  -11.4186 C.3     1  UNL1       -0.0560
     35 C          13.7241   41.7149  -11.4284 C.3     1  UNL1       -0.0560
     36 O          22.0598   39.3517   -5.4083 O.3     1  UNL1       -0.3887
     37 C          17.5192   43.7712   -7.6012 C.3     1  UNL1       -0.0379
     38 C          19.4552   45.7652   -9.0960 C.3     1  UNL1        0.0040
     39 H          23.6492   43.6426   -4.4918 H       1  UNL1        0.0299
     40 H          18.8351   44.2829   -6.0596 H       1  UNL1        0.0594
     41 H          22.0116   41.4839   -7.1962 H       1  UNL1        0.0524
     42 H          20.1846   40.0644   -5.2317 H       1  UNL1        0.0624
     43 H          22.2437   45.4599   -4.4409 H       1  UNL1        0.0232
     44 H          21.1651   44.1457   -4.0542 H       1  UNL1        0.0232
     45 H          21.1585   44.8529   -5.6529 H       1  UNL1        0.0232
     46 H          24.6684   43.5805   -6.5112 H       1  UNL1        0.0268
     47 H          23.2320   43.2263   -7.3935 H       1  UNL1        0.0268
     48 H          22.4781   45.5491   -7.3218 H       1  UNL1        0.0265
     49 H          23.9546   45.2868   -8.1756 H       1  UNL1        0.0265
     50 H          23.8910   46.4264   -5.3437 H       1  UNL1        0.0265
     51 H          25.2972   46.1440   -6.2887 H       1  UNL1        0.0265
     52 H          24.6914   47.8378   -7.9032 H       1  UNL1        0.0266
     53 H          24.5791   48.5293   -6.3101 H       1  UNL1        0.0266
     54 H          22.7146   49.2882   -7.7001 H       1  UNL1        0.0287
     55 H          22.2906   47.6615   -8.1153 H       1  UNL1        0.0287
     56 H          22.1146   48.8550   -5.3004 H       1  UNL1        0.0560
     57 H          21.5994   47.2517   -5.7031 H       1  UNL1        0.0560
     58 H          20.1103   48.0703   -8.3179 H       1  UNL1        0.0657
     59 H          18.6953   48.6654   -7.5027 H       1  UNL1        0.0657
     60 H          19.6399   42.3851   -5.6101 H       1  UNL1        0.1491
     61 H          21.8857   41.9651   -4.1861 H       1  UNL1        0.0286
     62 H          23.2601   41.4667   -5.0863 H       1  UNL1        0.0286
     63 H          20.4978   38.2120   -6.9674 H       1  UNL1        0.0450
     64 H          21.3276   39.3716   -7.9903 H       1  UNL1        0.0450
     65 H          19.2959   40.7240   -7.8119 H       1  UNL1        0.1229
     66 H          20.1678   37.3505   -9.0084 H       1  UNL1        0.0287
     67 H          18.6286   37.1478   -9.9890 H       1  UNL1        0.0287
     68 H          19.1267   39.2887  -11.1578 H       1  UNL1        0.0287
     69 H          20.6361   39.5027  -10.1371 H       1  UNL1        0.0287
     70 H          16.7143   37.6708   -7.8939 H       1  UNL1        0.0621
     71 H          14.2873   38.1472   -8.0292 H       1  UNL1        0.0618
     72 H          13.4738   40.1149   -9.2459 H       1  UNL1        0.0620
     73 H          17.5638   41.2207  -10.1433 H       1  UNL1        0.0624
     74 H          13.6322   42.6909   -8.8718 H       1  UNL1        0.0238
     75 H          14.0154   44.0110   -9.9666 H       1  UNL1        0.0238
     76 H          15.2166   43.4251   -8.8212 H       1  UNL1        0.0238
     77 H          16.4607   42.0416  -12.0852 H       1  UNL1        0.0238
     78 H          16.7881   43.2126  -10.8198 H       1  UNL1        0.0238
     79 H          15.5786   43.5701  -12.0309 H       1  UNL1        0.0238
     80 H          13.9720   40.8499  -12.0391 H       1  UNL1        0.0238
     81 H          13.4042   42.5354  -12.0687 H       1  UNL1        0.0238
     82 H          12.8608   41.4352  -10.8278 H       1  UNL1        0.0238
     83 H          21.7730   38.4665   -5.2540 H       1  UNL1        0.2099
     84 H          17.2483   42.8204   -7.1384 H       1  UNL1        0.0252
     85 H          17.4940   43.6328   -8.6808 H       1  UNL1        0.0252
     86 H          16.7510   44.4972   -7.3312 H       1  UNL1        0.0252
     87 H          19.1812   44.8759   -9.6652 H       1  UNL1        0.0429
     88 H          20.5154   45.9601   -9.2693 H       1  UNL1        0.0429
     89 H          18.8666   46.5790   -9.5222 H       1  UNL1        0.0429
@<TRIPOS>BOND
     1     1     2    1
     2     1    43    1
     3     1    44    1
     4     1    45    1
     5     2    39    1
     6     2    19    1
     7     2     3    1
     8     3     4    1
     9     3    46    1
    10     3    47    1
    11     4     5    1
    12     4    48    1
    13     4    49    1
    14     5     6    1
    15     5    50    1
    16     5    51    1
    17     6     7    1
    18     6    52    1
    19     6    53    1
    20     7     8    1
    21     7    54    1
    22     7    55    1
    23     8     9    1
    24     8    56    1
    25     8    57    1
    26     9    10    1
    27    10    11    1
    28    10    58    1
    29    10    59    1
    30    11    12    2
    31    11    13   am
    32    13    14    1
    33    13    38    1
    34    14    40    1
    35    14    15    1
    36    14    37    1
    37    15    16    2
    38    15    17   am
    39    17    18    1
    40    17    60    1
    41    18    41    1
    42    18    19    1
    43    18    20    1
    44    19    61    1
    45    19    62    1
    46    20    42    1
    47    20    21    1
    48    20    36    1
    49    21    22    1
    50    21    63    1
    51    21    64    1
    52    22    23    1
    53    22    65    1
    54    23    25    1
    55    23    24    1
    56    23    26    1
    57    24    25    1
    58    24    66    1
    59    24    67    1
    60    25    68    1
    61    25    69    1
    62    26    31   ar
    63    26    27   ar
    64    27    28   ar
    65    27    70    1
    66    28    29   ar
    67    28    71    1
    68    29    30   ar
    69    29    72    1
    70    30    31   ar
    71    30    32    1
    72    31    73    1
    73    32    33    1
    74    32    34    1
    75    32    35    1
    76    33    74    1
    77    33    75    1
    78    33    76    1
    79    34    77    1
    80    34    78    1
    81    34    79    1
    82    35    80    1
    83    35    81    1
    84    35    82    1
    85    36    83    1
    86    37    84    1
    87    37    85    1
    88    37    86    1
    89    38    87    1
    90    38    88    1
    91    38    89    1
