@<TRIPOS>MOLECULE
BACE_19.smi:1
 76 77 0 0 0
SMALL
GASTEIGER
****
Structure written by MMmdl.
@<TRIPOS>ATOM
      1 C          23.6927   50.0409   -1.4689 C.3     1  UNL1       -0.0652
      2 C          23.2093   51.0224   -2.5415 C.3     1  UNL1       -0.0545
      3 C          22.0800   50.4749   -3.4307 C.3     1  UNL1       -0.0376
      4 C          22.5197   49.3288   -4.3650 C.3     1  UNL1        0.0116
      5 N          21.4587   48.8605   -5.2584 N.am    1  UNL1       -0.3151
      6 C          20.9904   49.5328   -6.3173 C.2     1  UNL1        0.2159
      7 O          21.2601   50.7202   -6.5131 O.2     1  UNL1       -0.2755
      8 C          20.1234   48.7780   -7.3469 C.3     1  UNL1        0.0351
      9 C          18.6267   49.0941   -7.1652 C.3     1  UNL1       -0.0540
     10 C          20.4977   47.2785   -7.5682 C.3     1  UNL1       -0.0143
     11 C          19.5248   46.1972   -7.0285 C.3     1  UNL1        0.0742
     12 C          19.9187   44.7073   -7.2649 C.3     1  UNL1        0.0493
     13 C          21.2502   44.2651   -6.5716 C.3     1  UNL1       -0.0295
     14 C          21.6326   42.7571   -6.5624 C.3     1  UNL1       -0.0418
     15 C          20.4599   41.8296   -6.1449 C.3     1  UNL1       -0.0464
     16 C          20.6684   40.3021   -6.2695 C.3     1  UNL1       -0.0274
     17 C          20.5399   39.7794   -7.6975 C.ar    1  UNL1       -0.0470
     18 C          21.5742   39.0132   -8.2712 C.ar    1  UNL1       -0.0586
     19 C          21.4925   38.6013   -9.6173 C.ar    1  UNL1       -0.0612
     20 C          20.3784   38.9630  -10.3985 C.ar    1  UNL1       -0.0570
     21 C          19.3322   39.7239   -9.8335 C.ar    1  UNL1       -0.0263
     22 C          19.4025   40.0958   -8.4744 C.ar    1  UNL1       -0.0538
     23 C          18.1628   40.1739  -10.6968 C.3     1  UNL1        0.0907
     24 S          18.0749   42.0261  -10.8464 S.O2    1  UNL1       -0.0263
     25 O          17.2727   42.3521  -12.0384 O.2     1  UNL1       -0.1740
     26 O          17.6896   42.5912   -9.5450 O.2     1  UNL1       -0.1740
     27 C          19.8333   42.5177  -11.1792 C.3     1  UNL1        0.0769
     28 C          20.1133   44.0412  -11.0991 C.3     1  UNL1        0.0520
     29 C          20.5723   44.5259   -9.7138 C.2     1  UNL1        0.2177
     30 O          21.6475   45.1201   -9.6103 O.2     1  UNL1       -0.2755
     31 N          19.7662   44.2841   -8.6641 N.am    1  UNL1       -0.3097
     32 C          19.0201   44.9539  -11.6830 C.3     1  UNL1       -0.0526
     33 C          22.3751   42.3321   -7.8401 C.3     1  UNL1       -0.0623
     34 O          19.3344   46.3636   -5.6400 O.3     1  UNL1       -0.3899
     35 H          20.3919   49.2607   -8.2890 H       1  UNL1        0.0392
     36 H          18.5521   46.3583   -7.4961 H       1  UNL1        0.0612
     37 H          19.1171   44.1613   -6.7663 H       1  UNL1        0.0524
     38 H          22.3832   42.6552   -5.7769 H       1  UNL1        0.0299
     39 H          20.9908   44.1936  -11.7290 H       1  UNL1        0.0407
     40 H          24.4529   50.5020   -0.8366 H       1  UNL1        0.0230
     41 H          24.1259   49.1406   -1.9050 H       1  UNL1        0.0230
     42 H          22.8622   49.7470   -0.8307 H       1  UNL1        0.0230
     43 H          22.8474   51.9211   -2.0390 H       1  UNL1        0.0263
     44 H          24.0550   51.3439   -3.1521 H       1  UNL1        0.0263
     45 H          21.2603   50.1488   -2.7948 H       1  UNL1        0.0280
     46 H          21.6811   51.3026   -4.0186 H       1  UNL1        0.0280
     47 H          23.3737   49.6444   -4.9675 H       1  UNL1        0.0462
     48 H          22.8569   48.4741   -3.7779 H       1  UNL1        0.0462
     49 H          21.1574   47.9016   -5.1586 H       1  UNL1        0.1487
     50 H          18.4551   50.1691   -7.1695 H       1  UNL1        0.0237
     51 H          18.2421   48.7050   -6.2210 H       1  UNL1        0.0237
     52 H          18.0310   48.6753   -7.9774 H       1  UNL1        0.0237
     53 H          20.5634   47.1506   -8.6480 H       1  UNL1        0.0298
     54 H          21.5086   47.0753   -7.2134 H       1  UNL1        0.0298
     55 H          22.0818   44.8386   -6.9788 H       1  UNL1        0.0286
     56 H          21.1966   44.5666   -5.5263 H       1  UNL1        0.0286
     57 H          20.2362   42.0490   -5.1000 H       1  UNL1        0.0271
     58 H          19.5523   42.0862   -6.6830 H       1  UNL1        0.0271
     59 H          21.6310   40.0155   -5.8434 H       1  UNL1        0.0313
     60 H          19.9090   39.7900   -5.6769 H       1  UNL1        0.0313
     61 H          22.4469   38.7533   -7.6916 H       1  UNL1        0.0620
     62 H          22.2980   38.0232  -10.0437 H       1  UNL1        0.0618
     63 H          20.3366   38.6635  -11.4358 H       1  UNL1        0.0621
     64 H          18.5942   40.6626   -8.0366 H       1  UNL1        0.0623
     65 H          18.2469   39.7546  -11.7007 H       1  UNL1        0.0549
     66 H          17.2229   39.8175  -10.2701 H       1  UNL1        0.0549
     67 H          20.4738   41.9862  -10.4797 H       1  UNL1        0.0507
     68 H          20.0849   42.1344  -12.1674 H       1  UNL1        0.0507
     69 H          18.9279   43.7463   -8.8676 H       1  UNL1        0.1491
     70 H          19.3394   45.9971  -11.6827 H       1  UNL1        0.0237
     71 H          18.0939   44.8992  -11.1110 H       1  UNL1        0.0237
     72 H          18.7965   44.6829  -12.7146 H       1  UNL1        0.0237
     73 H          21.6912   42.1658   -8.6660 H       1  UNL1        0.0232
     74 H          22.9300   41.4081   -7.6818 H       1  UNL1        0.0232
     75 H          23.1023   43.0826   -8.1525 H       1  UNL1        0.0232
     76 H          20.0691   45.9617   -5.1982 H       1  UNL1        0.2099
@<TRIPOS>BOND
     1     1     2    1
     2     1    40    1
     3     1    41    1
     4     1    42    1
     5     2     3    1
     6     2    43    1
     7     2    44    1
     8     3     4    1
     9     3    45    1
    10     3    46    1
    11     4     5    1
    12     4    47    1
    13     4    48    1
    14     5     6   am
    15     5    49    1
    16     6     7    2
    17     6     8    1
    18     8    35    1
    19     8     9    1
    20     8    10    1
    21     9    50    1
    22     9    51    1
    23     9    52    1
    24    10    11    1
    25    10    53    1
    26    10    54    1
    27    11    36    1
    28    11    12    1
    29    11    34    1
    30    12    37    1
    31    12    31    1
    32    12    13    1
    33    13    14    1
    34    13    55    1
    35    13    56    1
    36    14    38    1
    37    14    15    1
    38    14    33    1
    39    15    16    1
    40    15    57    1
    41    15    58    1
    42    16    17    1
    43    16    59    1
    44    16    60    1
    45    17    22   ar
    46    17    18   ar
    47    18    19   ar
    48    18    61    1
    49    19    20   ar
    50    19    62    1
    51    20    21   ar
    52    20    63    1
    53    21    22   ar
    54    21    23    1
    55    22    64    1
    56    23    24    1
    57    23    65    1
    58    23    66    1
    59    24    25    2
    60    24    26    2
    61    24    27    1
    62    27    28    1
    63    27    67    1
    64    27    68    1
    65    28    39    1
    66    28    29    1
    67    28    32    1
    68    29    30    2
    69    29    31   am
    70    31    69    1
    71    32    70    1
    72    32    71    1
    73    32    72    1
    74    33    73    1
    75    33    74    1
    76    33    75    1
    77    34    76    1
