@<TRIPOS>MOLECULE
BACE_10.smi:1
 86 88 0 0 0
SMALL
GASTEIGER
****
Structure written by MMmdl.
@<TRIPOS>ATOM
      1 C          20.8722   38.5990   -7.2491 C.3     1  UNL1       -0.0623
      2 C          20.2094   39.4491   -8.3471 C.3     1  UNL1       -0.0400
      3 C          19.4980   38.5464   -9.3876 C.3     1  UNL1       -0.0268
      4 C          18.1714   37.9515   -8.8916 C.3     1  UNL1        0.0479
      5 O          17.3446   39.0386   -8.5140 O.3     1  UNL1       -0.3797
      6 C          16.0139   38.6795   -8.1940 C.3     1  UNL1        0.0477
      7 C          15.4055   39.7931   -7.3313 C.3     1  UNL1       -0.0281
      8 C          15.5777   41.2025   -7.9235 C.3     1  UNL1       -0.0354
      9 C          14.9536   41.3534   -9.3182 C.3     1  UNL1        0.0092
     10 N          15.1462   42.6894   -9.8567 N.pl3   1  UNL1       -0.3438
     11 C          16.2852   43.0556  -10.5913 C.ar    1  UNL1        0.0282
     12 C          16.3032   44.3526  -11.1433 C.ar    1  UNL1       -0.0355
     13 C          17.3723   44.7762  -11.9541 C.ar    1  UNL1       -0.0195
     14 C          18.4416   43.8966  -12.2049 C.ar    1  UNL1       -0.0442
     15 C          18.4534   42.6007  -11.6503 C.ar    1  UNL1        0.0388
     16 C          17.3799   42.1869  -10.8303 C.ar    1  UNL1       -0.0287
     17 C          19.5393   41.6472  -12.0551 C.2     1  UNL1        0.2444
     18 O          19.6608   41.3503  -13.2391 O.2     1  UNL1       -0.2702
     19 N          20.3789   41.1352  -11.1417 N.am    1  UNL1       -0.3058
     20 C          20.6634   41.6005   -9.7860 C.3     1  UNL1        0.0545
     21 C          21.2456   40.4199   -8.9595 C.3     1  UNL1       -0.0292
     22 C          21.6465   42.8165   -9.8074 C.3     1  UNL1        0.1130
     23 C          22.7273   42.8387  -10.9215 C.3     1  UNL1       -0.0050
     24 N          23.6963   41.7235  -10.8202 N.4     1  UNL1        0.2321
     25 C          24.7474   41.8327   -9.7803 C.3     1  UNL1       -0.0076
     26 C          25.8446   42.8074  -10.1601 C.ar    1  UNL1       -0.0027
     27 C          25.7128   44.1822   -9.8646 C.ar    1  UNL1       -0.0535
     28 C          26.7269   45.0826  -10.2291 C.ar    1  UNL1       -0.0611
     29 C          27.8879   44.6155  -10.8710 C.ar    1  UNL1       -0.0583
     30 C          28.0494   43.2389  -11.1466 C.ar    1  UNL1       -0.0444
     31 C          27.0197   42.3399  -10.7885 C.ar    1  UNL1       -0.0501
     32 C          29.3538   42.7625  -11.7772 C.3     1  UNL1       -0.0215
     33 C          29.1952   41.5510  -12.7143 C.3     1  UNL1       -0.0586
     34 C          30.4083   42.5019  -10.6943 C.3     1  UNL1       -0.0586
     35 O          20.8849   44.0020   -9.8974 O.3     1  UNL1       -0.3847
     36 C          17.3773   46.1706  -12.5471 C.3     1  UNL1        0.0724
     37 O          16.0721   46.5967  -12.9170 O.3     1  UNL1       -0.3784
     38 C          16.0706   47.8832  -13.5034 C.3     1  UNL1        0.0369
     39 H          19.4617   40.0714   -7.8505 H       1  UNL1        0.0299
     40 H          19.7382   41.9091   -9.2930 H       1  UNL1        0.0526
     41 H          22.1364   42.8962   -8.8362 H       1  UNL1        0.0666
     42 H          21.6543   37.9604   -7.6619 H       1  UNL1        0.0232
     43 H          20.1463   37.9658   -6.7390 H       1  UNL1        0.0232
     44 H          21.3320   39.2275   -6.4840 H       1  UNL1        0.0232
     45 H          19.2457   39.1098  -10.2804 H       1  UNL1        0.0290
     46 H          20.1686   37.7512   -9.7182 H       1  UNL1        0.0290
     47 H          17.7008   37.3775   -9.6939 H       1  UNL1        0.0560
     48 H          18.3238   37.2752   -8.0477 H       1  UNL1        0.0560
     49 H          15.4445   38.5233   -9.1097 H       1  UNL1        0.0560
     50 H          15.9849   37.7487   -7.6400 H       1  UNL1        0.0560
     51 H          14.3473   39.5849   -7.1609 H       1  UNL1        0.0288
     52 H          15.8705   39.7722   -6.3441 H       1  UNL1        0.0288
     53 H          15.1268   41.9208   -7.2403 H       1  UNL1        0.0281
     54 H          16.6373   41.4522   -7.9596 H       1  UNL1        0.0281
     55 H          15.3443   40.6114  -10.0110 H       1  UNL1        0.0461
     56 H          13.8813   41.1623   -9.2548 H       1  UNL1        0.0461
     57 H          14.4141   43.3645   -9.6920 H       1  UNL1        0.1461
     58 H          15.4800   45.0272  -10.9596 H       1  UNL1        0.0639
     59 H          19.2526   44.2183  -12.8375 H       1  UNL1        0.0628
     60 H          17.3922   41.1846  -10.4218 H       1  UNL1        0.0643
     61 H          20.9794   40.4050  -11.4927 H       1  UNL1        0.1494
     62 H          21.8028   40.8410   -8.1228 H       1  UNL1        0.0286
     63 H          21.9829   39.8563   -9.5328 H       1  UNL1        0.0286
     64 H          22.2573   42.7854  -11.9041 H       1  UNL1        0.0840
     65 H          23.2569   43.7905  -10.9248 H       1  UNL1        0.0840
     66 H          23.1725   40.8792  -10.6376 H       1  UNL1        0.2018
     67 H          24.3183   42.0999   -8.8131 H       1  UNL1        0.0866
     68 H          25.1889   40.8434   -9.6488 H       1  UNL1        0.0866
     69 H          24.8335   44.5512   -9.3571 H       1  UNL1        0.0622
     70 H          26.6215   46.1351  -10.0070 H       1  UNL1        0.0618
     71 H          28.6669   45.3168  -11.1332 H       1  UNL1        0.0620
     72 H          27.1324   41.2826  -10.9756 H       1  UNL1        0.0625
     73 H          29.7228   43.5786  -12.4009 H       1  UNL1        0.0343
     74 H          28.4601   41.7616  -13.4884 H       1  UNL1        0.0235
     75 H          28.8869   40.6495  -12.1843 H       1  UNL1        0.0235
     76 H          30.1341   41.3187  -13.2198 H       1  UNL1        0.0235
     77 H          30.6240   43.4079  -10.1287 H       1  UNL1        0.0235
     78 H          31.3447   42.1504  -11.1293 H       1  UNL1        0.0235
     79 H          30.0588   41.7531   -9.9857 H       1  UNL1        0.0235
     80 H          21.4040   44.7339   -9.5979 H       1  UNL1        0.2101
     81 H          17.7961   46.8573  -11.8105 H       1  UNL1        0.0610
     82 H          18.0314   46.1899  -13.4188 H       1  UNL1        0.0610
     83 H          15.0548   48.1612  -13.7837 H       1  UNL1        0.0524
     84 H          16.6870   47.9068  -14.4035 H       1  UNL1        0.0524
     85 H          16.4443   48.6339  -12.8038 H       1  UNL1        0.0524
     86 H          24.1357   41.5883  -11.7280 H       1  UNL1        0.2018
@<TRIPOS>BOND
     1     1     2    1
     2     1    42    1
     3     1    43    1
     4     1    44    1
     5     2    39    1
     6     2    21    1
     7     2     3    1
     8     3     4    1
     9     3    45    1
    10     3    46    1
    11     4     5    1
    12     4    47    1
    13     4    48    1
    14     5     6    1
    15     6     7    1
    16     6    49    1
    17     6    50    1
    18     7     8    1
    19     7    51    1
    20     7    52    1
    21     8     9    1
    22     8    53    1
    23     8    54    1
    24     9    10    1
    25     9    55    1
    26     9    56    1
    27    10    11    1
    28    10    57    1
    29    11    16   ar
    30    11    12   ar
    31    12    13   ar
    32    12    58    1
    33    13    14   ar
    34    13    36    1
    35    14    15   ar
    36    14    59    1
    37    15    16   ar
    38    15    17    1
    39    16    60    1
    40    17    18    2
    41    17    19   am
    42    19    20    1
    43    19    61    1
    44    20    40    1
    45    20    21    1
    46    20    22    1
    47    21    62    1
    48    21    63    1
    49    22    41    1
    50    22    23    1
    51    22    35    1
    52    23    24    1
    53    23    64    1
    54    23    65    1
    55    24    25    1
    56    24    66    1
    57    24    86    1
    58    25    26    1
    59    25    67    1
    60    25    68    1
    61    26    31   ar
    62    26    27   ar
    63    27    28   ar
    64    27    69    1
    65    28    29   ar
    66    28    70    1
    67    29    30   ar
    68    29    71    1
    69    30    31   ar
    70    30    32    1
    71    31    72    1
    72    32    33    1
    73    32    34    1
    74    32    73    1
    75    33    74    1
    76    33    75    1
    77    33    76    1
    78    34    77    1
    79    34    78    1
    80    34    79    1
    81    35    80    1
    82    36    37    1
    83    36    81    1
    84    36    82    1
    85    37    38    1
    86    38    83    1
    87    38    84    1
    88    38    85    1
