@<TRIPOS>MOLECULE
BACE_3.smi:1
 86 87 0 0 0
SMALL
GASTEIGER
****
Structure written by MMmdl.
@<TRIPOS>ATOM
      1 C          25.8781   43.5073  -10.2003 C.ar    1  UNL1       -0.0535
      2 C          26.8032   44.5552  -10.3667 C.ar    1  UNL1       -0.0611
      3 C          28.0609   44.3022  -10.9475 C.ar    1  UNL1       -0.0583
      4 C          28.4055   42.9981  -11.3679 C.ar    1  UNL1       -0.0444
      5 C          29.7729   42.7371  -11.9970 C.3     1  UNL1       -0.0215
      6 C          30.6671   41.8665  -11.0964 C.3     1  UNL1       -0.0586
      7 C          29.6547   42.1590  -13.4184 C.3     1  UNL1       -0.0586
      8 C          27.4701   41.9506  -11.1971 C.ar    1  UNL1       -0.0501
      9 C          26.2084   42.2000  -10.6146 C.ar    1  UNL1       -0.0027
     10 C          25.2124   41.0683  -10.4350 C.3     1  UNL1       -0.0075
     11 N          23.8509   41.4994  -10.8127 N.4     1  UNL1        0.2341
     12 C          22.7691   40.8829  -10.0101 C.3     1  UNL1        0.0236
     13 C          22.9055   41.1832   -8.4935 C.3     1  UNL1        0.2249
     14 O          23.9004   42.1791   -8.3294 O.3     1  UNL1       -0.3594
     15 O          23.2577   39.9565   -7.8762 O.3     1  UNL1       -0.3594
     16 C          21.6061   41.6631   -7.8533 C.3     1  UNL1        0.0822
     17 N          20.8654   42.4810   -8.8174 N.am    1  UNL1       -0.3056
     18 C          19.8799   43.3418   -8.5303 C.2     1  UNL1        0.2337
     19 O          19.5227   43.5720   -7.3867 O.2     1  UNL1       -0.2738
     20 C          19.2381   44.0719   -9.7306 C.3     1  UNL1        0.0991
     21 C          19.7092   45.5228   -9.6905 C.3     1  UNL1       -0.0379
     22 C          20.7881   40.4458   -7.3700 C.3     1  UNL1       -0.0267
     23 C          20.4467   39.4212   -8.4746 C.3     1  UNL1       -0.0420
     24 C          19.6164   40.0824   -9.5710 C.3     1  UNL1       -0.0624
     25 C          19.7288   38.1585   -7.9508 C.3     1  UNL1       -0.0504
     26 C          18.2690   38.3701   -7.4942 C.3     1  UNL1       -0.0528
     27 C          17.2843   38.6163   -8.6555 C.3     1  UNL1       -0.0530
     28 C          15.8060   38.7157   -8.2207 C.3     1  UNL1       -0.0531
     29 C          15.4506   39.9202   -7.3180 C.3     1  UNL1       -0.0530
     30 C          15.8219   41.3084   -7.8806 C.3     1  UNL1       -0.0526
     31 C          15.1271   41.6628   -9.2157 C.3     1  UNL1       -0.0448
     32 C          15.5464   43.0340   -9.8025 C.3     1  UNL1        0.0242
     33 C          17.0204   43.1036  -10.2167 C.2     1  UNL1        0.2159
     34 O          17.4551   42.3105  -11.0355 O.2     1  UNL1       -0.2756
     35 N          17.7645   44.0454   -9.6193 N.am    1  UNL1       -0.2932
     36 C          17.1073   44.9083   -8.6586 C.3     1  UNL1        0.0039
     37 H          21.9065   42.2687   -6.9982 H       1  UNL1        0.0553
     38 H          19.5978   43.6687  -10.6773 H       1  UNL1        0.0594
     39 H          21.3733   39.1118   -8.9580 H       1  UNL1        0.0299
     40 H          24.9157   43.7125   -9.7543 H       1  UNL1        0.0622
     41 H          26.5478   45.5552  -10.0485 H       1  UNL1        0.0618
     42 H          28.7575   45.1193  -11.0668 H       1  UNL1        0.0620
     43 H          30.2770   43.6995  -12.0955 H       1  UNL1        0.0343
     44 H          30.7930   42.3201  -10.1127 H       1  UNL1        0.0235
     45 H          31.6614   41.7489  -11.5285 H       1  UNL1        0.0235
     46 H          30.2541   40.8678  -10.9518 H       1  UNL1        0.0235
     47 H          29.0711   42.8177  -14.0624 H       1  UNL1        0.0235
     48 H          29.1764   41.1792  -13.4237 H       1  UNL1        0.0235
     49 H          30.6372   42.0447  -13.8774 H       1  UNL1        0.0235
     50 H          27.7179   40.9480  -11.5141 H       1  UNL1        0.0625
     51 H          25.2201   40.7354   -9.3961 H       1  UNL1        0.0866
     52 H          25.5136   40.2151  -11.0448 H       1  UNL1        0.0866
     53 H          23.7005   41.2672  -11.7840 H       1  UNL1        0.2019
     54 H          22.7795   39.8049  -10.1797 H       1  UNL1        0.0868
     55 H          21.8217   41.2584  -10.3967 H       1  UNL1        0.0868
     56 H          24.7101   41.8575   -8.6952 H       1  UNL1        0.2130
     57 H          23.7875   39.4580   -8.4793 H       1  UNL1        0.2130
     58 H          21.1086   42.3709   -9.7915 H       1  UNL1        0.1492
     59 H          20.7914   45.5901   -9.8104 H       1  UNL1        0.0252
     60 H          19.4537   46.0127   -8.7505 H       1  UNL1        0.0252
     61 H          19.2612   46.1053  -10.4963 H       1  UNL1        0.0252
     62 H          21.3586   39.9446   -6.5881 H       1  UNL1        0.0287
     63 H          19.8775   40.7957   -6.8838 H       1  UNL1        0.0287
     64 H          19.3814   39.3868  -10.3760 H       1  UNL1        0.0232
     65 H          20.1437   40.9174  -10.0309 H       1  UNL1        0.0232
     66 H          18.6710   40.4634   -9.1830 H       1  UNL1        0.0232
     67 H          19.7484   37.3902   -8.7237 H       1  UNL1        0.0268
     68 H          20.3046   37.7432   -7.1238 H       1  UNL1        0.0268
     69 H          18.2171   39.1861   -6.7734 H       1  UNL1        0.0265
     70 H          17.9474   37.4811   -6.9515 H       1  UNL1        0.0265
     71 H          17.5664   39.5122   -9.2086 H       1  UNL1        0.0265
     72 H          17.3746   37.7977   -9.3695 H       1  UNL1        0.0265
     73 H          15.5225   37.7961   -7.7089 H       1  UNL1        0.0265
     74 H          15.1804   38.7425   -9.1129 H       1  UNL1        0.0265
     75 H          14.3819   39.8967   -7.1052 H       1  UNL1        0.0265
     76 H          15.9360   39.7946   -6.3502 H       1  UNL1        0.0265
     77 H          16.9049   41.3681   -7.9888 H       1  UNL1        0.0265
     78 H          15.5675   42.0655   -7.1389 H       1  UNL1        0.0265
     79 H          15.3150   40.8869   -9.9579 H       1  UNL1        0.0270
     80 H          14.0479   41.6594   -9.0626 H       1  UNL1        0.0270
     81 H          15.3056   43.8269   -9.0944 H       1  UNL1        0.0358
     82 H          14.9548   43.2520  -10.6916 H       1  UNL1        0.0358
     83 H          17.7130   45.7591   -8.3537 H       1  UNL1        0.0429
     84 H          16.8391   44.3594   -7.7550 H       1  UNL1        0.0429
     85 H          16.2060   45.3544   -9.0808 H       1  UNL1        0.0429
     86 H          23.7945   42.5024  -10.7082 H       1  UNL1        0.2019
@<TRIPOS>BOND
     1     1     9   ar
     2     1     2   ar
     3     1    40    1
     4     2     3   ar
     5     2    41    1
     6     3     4   ar
     7     3    42    1
     8     4     5    1
     9     4     8   ar
    10     5     6    1
    11     5     7    1
    12     5    43    1
    13     6    44    1
    14     6    45    1
    15     6    46    1
    16     7    47    1
    17     7    48    1
    18     7    49    1
    19     8     9   ar
    20     8    50    1
    21     9    10    1
    22    10    11    1
    23    10    51    1
    24    10    52    1
    25    11    12    1
    26    11    53    1
    27    11    86    1
    28    12    13    1
    29    12    54    1
    30    12    55    1
    31    13    14    1
    32    13    15    1
    33    13    16    1
    34    14    56    1
    35    15    57    1
    36    16    37    1
    37    16    17    1
    38    16    22    1
    39    17    18   am
    40    17    58    1
    41    18    19    2
    42    18    20    1
    43    20    38    1
    44    20    35    1
    45    20    21    1
    46    21    59    1
    47    21    60    1
    48    21    61    1
    49    22    23    1
    50    22    62    1
    51    22    63    1
    52    23    39    1
    53    23    24    1
    54    23    25    1
    55    24    64    1
    56    24    65    1
    57    24    66    1
    58    25    26    1
    59    25    67    1
    60    25    68    1
    61    26    27    1
    62    26    69    1
    63    26    70    1
    64    27    28    1
    65    27    71    1
    66    27    72    1
    67    28    29    1
    68    28    73    1
    69    28    74    1
    70    29    30    1
    71    29    75    1
    72    29    76    1
    73    30    31    1
    74    30    77    1
    75    30    78    1
    76    31    32    1
    77    31    79    1
    78    31    80    1
    79    32    33    1
    80    32    81    1
    81    32    82    1
    82    33    34    2
    83    33    35   am
    84    35    36    1
    85    36    83    1
    86    36    84    1
    87    36    85    1
