@<TRIPOS>MOLECULE
BACE_6.smi:1
 83 85 0 0 0
SMALL
GASTEIGER
****
Structure written by MMmdl.
@<TRIPOS>ATOM
      1 C          16.9515   51.8343   -9.5245 C.3     1  UNL1       -0.0493
      2 C          17.9804   50.9266  -10.2173 C.3     1  UNL1        0.0121
      3 N          17.7672   49.5068   -9.8849 N.am    1  UNL1       -0.2978
      4 C          16.9331   48.7904  -10.8718 C.3     1  UNL1        0.0150
      5 C          17.6219   47.6495  -11.6505 C.3     1  UNL1       -0.0371
      6 C          16.7515   47.0915  -12.7979 C.3     1  UNL1       -0.0516
      7 C          15.4197   46.4171  -12.3881 C.3     1  UNL1       -0.0528
      8 C          15.5436   44.9324  -11.9899 C.3     1  UNL1       -0.0504
      9 C          14.2275   44.2818  -11.4709 C.3     1  UNL1       -0.0421
     10 C          14.4467   42.8202  -10.9814 C.3     1  UNL1       -0.0293
     11 C          14.6954   42.6151   -9.4618 C.3     1  UNL1        0.0545
     12 N          15.8002   43.4729   -9.0349 N.am    1  UNL1       -0.3058
     13 C          15.6980   44.6573   -8.4087 C.2     1  UNL1        0.2444
     14 O          14.6306   45.1534   -8.0434 O.2     1  UNL1       -0.2702
     15 C          16.9887   45.4126   -8.2849 C.ar    1  UNL1        0.0374
     16 C          18.2077   44.7476   -8.0274 C.ar    1  UNL1       -0.0496
     17 C          19.4122   45.4709   -7.9450 C.ar    1  UNL1       -0.0603
     18 C          19.4106   46.8601   -8.1594 C.ar    1  UNL1       -0.0496
     19 C          18.2059   47.5387   -8.4417 C.ar    1  UNL1        0.0376
     20 C          16.9937   46.8139   -8.4401 C.ar    1  UNL1       -0.0375
     21 C          18.2524   49.0161   -8.7087 C.2     1  UNL1        0.2466
     22 O          18.8090   49.7322   -7.8742 O.2     1  UNL1       -0.2700
     23 C          15.0336   41.1341   -9.1238 C.3     1  UNL1        0.1130
     24 C          15.2345   40.8352   -7.6051 C.3     1  UNL1       -0.0050
     25 N          16.5157   40.1490   -7.3212 N.4     1  UNL1        0.2321
     26 C          17.6963   40.9790   -7.6514 C.3     1  UNL1       -0.0076
     27 C          19.0040   40.2252   -7.6491 C.ar    1  UNL1       -0.0027
     28 C          19.2183   39.1516   -8.5393 C.ar    1  UNL1       -0.0535
     29 C          20.4876   38.5493   -8.6168 C.ar    1  UNL1       -0.0611
     30 C          21.5444   39.0219   -7.8160 C.ar    1  UNL1       -0.0583
     31 C          21.3366   40.1000   -6.9285 C.ar    1  UNL1       -0.0444
     32 C          20.0598   40.6853   -6.8401 C.ar    1  UNL1       -0.0501
     33 C          22.4870   40.6566   -6.1072 C.3     1  UNL1       -0.0215
     34 C          22.3046   40.3893   -4.6057 C.3     1  UNL1       -0.0586
     35 C          22.7317   42.1531   -6.3960 C.3     1  UNL1       -0.0586
     36 O          14.0600   40.2562   -9.6371 O.3     1  UNL1       -0.3847
     37 C          13.1002   44.3207  -12.5232 C.3     1  UNL1       -0.0624
     38 H          13.8656   44.8699  -10.6305 H       1  UNL1        0.0299
     39 H          13.7871   42.8893   -8.9220 H       1  UNL1        0.0526
     40 H          15.9183   40.8582   -9.6972 H       1  UNL1        0.0666
     41 H          17.1253   52.8799   -9.7841 H       1  UNL1        0.0245
     42 H          17.0125   51.7482   -8.4407 H       1  UNL1        0.0245
     43 H          15.9338   51.5857   -9.8287 H       1  UNL1        0.0245
     44 H          17.9495   51.0857  -11.2954 H       1  UNL1        0.0462
     45 H          18.9888   51.2317   -9.9272 H       1  UNL1        0.0462
     46 H          16.0593   48.4154  -10.3576 H       1  UNL1        0.0464
     47 H          16.5243   49.4936  -11.5966 H       1  UNL1        0.0464
     48 H          18.5496   48.0296  -12.0774 H       1  UNL1        0.0280
     49 H          17.9144   46.8312  -10.9985 H       1  UNL1        0.0280
     50 H          16.5271   47.9135  -13.4778 H       1  UNL1        0.0266
     51 H          17.3449   46.3887  -13.3827 H       1  UNL1        0.0266
     52 H          14.9315   46.9719  -11.5928 H       1  UNL1        0.0265
     53 H          14.7470   46.4912  -13.2419 H       1  UNL1        0.0265
     54 H          15.9211   44.3652  -12.8397 H       1  UNL1        0.0268
     55 H          16.3172   44.8567  -11.2282 H       1  UNL1        0.0268
     56 H          13.5677   42.2277  -11.2396 H       1  UNL1        0.0286
     57 H          15.2617   42.3695  -11.5449 H       1  UNL1        0.0286
     58 H          16.7244   43.2071   -9.3412 H       1  UNL1        0.1494
     59 H          18.2424   43.6823   -7.8884 H       1  UNL1        0.0625
     60 H          20.3388   44.9541   -7.7402 H       1  UNL1        0.0618
     61 H          20.3459   47.4010   -8.1252 H       1  UNL1        0.0625
     62 H          16.0592   47.3247   -8.5939 H       1  UNL1        0.0633
     63 H          15.2029   41.7485   -7.0118 H       1  UNL1        0.0840
     64 H          14.4314   40.2077   -7.2126 H       1  UNL1        0.0840
     65 H          16.5513   39.9316   -6.3339 H       1  UNL1        0.2018
     66 H          17.6331   41.4095   -8.6461 H       1  UNL1        0.0866
     67 H          17.7335   41.8311   -6.9776 H       1  UNL1        0.0866
     68 H          18.4249   38.8021   -9.1829 H       1  UNL1        0.0622
     69 H          20.6586   37.7321   -9.3017 H       1  UNL1        0.0618
     70 H          22.5170   38.5607   -7.9043 H       1  UNL1        0.0620
     71 H          19.9006   41.5187   -6.1719 H       1  UNL1        0.0625
     72 H          23.3653   40.1087   -6.4320 H       1  UNL1        0.0343
     73 H          22.1928   39.3236   -4.4091 H       1  UNL1        0.0235
     74 H          21.4220   40.8938   -4.2101 H       1  UNL1        0.0235
     75 H          23.1669   40.7389   -4.0370 H       1  UNL1        0.0235
     76 H          22.9047   42.3203   -7.4591 H       1  UNL1        0.0235
     77 H          23.6010   42.5428   -5.8604 H       1  UNL1        0.0235
     78 H          21.8801   42.7654   -6.0999 H       1  UNL1        0.0235
     79 H          13.2406   40.3785   -9.1611 H       1  UNL1        0.2101
     80 H          13.3554   43.7504  -13.4157 H       1  UNL1        0.0232
     81 H          12.8598   45.3375  -12.8317 H       1  UNL1        0.0232
     82 H          12.1807   43.8951  -12.1230 H       1  UNL1        0.0232
     83 H          16.5440   39.2800   -7.8347 H       1  UNL1        0.2018
@<TRIPOS>BOND
     1     1     2    1
     2     1    41    1
     3     1    42    1
     4     1    43    1
     5     2     3    1
     6     2    44    1
     7     2    45    1
     8     3    21   am
     9     3     4    1
    10     4     5    1
    11     4    46    1
    12     4    47    1
    13     5     6    1
    14     5    48    1
    15     5    49    1
    16     6     7    1
    17     6    50    1
    18     6    51    1
    19     7     8    1
    20     7    52    1
    21     7    53    1
    22     8     9    1
    23     8    54    1
    24     8    55    1
    25     9    38    1
    26     9    10    1
    27     9    37    1
    28    10    11    1
    29    10    56    1
    30    10    57    1
    31    11    39    1
    32    11    12    1
    33    11    23    1
    34    12    13   am
    35    12    58    1
    36    13    14    2
    37    13    15    1
    38    15    20   ar
    39    15    16   ar
    40    16    17   ar
    41    16    59    1
    42    17    18   ar
    43    17    60    1
    44    18    19   ar
    45    18    61    1
    46    19    20   ar
    47    19    21    1
    48    20    62    1
    49    21    22    2
    50    23    40    1
    51    23    24    1
    52    23    36    1
    53    24    25    1
    54    24    63    1
    55    24    64    1
    56    25    26    1
    57    25    65    1
    58    25    83    1
    59    26    27    1
    60    26    66    1
    61    26    67    1
    62    27    32   ar
    63    27    28   ar
    64    28    29   ar
    65    28    68    1
    66    29    30   ar
    67    29    69    1
    68    30    31   ar
    69    30    70    1
    70    31    32   ar
    71    31    33    1
    72    32    71    1
    73    33    34    1
    74    33    35    1
    75    33    72    1
    76    34    73    1
    77    34    74    1
    78    34    75    1
    79    35    76    1
    80    35    77    1
    81    35    78    1
    82    36    79    1
    83    37    80    1
    84    37    81    1
    85    37    82    1
