@<TRIPOS>MOLECULE
BACE_16.smi:1
 85 88 0 0 0
SMALL
GASTEIGER
****
Structure written by MMmdl.
@<TRIPOS>ATOM
      1 C          30.6956   41.6146  -11.2328 C.3     1  UNL1       -0.0586
      2 C          29.6300   42.4429  -11.9633 C.3     1  UNL1       -0.0215
      3 C          30.2441   43.6771  -12.6412 C.3     1  UNL1       -0.0586
      4 C          28.4760   42.8372  -11.0499 C.ar    1  UNL1       -0.0444
      5 C          28.7114   43.5509   -9.8546 C.ar    1  UNL1       -0.0583
      6 C          27.6334   43.9584   -9.0462 C.ar    1  UNL1       -0.0611
      7 C          26.3117   43.6630   -9.4286 C.ar    1  UNL1       -0.0535
      8 C          26.0672   42.9472  -10.6186 C.ar    1  UNL1       -0.0027
      9 C          27.1498   42.5292  -11.4204 C.ar    1  UNL1       -0.0501
     10 C          24.6475   42.6605  -11.0606 C.3     1  UNL1       -0.0076
     11 N          24.1193   41.4336  -10.4251 N.4     1  UNL1        0.2321
     12 C          23.1746   41.7057   -9.3163 C.3     1  UNL1       -0.0049
     13 C          22.5910   40.4283   -8.6693 C.3     1  UNL1        0.1133
     14 C          21.5034   40.6827   -7.5791 C.3     1  UNL1        0.0583
     15 C          20.8441   39.3705   -7.0684 C.3     1  UNL1       -0.0065
     16 C          19.6811   38.8906   -7.9302 C.ar    1  UNL1       -0.0421
     17 C          19.9292   38.1504   -9.1015 C.ar    1  UNL1       -0.0583
     18 C          18.8600   37.7543   -9.9231 C.ar    1  UNL1       -0.0580
     19 C          17.5406   38.1142   -9.5923 C.ar    1  UNL1       -0.0199
     20 C          17.2718   38.8620   -8.4197 C.ar    1  UNL1        0.1208
     21 C          18.3515   39.2206   -7.5883 C.ar    1  UNL1       -0.0167
     22 O          16.0158   39.2851   -8.0328 O.3     1  UNL1       -0.4920
     23 C          14.9245   39.1749   -8.9437 C.3     1  UNL1        0.0897
     24 C          15.0047   40.2516  -10.0447 C.3     1  UNL1       -0.0156
     25 C          14.7115   41.6641   -9.5136 C.3     1  UNL1       -0.0156
     26 C          14.9844   42.7789  -10.5340 C.3     1  UNL1        0.0897
     27 O          16.3819   42.9046  -10.7771 O.3     1  UNL1       -0.4918
     28 C          17.1244   43.5567   -9.8188 C.ar    1  UNL1        0.1247
     29 C          18.3138   42.9450   -9.3806 C.ar    1  UNL1       -0.0076
     30 C          19.1380   43.5690   -8.4132 C.ar    1  UNL1        0.0436
     31 C          18.7822   44.8462   -7.9317 C.ar    1  UNL1       -0.0076
     32 C          17.6119   45.4918   -8.3894 C.ar    1  UNL1        0.1253
     33 C          16.7721   44.8285   -9.3074 C.ar    1  UNL1        0.0218
     34 O          17.2580   46.7572   -7.9789 O.3     1  UNL1       -0.4844
     35 C          18.3050   47.7277   -7.9706 C.3     1  UNL1        0.1470
     36 C          18.8120   48.0125   -6.5531 C.2     1  UNL1        0.1673
     37 O          18.4597   47.3507   -5.5818 O.2     1  UNL1       -0.2941
     38 C          19.8021   49.1596   -6.3943 C.3     1  UNL1       -0.0026
     39 C          20.4042   42.9189   -7.9325 C.2     1  UNL1        0.2446
     40 O          21.3232   43.5856   -7.4577 O.2     1  UNL1       -0.2702
     41 N          20.4462   41.5837   -8.0438 N.am    1  UNL1       -0.3055
     42 O          23.6598   39.7501   -8.0401 O.3     1  UNL1       -0.3847
     43 H          22.1810   39.7923   -9.4528 H       1  UNL1        0.0666
     44 H          22.0028   41.1472   -6.7252 H       1  UNL1        0.0529
     45 H          30.2694   40.6902  -10.8409 H       1  UNL1        0.0235
     46 H          31.1429   42.1629  -10.4044 H       1  UNL1        0.0235
     47 H          31.5019   41.3498  -11.9182 H       1  UNL1        0.0235
     48 H          29.2266   41.8100  -12.7548 H       1  UNL1        0.0343
     49 H          29.4931   44.2261  -13.2098 H       1  UNL1        0.0235
     50 H          31.0352   43.3907  -13.3344 H       1  UNL1        0.0235
     51 H          30.6765   44.3603  -11.9104 H       1  UNL1        0.0235
     52 H          29.7192   43.8048   -9.5603 H       1  UNL1        0.0620
     53 H          27.8228   44.5084   -8.1355 H       1  UNL1        0.0618
     54 H          25.4922   43.9950   -8.8087 H       1  UNL1        0.0622
     55 H          26.9624   41.9906  -12.3380 H       1  UNL1        0.0625
     56 H          24.0147   43.5245  -10.8507 H       1  UNL1        0.0866
     57 H          24.6336   42.5501  -12.1447 H       1  UNL1        0.0866
     58 H          23.6509   40.9009  -11.1458 H       1  UNL1        0.2018
     59 H          23.6602   42.3233   -8.5594 H       1  UNL1        0.0840
     60 H          22.3700   42.2997   -9.7472 H       1  UNL1        0.0840
     61 H          21.5762   38.5688   -6.9616 H       1  UNL1        0.0332
     62 H          20.4588   39.5421   -6.0614 H       1  UNL1        0.0332
     63 H          20.9369   37.8716   -9.3704 H       1  UNL1        0.0620
     64 H          19.0476   37.1937  -10.8257 H       1  UNL1        0.0619
     65 H          16.7538   37.8079  -10.2633 H       1  UNL1        0.0654
     66 H          18.1487   39.7828   -6.6881 H       1  UNL1        0.0657
     67 H          14.8521   38.1718   -9.3623 H       1  UNL1        0.0696
     68 H          14.0036   39.3073   -8.3745 H       1  UNL1        0.0696
     69 H          15.9829   40.2295  -10.5242 H       1  UNL1        0.0299
     70 H          14.2799   40.0146  -10.8235 H       1  UNL1        0.0299
     71 H          13.6604   41.7121   -9.2391 H       1  UNL1        0.0299
     72 H          15.2746   41.8508   -8.5983 H       1  UNL1        0.0299
     73 H          14.4915   42.5404  -11.4757 H       1  UNL1        0.0696
     74 H          14.5361   43.7125  -10.1988 H       1  UNL1        0.0696
     75 H          18.5742   41.9814   -9.7940 H       1  UNL1        0.0662
     76 H          19.4202   45.3297   -7.2069 H       1  UNL1        0.0662
     77 H          15.8855   45.3350   -9.6555 H       1  UNL1        0.0691
     78 H          19.1383   47.4246   -8.6055 H       1  UNL1        0.0777
     79 H          17.9123   48.6539   -8.3891 H       1  UNL1        0.0777
     80 H          19.3635   50.0885   -6.7578 H       1  UNL1        0.0307
     81 H          20.7082   48.9564   -6.9634 H       1  UNL1        0.0307
     82 H          20.0698   49.2887   -5.3456 H       1  UNL1        0.0307
     83 H          19.6107   41.1276   -8.3851 H       1  UNL1        0.1494
     84 H          24.0592   39.1453   -8.6595 H       1  UNL1        0.2101
     85 H          24.8932   40.8826  -10.0776 H       1  UNL1        0.2018
@<TRIPOS>BOND
     1     1     2    1
     2     1    45    1
     3     1    46    1
     4     1    47    1
     5     2     3    1
     6     2     4    1
     7     2    48    1
     8     3    49    1
     9     3    50    1
    10     3    51    1
    11     4     9   ar
    12     4     5   ar
    13     5     6   ar
    14     5    52    1
    15     6     7   ar
    16     6    53    1
    17     7     8   ar
    18     7    54    1
    19     8     9   ar
    20     8    10    1
    21     9    55    1
    22    10    11    1
    23    10    56    1
    24    10    57    1
    25    11    12    1
    26    11    58    1
    27    11    85    1
    28    12    13    1
    29    12    59    1
    30    12    60    1
    31    13    43    1
    32    13    14    1
    33    13    42    1
    34    14    44    1
    35    14    41    1
    36    14    15    1
    37    15    16    1
    38    15    61    1
    39    15    62    1
    40    16    21   ar
    41    16    17   ar
    42    17    18   ar
    43    17    63    1
    44    18    19   ar
    45    18    64    1
    46    19    20   ar
    47    19    65    1
    48    20    21   ar
    49    20    22    1
    50    21    66    1
    51    22    23    1
    52    23    24    1
    53    23    67    1
    54    23    68    1
    55    24    25    1
    56    24    69    1
    57    24    70    1
    58    25    26    1
    59    25    71    1
    60    25    72    1
    61    26    27    1
    62    26    73    1
    63    26    74    1
    64    27    28    1
    65    28    33   ar
    66    28    29   ar
    67    29    30   ar
    68    29    75    1
    69    30    31   ar
    70    30    39    1
    71    31    32   ar
    72    31    76    1
    73    32    33   ar
    74    32    34    1
    75    33    77    1
    76    34    35    1
    77    35    36    1
    78    35    78    1
    79    35    79    1
    80    36    37    2
    81    36    38    1
    82    38    80    1
    83    38    81    1
    84    38    82    1
    85    39    40    2
    86    39    41   am
    87    41    83    1
    88    42    84    1
