@<TRIPOS>MOLECULE
BACE_9.smi:1
 87 89 0 0 0
SMALL
GASTEIGER
****
Structure written by MMmdl.
@<TRIPOS>ATOM
      1 C          20.3914   45.5191   -6.5001 C.3     1  UNL1       -0.0624
      2 C          20.3538   44.3444   -7.4917 C.3     1  UNL1       -0.0421
      3 C          21.7713   43.7884   -7.6995 C.3     1  UNL1       -0.0504
      4 C          21.7290   42.3861   -8.3091 C.3     1  UNL1       -0.0528
      5 C          23.1126   41.8227   -8.6425 C.3     1  UNL1       -0.0530
      6 C          22.9947   40.5305   -9.4525 C.3     1  UNL1       -0.0530
      7 C          22.4754   39.3371   -8.6272 C.3     1  UNL1       -0.0516
      8 C          21.8871   38.2079   -9.4869 C.3     1  UNL1       -0.0375
      9 C          20.3657   38.3140   -9.7078 C.3     1  UNL1        0.0091
     10 N          20.0314   39.3731  -10.6477 N.pl3   1  UNL1       -0.3438
     11 C          18.7703   39.9789  -10.5781 C.ar    1  UNL1        0.0282
     12 C          17.6213   39.3105  -10.0934 C.ar    1  UNL1       -0.0355
     13 C          16.3774   39.9760  -10.0372 C.ar    1  UNL1       -0.0195
     14 C          16.2793   41.3122  -10.4742 C.ar    1  UNL1       -0.0442
     15 C          17.4241   41.9906  -10.9373 C.ar    1  UNL1        0.0388
     16 C          18.6607   41.3165  -11.0036 C.ar    1  UNL1       -0.0287
     17 C          17.3389   43.4368  -11.3116 C.2     1  UNL1        0.2444
     18 O          16.8601   43.7557  -12.4013 O.2     1  UNL1       -0.2702
     19 N          17.8125   44.3380  -10.4272 N.am    1  UNL1       -0.3060
     20 C          18.2683   44.0925   -9.0464 C.3     1  UNL1        0.0508
     21 C          19.6787   44.7045   -8.8472 C.3     1  UNL1       -0.0295
     22 C          17.2157   44.5832   -8.0136 C.3     1  UNL1        0.0859
     23 C          16.6802   46.0212   -8.1864 C.3     1  UNL1        0.0240
     24 N          17.7268   47.0307   -7.9966 N.3     1  UNL1       -0.3095
     25 C          17.2576   48.4053   -7.8843 C.3     1  UNL1        0.0213
     26 C          18.3200   49.4596   -8.1421 C.ar    1  UNL1       -0.0333
     27 C          17.9625   50.6530   -8.8026 C.ar    1  UNL1       -0.0573
     28 C          18.9301   51.6446   -9.0446 C.ar    1  UNL1       -0.0612
     29 C          20.2598   51.4491   -8.6283 C.ar    1  UNL1       -0.0583
     30 C          20.6290   50.2637   -7.9569 C.ar    1  UNL1       -0.0445
     31 C          19.6509   49.2765   -7.7103 C.ar    1  UNL1       -0.0539
     32 C          22.0713   50.0493   -7.5175 C.3     1  UNL1       -0.0215
     33 C          22.7294   48.8908   -8.2825 C.3     1  UNL1       -0.0586
     34 C          22.1794   49.8600   -5.9942 C.3     1  UNL1       -0.0586
     35 O          16.1155   43.6958   -8.0400 O.3     1  UNL1       -0.3887
     36 C          15.1452   39.2574   -9.5103 C.3     1  UNL1        0.0724
     37 O          15.3738   38.6113   -8.2685 O.3     1  UNL1       -0.3784
     38 C          15.4214   39.5034   -7.1631 C.3     1  UNL1        0.0369
     39 H          19.7797   43.5534   -7.0077 H       1  UNL1        0.0299
     40 H          18.4000   43.0255   -8.8692 H       1  UNL1        0.0524
     41 H          17.6286   44.4807   -7.0099 H       1  UNL1        0.0624
     42 H          20.9607   46.3531   -6.9033 H       1  UNL1        0.0232
     43 H          20.8643   45.2227   -5.5633 H       1  UNL1        0.0232
     44 H          19.3957   45.8706   -6.2437 H       1  UNL1        0.0232
     45 H          22.3510   44.4661   -8.3271 H       1  UNL1        0.0268
     46 H          22.2967   43.7304   -6.7453 H       1  UNL1        0.0268
     47 H          21.2112   41.7258   -7.6137 H       1  UNL1        0.0265
     48 H          21.1292   42.3858   -9.2191 H       1  UNL1        0.0265
     49 H          23.6642   42.5542   -9.2329 H       1  UNL1        0.0265
     50 H          23.6907   41.6542   -7.7338 H       1  UNL1        0.0265
     51 H          22.3542   40.7131  -10.3135 H       1  UNL1        0.0265
     52 H          23.9697   40.2816   -9.8688 H       1  UNL1        0.0265
     53 H          23.3095   38.9508   -8.0403 H       1  UNL1        0.0266
     54 H          21.7299   39.6353   -7.8927 H       1  UNL1        0.0266
     55 H          22.4188   38.1500  -10.4372 H       1  UNL1        0.0280
     56 H          22.0846   37.2684   -8.9751 H       1  UNL1        0.0280
     57 H          19.9832   37.3741  -10.1062 H       1  UNL1        0.0461
     58 H          19.8644   38.4757   -8.7523 H       1  UNL1        0.0461
     59 H          20.7997   39.9499  -10.9559 H       1  UNL1        0.1461
     60 H          17.6783   38.2833   -9.7656 H       1  UNL1        0.0639
     61 H          15.3328   41.8304  -10.4132 H       1  UNL1        0.0628
     62 H          19.5357   41.8416  -11.3599 H       1  UNL1        0.0643
     63 H          17.7754   45.3055  -10.7108 H       1  UNL1        0.1494
     64 H          19.6762   45.7819   -8.9956 H       1  UNL1        0.0286
     65 H          20.2984   44.3500   -9.6707 H       1  UNL1        0.0286
     66 H          16.2081   46.1412   -9.1627 H       1  UNL1        0.0450
     67 H          15.8916   46.1502   -7.4477 H       1  UNL1        0.0450
     68 H          18.2570   46.7913   -7.1653 H       1  UNL1        0.1223
     69 H          16.4596   48.5750   -8.6038 H       1  UNL1        0.0473
     70 H          16.8601   48.5800   -6.8862 H       1  UNL1        0.0473
     71 H          16.9484   50.8082   -9.1389 H       1  UNL1        0.0621
     72 H          18.6543   52.5502   -9.5628 H       1  UNL1        0.0618
     73 H          20.9927   52.2121   -8.8407 H       1  UNL1        0.0620
     74 H          19.9268   48.3709   -7.1951 H       1  UNL1        0.0623
     75 H          22.6274   50.9485   -7.7782 H       1  UNL1        0.0343
     76 H          22.7033   49.0714   -9.3592 H       1  UNL1        0.0235
     77 H          22.2264   47.9424   -8.0947 H       1  UNL1        0.0235
     78 H          23.7752   48.7722   -7.9948 H       1  UNL1        0.0235
     79 H          21.7269   50.6906   -5.4520 H       1  UNL1        0.0235
     80 H          23.2198   49.7807   -5.6782 H       1  UNL1        0.0235
     81 H          21.6769   48.9484   -5.6676 H       1  UNL1        0.0235
     82 H          15.8000   43.5650   -7.1487 H       1  UNL1        0.2099
     83 H          14.2961   39.9397   -9.4350 H       1  UNL1        0.0610
     84 H          14.8621   38.4967  -10.2375 H       1  UNL1        0.0610
     85 H          15.6503   38.9496   -6.2549 H       1  UNL1        0.0524
     86 H          14.4619   39.9997   -7.0152 H       1  UNL1        0.0524
     87 H          16.1920   40.2651   -7.2892 H       1  UNL1        0.0524
@<TRIPOS>BOND
     1     1     2    1
     2     1    42    1
     3     1    43    1
     4     1    44    1
     5     2    39    1
     6     2    21    1
     7     2     3    1
     8     3     4    1
     9     3    45    1
    10     3    46    1
    11     4     5    1
    12     4    47    1
    13     4    48    1
    14     5     6    1
    15     5    49    1
    16     5    50    1
    17     6     7    1
    18     6    51    1
    19     6    52    1
    20     7     8    1
    21     7    53    1
    22     7    54    1
    23     8     9    1
    24     8    55    1
    25     8    56    1
    26     9    10    1
    27     9    57    1
    28     9    58    1
    29    10    11    1
    30    10    59    1
    31    11    16   ar
    32    11    12   ar
    33    12    13   ar
    34    12    60    1
    35    13    14   ar
    36    13    36    1
    37    14    15   ar
    38    14    61    1
    39    15    16   ar
    40    15    17    1
    41    16    62    1
    42    17    18    2
    43    17    19   am
    44    19    20    1
    45    19    63    1
    46    20    40    1
    47    20    21    1
    48    20    22    1
    49    21    64    1
    50    21    65    1
    51    22    41    1
    52    22    23    1
    53    22    35    1
    54    23    24    1
    55    23    66    1
    56    23    67    1
    57    24    25    1
    58    24    68    1
    59    25    26    1
    60    25    69    1
    61    25    70    1
    62    26    31   ar
    63    26    27   ar
    64    27    28   ar
    65    27    71    1
    66    28    29   ar
    67    28    72    1
    68    29    30   ar
    69    29    73    1
    70    30    31   ar
    71    30    32    1
    72    31    74    1
    73    32    33    1
    74    32    34    1
    75    32    75    1
    76    33    76    1
    77    33    77    1
    78    33    78    1
    79    34    79    1
    80    34    80    1
    81    34    81    1
    82    35    82    1
    83    36    37    1
    84    36    83    1
    85    36    84    1
    86    37    38    1
    87    38    85    1
    88    38    86    1
    89    38    87    1
