@<TRIPOS>MOLECULE
BACE_20.smi:1
 78 79 0 0 0
SMALL
GASTEIGER
****
Structure written by MMmdl.
@<TRIPOS>ATOM
      1 C          30.9362   42.4101  -15.7346 C.3     1  UNL1       -0.0652
      2 C          30.9766   42.6190  -14.2164 C.3     1  UNL1       -0.0545
      3 C          29.7787   41.9808  -13.4992 C.3     1  UNL1       -0.0377
      4 C          29.7606   42.3138  -11.9980 C.3     1  UNL1        0.0104
      5 N          28.6099   41.7500  -11.3011 N.pl3   1  UNL1       -0.3289
      6 C          27.3372   42.3273  -11.3967 C.ar    1  UNL1        0.1232
      7 C          26.2815   41.7504  -10.6673 C.ar    1  UNL1       -0.0095
      8 C          24.9886   42.2959  -10.8001 C.ar    1  UNL1        0.0450
      9 C          24.8077   43.4055  -11.6522 C.ar    1  UNL1        0.0122
     10 C          25.9265   43.9333  -12.3206 C.ar    1  UNL1        0.2168
     11 N          27.1681   43.4093  -12.1878 N.ar    1  UNL1       -0.1981
     12 O          25.7509   45.0231  -13.1479 O.3     1  UNL1       -0.4796
     13 C          26.9043   45.5952  -13.7554 C.3     1  UNL1        0.0804
     14 C          23.8321   41.7144  -10.0520 C.2     1  UNL1        0.2446
     15 O          23.8524   41.6307   -8.8240 O.2     1  UNL1       -0.2702
     16 N          22.8241   41.2956  -10.8378 N.am    1  UNL1       -0.3057
     17 C          21.5609   40.6652  -10.4332 C.3     1  UNL1        0.0533
     18 C          21.7429   39.4859   -9.4389 C.3     1  UNL1       -0.0068
     19 C          20.4404   38.7992   -9.0551 C.ar    1  UNL1       -0.0455
     20 C          19.6676   38.1501  -10.0401 C.ar    1  UNL1       -0.0585
     21 C          18.4855   37.4754   -9.6845 C.ar    1  UNL1       -0.0615
     22 C          18.0602   37.4605   -8.3466 C.ar    1  UNL1       -0.0617
     23 C          18.7968   38.1510   -7.3662 C.ar    1  UNL1       -0.0615
     24 C          19.9905   38.8127   -7.7165 C.ar    1  UNL1       -0.0585
     25 C          20.4705   41.6916  -10.0237 C.3     1  UNL1        0.0745
     26 C          20.0489   42.6532  -11.1583 C.3     1  UNL1       -0.0143
     27 C          18.7992   43.5127  -10.8455 C.3     1  UNL1        0.0351
     28 C          18.5857   44.5838  -11.9312 C.3     1  UNL1       -0.0540
     29 C          17.5325   42.6529  -10.6688 C.2     1  UNL1        0.2159
     30 O          16.8596   42.3263  -11.6493 O.2     1  UNL1       -0.2755
     31 N          17.2183   42.2963   -9.4125 N.am    1  UNL1       -0.3151
     32 C          16.1047   41.4346   -9.0337 C.3     1  UNL1        0.0116
     33 C          16.2066   41.0455   -7.5490 C.3     1  UNL1       -0.0376
     34 C          15.0157   40.2206   -7.0292 C.3     1  UNL1       -0.0545
     35 C          14.9417   38.7945   -7.5734 C.3     1  UNL1       -0.0652
     36 O          20.8861   42.4416   -8.8990 O.3     1  UNL1       -0.3899
     37 H          21.1969   40.2067  -11.3528 H       1  UNL1        0.0527
     38 H          19.5925   41.1261   -9.7194 H       1  UNL1        0.0612
     39 H          18.9744   44.0439   -9.9084 H       1  UNL1        0.0392
     40 H          31.7990   42.8713  -16.2146 H       1  UNL1        0.0230
     41 H          30.0368   42.8485  -16.1677 H       1  UNL1        0.0230
     42 H          30.9443   41.3499  -15.9856 H       1  UNL1        0.0230
     43 H          31.0011   43.6897  -14.0084 H       1  UNL1        0.0263
     44 H          31.9034   42.2058  -13.8172 H       1  UNL1        0.0263
     45 H          29.7988   40.9001  -13.6403 H       1  UNL1        0.0280
     46 H          28.8601   42.3318  -13.9681 H       1  UNL1        0.0280
     47 H          29.7799   43.3930  -11.8482 H       1  UNL1        0.0461
     48 H          30.6640   41.9240  -11.5304 H       1  UNL1        0.0461
     49 H          28.6715   40.8035  -10.9402 H       1  UNL1        0.1475
     50 H          26.4474   40.8860  -10.0383 H       1  UNL1        0.0659
     51 H          23.8336   43.8546  -11.7834 H       1  UNL1        0.0678
     52 H          26.6085   46.4566  -14.3542 H       1  UNL1        0.0660
     53 H          27.4034   44.8898  -14.4198 H       1  UNL1        0.0660
     54 H          27.6181   45.9433  -13.0067 H       1  UNL1        0.0660
     55 H          23.0077   41.3472  -11.8331 H       1  UNL1        0.1494
     56 H          22.4097   38.7380   -9.8729 H       1  UNL1        0.0332
     57 H          22.2220   39.8175   -8.5190 H       1  UNL1        0.0332
     58 H          19.9922   38.1468  -11.0700 H       1  UNL1        0.0620
     59 H          17.9149   36.9531  -10.4396 H       1  UNL1        0.0618
     60 H          17.1757   36.9069   -8.0719 H       1  UNL1        0.0618
     61 H          18.4529   38.1511   -6.3407 H       1  UNL1        0.0618
     62 H          20.5604   39.3188   -6.9509 H       1  UNL1        0.0620
     63 H          19.8573   42.0744  -12.0623 H       1  UNL1        0.0298
     64 H          20.8893   43.3071  -11.3991 H       1  UNL1        0.0298
     65 H          19.4337   45.2673  -11.9771 H       1  UNL1        0.0237
     66 H          17.6955   45.1824  -11.7300 H       1  UNL1        0.0237
     67 H          18.4686   44.1351  -12.9183 H       1  UNL1        0.0237
     68 H          17.8307   42.5981   -8.6683 H       1  UNL1        0.1487
     69 H          16.1098   40.5399   -9.6569 H       1  UNL1        0.0462
     70 H          15.1687   41.9578   -9.2236 H       1  UNL1        0.0462
     71 H          16.2729   41.9537   -6.9465 H       1  UNL1        0.0280
     72 H          17.1325   40.5003   -7.3650 H       1  UNL1        0.0280
     73 H          14.0795   40.7356   -7.2397 H       1  UNL1        0.0263
     74 H          15.0807   40.1555   -5.9425 H       1  UNL1        0.0263
     75 H          14.0599   38.2868   -7.1956 H       1  UNL1        0.0230
     76 H          15.7896   38.2159   -7.2249 H       1  UNL1        0.0230
     77 H          14.9065   38.7607   -8.6619 H       1  UNL1        0.0230
     78 H          21.4711   41.9052   -8.3803 H       1  UNL1        0.2099
@<TRIPOS>BOND
     1     1     2    1
     2     1    40    1
     3     1    41    1
     4     1    42    1
     5     2     3    1
     6     2    43    1
     7     2    44    1
     8     3     4    1
     9     3    45    1
    10     3    46    1
    11     4     5    1
    12     4    47    1
    13     4    48    1
    14     5     6    1
    15     5    49    1
    16     6    11   ar
    17     6     7   ar
    18     7     8   ar
    19     7    50    1
    20     8     9   ar
    21     8    14    1
    22     9    10   ar
    23     9    51    1
    24    10    11   ar
    25    10    12    1
    26    12    13    1
    27    13    52    1
    28    13    53    1
    29    13    54    1
    30    14    15    2
    31    14    16   am
    32    16    17    1
    33    16    55    1
    34    17    37    1
    35    17    18    1
    36    17    25    1
    37    18    19    1
    38    18    56    1
    39    18    57    1
    40    19    24   ar
    41    19    20   ar
    42    20    21   ar
    43    20    58    1
    44    21    22   ar
    45    21    59    1
    46    22    23   ar
    47    22    60    1
    48    23    24   ar
    49    23    61    1
    50    24    62    1
    51    25    38    1
    52    25    26    1
    53    25    36    1
    54    26    27    1
    55    26    63    1
    56    26    64    1
    57    27    39    1
    58    27    28    1
    59    27    29    1
    60    28    65    1
    61    28    66    1
    62    28    67    1
    63    29    30    2
    64    29    31   am
    65    31    32    1
    66    31    68    1
    67    32    33    1
    68    32    69    1
    69    32    70    1
    70    33    34    1
    71    33    71    1
    72    33    72    1
    73    34    35    1
    74    34    73    1
    75    34    74    1
    76    35    75    1
    77    35    76    1
    78    35    77    1
    79    36    78    1
