@<TRIPOS>MOLECULE
BACE_13.smi:1
 76 79 0 0 0
SMALL
GASTEIGER
****
Structure written by MMmdl.
@<TRIPOS>ATOM
      1 C          18.8052   42.0069  -12.7368 C.3     1  UNL1        0.0369
      2 O          18.3848   43.3496  -12.9620 O.3     1  UNL1       -0.3784
      3 C          17.3964   43.8381  -12.0567 C.3     1  UNL1        0.0724
      4 C          17.6913   43.5407  -10.5980 C.ar    1  UNL1       -0.0195
      5 C          18.9853   43.7520  -10.0900 C.ar    1  UNL1       -0.0442
      6 C          19.3228   43.3021   -8.7970 C.ar    1  UNL1        0.0388
      7 C          18.3190   42.7673   -7.9626 C.ar    1  UNL1       -0.0287
      8 C          17.0107   42.5823   -8.4540 C.ar    1  UNL1        0.0282
      9 C          16.7011   42.9705   -9.7752 C.ar    1  UNL1       -0.0355
     10 N          16.0604   41.9577   -7.6402 N.pl3   1  UNL1       -0.3438
     11 C          15.2275   40.8970   -8.1952 C.3     1  UNL1        0.0092
     12 C          16.0465   39.7038   -8.7183 C.3     1  UNL1       -0.0344
     13 C          16.8035   38.9656   -7.6035 C.3     1  UNL1       -0.0172
     14 C          17.7063   37.8403   -8.1435 C.3     1  UNL1        0.0896
     15 O          18.8009   38.3538   -8.9050 O.3     1  UNL1       -0.4920
     16 C          19.8746   38.9249   -8.2477 C.ar    1  UNL1        0.1208
     17 C          20.0218   38.9501   -6.8385 C.ar    1  UNL1       -0.0199
     18 C          21.1426   39.5566   -6.2420 C.ar    1  UNL1       -0.0580
     19 C          22.1332   40.1476   -7.0423 C.ar    1  UNL1       -0.0583
     20 C          22.0021   40.1434   -8.4442 C.ar    1  UNL1       -0.0421
     21 C          20.8803   39.5220   -9.0400 C.ar    1  UNL1       -0.0167
     22 C          23.0456   40.8602   -9.2894 C.3     1  UNL1       -0.0066
     23 C          22.9653   42.4084   -9.1860 C.3     1  UNL1        0.0548
     24 N          21.5827   42.8523   -9.3270 N.am    1  UNL1       -0.3057
     25 C          20.7534   43.2813   -8.3628 C.2     1  UNL1        0.2444
     26 O          21.0874   43.5184   -7.2027 O.2     1  UNL1       -0.2702
     27 C          23.8414   43.1896  -10.1980 C.3     1  UNL1        0.0912
     28 C          25.3627   42.9398  -10.0205 C.3     1  UNL1        0.0591
     29 C          25.9494   41.7815  -10.8538 C.3     1  UNL1        0.0660
     30 O          27.3128   41.6021  -10.4919 O.3     1  UNL1       -0.3714
     31 C          28.1259   42.7442  -10.7431 C.3     1  UNL1        0.0944
     32 C          27.5565   43.9802  -10.0115 C.3     1  UNL1        0.0248
     33 N          26.1289   44.1614  -10.2864 N.3     1  UNL1       -0.3065
     34 C          28.3768   42.9522  -12.2570 C.3     1  UNL1        0.0747
     35 O          29.7643   43.0236  -12.5568 O.3     1  UNL1       -0.3804
     36 C          30.3810   41.7504  -12.6726 C.3     1  UNL1        0.0366
     37 O          23.4048   42.9490  -11.5297 O.3     1  UNL1       -0.3883
     38 H          23.3034   42.6833   -8.1860 H       1  UNL1        0.0527
     39 H          23.6505   44.2477  -10.0072 H       1  UNL1        0.0628
     40 H          25.5141   42.6870   -8.9702 H       1  UNL1        0.0509
     41 H          29.0843   42.5201  -10.2742 H       1  UNL1        0.0632
     42 H          19.2600   41.6093  -13.6399 H       1  UNL1        0.0524
     43 H          17.9796   41.3569  -12.4408 H       1  UNL1        0.0524
     44 H          19.5667   41.9523  -11.9603 H       1  UNL1        0.0524
     45 H          16.4354   43.4037  -12.3282 H       1  UNL1        0.0610
     46 H          17.2974   44.9163  -12.1881 H       1  UNL1        0.0610
     47 H          19.7418   44.1690  -10.7409 H       1  UNL1        0.0628
     48 H          18.5729   42.4167   -6.9714 H       1  UNL1        0.0643
     49 H          15.7104   42.8030  -10.1706 H       1  UNL1        0.0639
     50 H          16.2865   41.8483   -6.6559 H       1  UNL1        0.1461
     51 H          14.5900   41.2966   -8.9841 H       1  UNL1        0.0461
     52 H          14.5542   40.5553   -7.4070 H       1  UNL1        0.0461
     53 H          16.7456   40.0361   -9.4874 H       1  UNL1        0.0281
     54 H          15.3707   39.0014   -9.2083 H       1  UNL1        0.0281
     55 H          16.0776   38.5494   -6.9045 H       1  UNL1        0.0298
     56 H          17.3934   39.6731   -7.0222 H       1  UNL1        0.0298
     57 H          17.1218   37.1924   -8.7979 H       1  UNL1        0.0696
     58 H          18.0536   37.1868   -7.3429 H       1  UNL1        0.0696
     59 H          19.2860   38.5134   -6.1816 H       1  UNL1        0.0654
     60 H          21.2378   39.5766   -5.1663 H       1  UNL1        0.0619
     61 H          22.9785   40.6272   -6.5742 H       1  UNL1        0.0620
     62 H          20.7735   39.5198  -10.1150 H       1  UNL1        0.0657
     63 H          22.9369   40.5370  -10.3262 H       1  UNL1        0.0332
     64 H          24.0259   40.5145   -8.9605 H       1  UNL1        0.0332
     65 H          21.1795   42.6966  -10.2375 H       1  UNL1        0.1494
     66 H          25.8550   41.9808  -11.9213 H       1  UNL1        0.0576
     67 H          25.4305   40.8431  -10.6682 H       1  UNL1        0.0576
     68 H          28.1175   44.8726  -10.2883 H       1  UNL1        0.0450
     69 H          27.7012   43.8476   -8.9392 H       1  UNL1        0.0450
     70 H          25.7644   44.9260   -9.7275 H       1  UNL1        0.1224
     71 H          27.9200   42.1570  -12.8427 H       1  UNL1        0.0586
     72 H          27.9048   43.8766  -12.5904 H       1  UNL1        0.0586
     73 H          31.4424   41.8746  -12.8870 H       1  UNL1        0.0524
     74 H          29.9424   41.1719  -13.4862 H       1  UNL1        0.0524
     75 H          30.2891   41.1707  -11.7525 H       1  UNL1        0.0524
     76 H          23.6593   42.0758  -11.8021 H       1  UNL1        0.2099
@<TRIPOS>BOND
     1     1     2    1
     2     1    42    1
     3     1    43    1
     4     1    44    1
     5     2     3    1
     6     3     4    1
     7     3    45    1
     8     3    46    1
     9     4     9   ar
    10     4     5   ar
    11     5     6   ar
    12     5    47    1
    13     6    25    1
    14     6     7   ar
    15     7     8   ar
    16     7    48    1
    17     8     9   ar
    18     8    10    1
    19     9    49    1
    20    10    11    1
    21    10    50    1
    22    11    12    1
    23    11    51    1
    24    11    52    1
    25    12    13    1
    26    12    53    1
    27    12    54    1
    28    13    14    1
    29    13    55    1
    30    13    56    1
    31    14    15    1
    32    14    57    1
    33    14    58    1
    34    15    16    1
    35    16    21   ar
    36    16    17   ar
    37    17    18   ar
    38    17    59    1
    39    18    19   ar
    40    18    60    1
    41    19    20   ar
    42    19    61    1
    43    20    21   ar
    44    20    22    1
    45    21    62    1
    46    22    23    1
    47    22    63    1
    48    22    64    1
    49    23    38    1
    50    23    24    1
    51    23    27    1
    52    24    25   am
    53    24    65    1
    54    25    26    2
    55    27    39    1
    56    27    28    1
    57    27    37    1
    58    28    40    1
    59    28    33    1
    60    28    29    1
    61    29    30    1
    62    29    66    1
    63    29    67    1
    64    30    31    1
    65    31    41    1
    66    31    32    1
    67    31    34    1
    68    32    33    1
    69    32    68    1
    70    32    69    1
    71    33    70    1
    72    34    35    1
    73    34    71    1
    74    34    72    1
    75    35    36    1
    76    36    73    1
    77    36    74    1
    78    36    75    1
    79    37    76    1
