@<TRIPOS>MOLECULE
BACE_17.smi:1
 62 64 0 0 0
SMALL
GASTEIGER
****
Structure written by MMmdl.
@<TRIPOS>ATOM
      1 C          18.3150   49.0036   -7.0737 C.3     1  UNL1        0.0031
      2 N          19.3402   47.9765   -7.2643 N.am    1  UNL1       -0.3036
      3 C          20.4283   48.3359   -8.1794 C.3     1  UNL1        0.0031
      4 C          19.2697   46.8238   -6.5554 C.2     1  UNL1        0.2463
      5 O          18.4617   46.6662   -5.6400 O.2     1  UNL1       -0.2700
      6 C          20.2054   45.6972   -6.8963 C.ar    1  UNL1        0.0410
      7 C          20.8994   45.0255   -5.8644 C.ar    1  UNL1       -0.0078
      8 C          20.3289   45.2362   -8.2269 C.ar    1  UNL1       -0.0373
      9 C          21.1661   44.1436   -8.5284 C.ar    1  UNL1        0.0409
     10 C          21.9024   43.5280   -7.4966 C.ar    1  UNL1       -0.0078
     11 C          21.7488   43.9345   -6.1613 C.ar    1  UNL1        0.1219
     12 C          21.2563   43.6211   -9.9267 C.2     1  UNL1        0.2445
     13 O          21.3029   44.3762  -10.8968 O.2     1  UNL1       -0.2702
     14 N          21.2023   42.2844  -10.0032 N.am    1  UNL1       -0.3056
     15 C          21.2212   41.4677  -11.2096 C.3     1  UNL1        0.0554
     16 C          19.9225   41.6741  -12.0410 C.3     1  UNL1        0.0968
     17 O          20.0600   40.9495  -13.2400 O.3     1  UNL1       -0.3877
     18 C          18.5868   41.3068  -11.3539 C.3     1  UNL1        0.0719
     19 O          17.5374   42.1485  -11.7946 O.3     1  UNL1       -0.3924
     20 C          21.5764   39.9941  -10.8550 C.3     1  UNL1       -0.0066
     21 C          20.7222   39.3601   -9.7628 C.ar    1  UNL1       -0.0421
     22 C          20.9773   39.6364   -8.4008 C.ar    1  UNL1       -0.0167
     23 C          20.1429   39.1048   -7.3864 C.ar    1  UNL1        0.1208
     24 C          19.0681   38.2712   -7.7566 C.ar    1  UNL1       -0.0199
     25 C          18.8365   37.9541   -9.1079 C.ar    1  UNL1       -0.0580
     26 C          19.6674   38.4901  -10.1078 C.ar    1  UNL1       -0.0583
     27 O          20.3098   39.3501   -6.0412 O.3     1  UNL1       -0.4920
     28 C          21.2236   40.3624   -5.6394 C.3     1  UNL1        0.0897
     29 C          21.1019   40.5626   -4.1204 C.3     1  UNL1       -0.0156
     30 C          22.0788   41.5843   -3.5028 C.3     1  UNL1       -0.0156
     31 C          21.8500   43.0401   -3.9410 C.3     1  UNL1        0.0897
     32 O          22.4459   43.2181   -5.2186 O.3     1  UNL1       -0.4919
     33 H          22.0446   41.8362  -11.8259 H       1  UNL1        0.0528
     34 H          19.8686   42.7248  -12.3216 H       1  UNL1        0.0635
     35 H          17.3249   48.5976   -7.2875 H       1  UNL1        0.0428
     36 H          18.4589   49.8670   -7.7236 H       1  UNL1        0.0428
     37 H          18.3205   49.3501   -6.0405 H       1  UNL1        0.0428
     38 H          21.3741   47.8661   -7.9049 H       1  UNL1        0.0428
     39 H          20.6098   49.4111   -8.1798 H       1  UNL1        0.0428
     40 H          20.1814   48.0405   -9.1997 H       1  UNL1        0.0428
     41 H          20.7805   45.3570   -4.8445 H       1  UNL1        0.0662
     42 H          19.7579   45.7001   -9.0188 H       1  UNL1        0.0633
     43 H          22.5609   42.6987   -7.7128 H       1  UNL1        0.0662
     44 H          21.1085   41.7828   -9.1324 H       1  UNL1        0.1494
     45 H          19.9844   40.0271  -13.0405 H       1  UNL1        0.2100
     46 H          18.3045   40.2710  -11.5381 H       1  UNL1        0.0583
     47 H          18.6621   41.4323  -10.2733 H       1  UNL1        0.0583
     48 H          16.7886   41.9838  -11.2402 H       1  UNL1        0.2095
     49 H          21.5554   39.3672  -11.7469 H       1  UNL1        0.0332
     50 H          22.6129   39.9583  -10.5146 H       1  UNL1        0.0332
     51 H          21.8154   40.2682   -8.1508 H       1  UNL1        0.0657
     52 H          18.4197   37.8615   -6.9941 H       1  UNL1        0.0654
     53 H          18.0163   37.3035   -9.3746 H       1  UNL1        0.0619
     54 H          19.4757   38.2451  -11.1424 H       1  UNL1        0.0620
     55 H          22.2448   40.0811   -5.9006 H       1  UNL1        0.0696
     56 H          20.9719   41.2868   -6.1547 H       1  UNL1        0.0696
     57 H          20.0769   40.8422   -3.8744 H       1  UNL1        0.0299
     58 H          21.2751   39.6018   -3.6399 H       1  UNL1        0.0299
     59 H          21.9594   41.5391   -2.4207 H       1  UNL1        0.0299
     60 H          23.1108   41.2904   -3.6994 H       1  UNL1        0.0299
     61 H          20.7808   43.2582   -3.9200 H       1  UNL1        0.0696
     62 H          22.3376   43.7225   -3.2438 H       1  UNL1        0.0696
@<TRIPOS>BOND
     1     1     2    1
     2     1    35    1
     3     1    36    1
     4     1    37    1
     5     2     3    1
     6     2     4   am
     7     3    38    1
     8     3    39    1
     9     3    40    1
    10     4     5    2
    11     4     6    1
    12     6     7   ar
    13     6     8   ar
    14     7    11   ar
    15     7    41    1
    16     8     9   ar
    17     8    42    1
    18     9    10   ar
    19     9    12    1
    20    10    11   ar
    21    10    43    1
    22    11    32    1
    23    12    13    2
    24    12    14   am
    25    14    15    1
    26    14    44    1
    27    15    33    1
    28    15    16    1
    29    15    20    1
    30    16    34    1
    31    16    17    1
    32    16    18    1
    33    17    45    1
    34    18    19    1
    35    18    46    1
    36    18    47    1
    37    19    48    1
    38    20    21    1
    39    20    49    1
    40    20    50    1
    41    21    26   ar
    42    21    22   ar
    43    22    23   ar
    44    22    51    1
    45    23    24   ar
    46    23    27    1
    47    24    25   ar
    48    24    52    1
    49    25    26   ar
    50    25    53    1
    51    26    54    1
    52    27    28    1
    53    28    29    1
    54    28    55    1
    55    28    56    1
    56    29    30    1
    57    29    57    1
    58    29    58    1
    59    30    31    1
    60    30    59    1
    61    30    60    1
    62    31    32    1
    63    31    61    1
    64    31    62    1
