@<TRIPOS>MOLECULE
BACE_9.smi:1
 88 90 0 0 0
SMALL
GASTEIGER
****
Structure written by MMmdl.
@<TRIPOS>ATOM
      1 C          21.9355   43.2884   -5.9548 C.3     1  UNL1       -0.0624
      2 C          23.2803   43.5493   -6.6538 C.3     1  UNL1       -0.0421
      3 C          24.0232   44.7117   -5.9573 C.3     1  UNL1       -0.0504
      4 C          25.4642   44.9285   -6.4454 C.3     1  UNL1       -0.0528
      5 C          26.2035   46.0254   -5.6581 C.3     1  UNL1       -0.0530
      6 C          27.5833   46.3686   -6.2430 C.3     1  UNL1       -0.0530
      7 C          28.6484   45.2737   -6.0304 C.3     1  UNL1       -0.0516
      8 C          29.9473   45.5247   -6.8232 C.3     1  UNL1       -0.0375
      9 C          29.9827   44.8285   -8.1952 C.3     1  UNL1        0.0091
     10 N          28.8972   45.2704   -9.0604 N.pl3   1  UNL1       -0.3438
     11 C          28.2925   44.3477   -9.9228 C.ar    1  UNL1        0.0282
     12 C          29.0166   43.2920  -10.5170 C.ar    1  UNL1       -0.0355
     13 C          28.3820   42.3990  -11.4023 C.ar    1  UNL1       -0.0195
     14 C          27.0114   42.5601  -11.6935 C.ar    1  UNL1       -0.0442
     15 C          26.2696   43.5975  -11.0896 C.ar    1  UNL1        0.0388
     16 C          26.9209   44.4947  -10.2148 C.ar    1  UNL1       -0.0287
     17 C          24.8149   43.7760  -11.4227 C.2     1  UNL1        0.2444
     18 O          24.4886   44.1392  -12.5513 O.2     1  UNL1       -0.2702
     19 N          23.8897   43.5528  -10.4685 N.am    1  UNL1       -0.3058
     20 C          24.0677   43.0364   -9.1069 C.3     1  UNL1        0.0545
     21 C          23.0759   43.7784   -8.1749 C.3     1  UNL1       -0.0293
     22 C          23.9201   41.4860   -9.0687 C.3     1  UNL1        0.1130
     23 C          22.6155   40.9020   -9.6634 C.3     1  UNL1       -0.0050
     24 N          22.4600   39.4817   -9.2803 N.4     1  UNL1        0.2321
     25 C          21.2400   38.8020   -9.7483 C.3     1  UNL1       -0.0076
     26 C          20.1094   38.8097   -8.7292 C.ar    1  UNL1       -0.0027
     27 C          20.3165   39.1318   -7.3656 C.ar    1  UNL1       -0.0535
     28 C          19.2442   39.0785   -6.4563 C.ar    1  UNL1       -0.0611
     29 C          17.9648   38.6894   -6.8945 C.ar    1  UNL1       -0.0583
     30 C          17.7440   38.3648   -8.2490 C.ar    1  UNL1       -0.0444
     31 C          18.8203   38.4346   -9.1600 C.ar    1  UNL1       -0.0501
     32 C          16.3608   37.9290   -8.7136 C.3     1  UNL1       -0.0215
     33 C          16.3857   36.4871   -9.2402 C.3     1  UNL1       -0.0586
     34 C          15.7769   38.9074   -9.7449 C.3     1  UNL1       -0.0586
     35 O          25.0433   40.9500   -9.7393 O.3     1  UNL1       -0.3847
     36 C          29.1869   41.2752  -12.0291 C.3     1  UNL1        0.0724
     37 O          30.2262   41.7498  -12.8720 O.3     1  UNL1       -0.3784
     38 C          29.7633   42.1932  -14.1372 C.3     1  UNL1        0.0369
     39 H          23.8794   42.6555   -6.4963 H       1  UNL1        0.0299
     40 H          25.0687   43.2790   -8.7487 H       1  UNL1        0.0526
     41 H          24.0071   41.1506   -8.0378 H       1  UNL1        0.0666
     42 H          21.2656   44.1437   -6.0480 H       1  UNL1        0.0232
     43 H          22.0747   43.0918   -4.8913 H       1  UNL1        0.0232
     44 H          21.4290   42.4203   -6.3794 H       1  UNL1        0.0232
     45 H          23.4534   45.6343   -6.0748 H       1  UNL1        0.0268
     46 H          24.0566   44.5148   -4.8855 H       1  UNL1        0.0268
     47 H          26.0110   43.9875   -6.3757 H       1  UNL1        0.0265
     48 H          25.4497   45.2039   -7.4992 H       1  UNL1        0.0265
     49 H          25.5962   46.9312   -5.6684 H       1  UNL1        0.0265
     50 H          26.3086   45.7477   -4.6094 H       1  UNL1        0.0265
     51 H          27.4625   46.5999   -7.2996 H       1  UNL1        0.0265
     52 H          27.9423   47.2896   -5.7825 H       1  UNL1        0.0265
     53 H          28.8826   45.2287   -4.9664 H       1  UNL1        0.0266
     54 H          28.2583   44.2881   -6.2869 H       1  UNL1        0.0266
     55 H          30.1292   46.5955   -6.9304 H       1  UNL1        0.0280
     56 H          30.7863   45.1445   -6.2393 H       1  UNL1        0.0280
     57 H          30.9305   45.0416   -8.6906 H       1  UNL1        0.0461
     58 H          29.9447   43.7504   -8.0459 H       1  UNL1        0.0461
     59 H          28.3063   45.9955   -8.6817 H       1  UNL1        0.1461
     60 H          30.0726   43.1711  -10.3194 H       1  UNL1        0.0639
     61 H          26.5211   41.8805  -12.3761 H       1  UNL1        0.0628
     62 H          26.3608   45.3066   -9.7723 H       1  UNL1        0.0643
     63 H          22.9385   43.7239  -10.7554 H       1  UNL1        0.1494
     64 H          22.0576   43.5095   -8.4575 H       1  UNL1        0.0286
     65 H          23.1315   44.8499   -8.3740 H       1  UNL1        0.0286
     66 H          21.7482   41.4432   -9.2848 H       1  UNL1        0.0840
     67 H          22.6098   41.0046  -10.7503 H       1  UNL1        0.0840
     68 H          23.2692   38.9804   -9.6418 H       1  UNL1        0.2018
     69 H          20.9085   39.2137  -10.7020 H       1  UNL1        0.0866
     70 H          21.4954   37.7603   -9.9286 H       1  UNL1        0.0866
     71 H          21.2838   39.4200   -6.9832 H       1  UNL1        0.0622
     72 H          19.3931   39.3502   -5.4221 H       1  UNL1        0.0618
     73 H          17.1505   38.6409   -6.1846 H       1  UNL1        0.0620
     74 H          18.6574   38.1773  -10.1970 H       1  UNL1        0.0625
     75 H          15.6951   37.9434   -7.8495 H       1  UNL1        0.0343
     76 H          16.6565   35.7924   -8.4448 H       1  UNL1        0.0235
     77 H          17.1133   36.3736  -10.0400 H       1  UNL1        0.0235
     78 H          15.4167   36.1906   -9.6399 H       1  UNL1        0.0235
     79 H          15.7167   39.9156   -9.3324 H       1  UNL1        0.0235
     80 H          14.7676   38.6136  -10.0326 H       1  UNL1        0.0235
     81 H          16.3808   38.9526  -10.6507 H       1  UNL1        0.0235
     82 H          25.0816   40.0053   -9.6402 H       1  UNL1        0.2101
     83 H          29.6600   40.7111  -11.2254 H       1  UNL1        0.0610
     84 H          28.5411   40.5689  -12.5567 H       1  UNL1        0.0610
     85 H          30.6128   42.5197  -14.7379 H       1  UNL1        0.0524
     86 H          29.0776   43.0353  -14.0390 H       1  UNL1        0.0524
     87 H          29.2597   41.3901  -14.6777 H       1  UNL1        0.0524
     88 H          22.4891   39.3998   -8.2759 H       1  UNL1        0.2018
@<TRIPOS>BOND
     1     1     2    1
     2     1    42    1
     3     1    43    1
     4     1    44    1
     5     2    39    1
     6     2    21    1
     7     2     3    1
     8     3     4    1
     9     3    45    1
    10     3    46    1
    11     4     5    1
    12     4    47    1
    13     4    48    1
    14     5     6    1
    15     5    49    1
    16     5    50    1
    17     6     7    1
    18     6    51    1
    19     6    52    1
    20     7     8    1
    21     7    53    1
    22     7    54    1
    23     8     9    1
    24     8    55    1
    25     8    56    1
    26     9    10    1
    27     9    57    1
    28     9    58    1
    29    10    11    1
    30    10    59    1
    31    11    16   ar
    32    11    12   ar
    33    12    13   ar
    34    12    60    1
    35    13    14   ar
    36    13    36    1
    37    14    15   ar
    38    14    61    1
    39    15    16   ar
    40    15    17    1
    41    16    62    1
    42    17    18    2
    43    17    19   am
    44    19    20    1
    45    19    63    1
    46    20    40    1
    47    20    21    1
    48    20    22    1
    49    21    64    1
    50    21    65    1
    51    22    41    1
    52    22    23    1
    53    22    35    1
    54    23    24    1
    55    23    66    1
    56    23    67    1
    57    24    25    1
    58    24    68    1
    59    24    88    1
    60    25    26    1
    61    25    69    1
    62    25    70    1
    63    26    31   ar
    64    26    27   ar
    65    27    28   ar
    66    27    71    1
    67    28    29   ar
    68    28    72    1
    69    29    30   ar
    70    29    73    1
    71    30    31   ar
    72    30    32    1
    73    31    74    1
    74    32    33    1
    75    32    34    1
    76    32    75    1
    77    33    76    1
    78    33    77    1
    79    33    78    1
    80    34    79    1
    81    34    80    1
    82    34    81    1
    83    35    82    1
    84    36    37    1
    85    36    83    1
    86    36    84    1
    87    37    38    1
    88    38    85    1
    89    38    86    1
    90    38    87    1
