@<TRIPOS>MOLECULE
BACE_5.smi:1
 79 80 0 0 0
SMALL
GASTEIGER
****
Structure written by MMmdl.
@<TRIPOS>ATOM
      1 C          14.8215   38.4855   -7.4110 C.3     1  UNL1       -0.0649
      2 C          14.4618   39.7570   -6.6436 C.3     1  UNL1       -0.0505
      3 C          14.9038   41.0955   -7.2677 C.3     1  UNL1       -0.0112
      4 C          15.3429   41.0050   -8.6745 C.ar    1  UNL1        0.0364
      5 C          16.5945   40.9672   -9.1997 C.ar    1  UNL1       -0.0168
      6 C          16.3576   40.8212  -10.5903 C.ar    1  UNL1        0.0768
      7 N          15.0729   40.7960  -10.9166 N.ar    1  UNL1       -0.1774
      8 N          14.4588   40.8989   -9.7224 N.ar    1  UNL1       -0.2813
      9 C          17.3922   40.6786  -11.6399 C.3     1  UNL1        0.0403
     10 N          18.3600   41.7686  -11.5643 N.3     1  UNL1       -0.3080
     11 C          19.5004   41.6405  -12.4627 C.3     1  UNL1        0.0240
     12 C          20.4167   40.4413  -12.1364 C.3     1  UNL1        0.0859
     13 C          21.2809   40.5385  -10.8519 C.3     1  UNL1        0.0505
     14 C          20.4852   40.0987   -9.5926 C.3     1  UNL1       -0.0295
     15 C          21.2890   39.2567   -8.5791 C.3     1  UNL1       -0.0421
     16 C          20.4827   38.9622   -7.2884 C.3     1  UNL1       -0.0504
     17 C          20.3029   40.1460   -6.3210 C.3     1  UNL1       -0.0528
     18 C          21.6250   40.6512   -5.7267 C.3     1  UNL1       -0.0530
     19 C          21.4401   41.7692   -4.6856 C.3     1  UNL1       -0.0510
     20 C          22.7747   42.3288   -4.1593 C.3     1  UNL1       -0.0294
     21 C          23.5413   43.1589   -5.1997 C.3     1  UNL1        0.0483
     22 O          22.8439   44.3743   -5.4311 O.3     1  UNL1       -0.3706
     23 C          23.3573   45.1639   -6.4987 C.3     1  UNL1        0.1238
     24 C          22.9173   44.5900   -7.8619 C.2     1  UNL1        0.2417
     25 O          21.7124   44.6272   -8.1210 O.2     1  UNL1       -0.2731
     26 N          23.8291   44.0978   -8.7428 N.am    1  UNL1       -0.2914
     27 C          23.3777   43.6830  -10.0959 C.3     1  UNL1        0.0991
     28 C          23.0042   42.1916  -10.1159 C.2     1  UNL1        0.2336
     29 O          23.7819   41.3495   -9.6714 O.2     1  UNL1       -0.2738
     30 N          21.8189   41.8860  -10.6666 N.am    1  UNL1       -0.3084
     31 C          24.4630   43.9213  -11.1718 C.3     1  UNL1       -0.0379
     32 C          25.2443   43.8903   -8.3871 C.3     1  UNL1        0.0040
     33 C          21.7341   37.9273   -9.1966 C.3     1  UNL1       -0.0624
     34 O          21.2615   40.2541  -13.2397 O.3     1  UNL1       -0.3887
     35 H          13.4505   40.8530   -9.6180 H       1  UNL1        0.1885
     36 H          19.8461   39.5152  -12.1155 H       1  UNL1        0.0624
     37 H          22.1248   39.8673  -10.9987 H       1  UNL1        0.0524
     38 H          22.1977   39.7910   -8.3166 H       1  UNL1        0.0299
     39 H          22.5125   44.2753  -10.4028 H       1  UNL1        0.0594
     40 H          14.4599   37.6334   -6.8399 H       1  UNL1        0.0230
     41 H          15.8990   38.3734   -7.5311 H       1  UNL1        0.0230
     42 H          14.3441   38.4446   -8.3897 H       1  UNL1        0.0230
     43 H          14.8691   39.6934   -5.6400 H       1  UNL1        0.0266
     44 H          13.3878   39.7501   -6.4959 H       1  UNL1        0.0266
     45 H          15.7153   41.5084   -6.6682 H       1  UNL1        0.0328
     46 H          14.1043   41.8335   -7.2399 H       1  UNL1        0.0328
     47 H          17.5317   41.0059   -8.6637 H       1  UNL1        0.0654
     48 H          16.9063   40.6527  -12.6047 H       1  UNL1        0.0489
     49 H          17.8663   39.7093  -11.5062 H       1  UNL1        0.0489
     50 H          18.6783   41.8517  -10.6028 H       1  UNL1        0.1224
     51 H          20.0790   42.5590  -12.4391 H       1  UNL1        0.0450
     52 H          19.1421   41.5538  -13.4871 H       1  UNL1        0.0450
     53 H          20.0694   40.9796   -9.1032 H       1  UNL1        0.0286
     54 H          19.6183   39.5049   -9.8820 H       1  UNL1        0.0286
     55 H          19.5005   38.5727   -7.5583 H       1  UNL1        0.0268
     56 H          20.9662   38.1545   -6.7354 H       1  UNL1        0.0268
     57 H          19.6609   39.8163   -5.5042 H       1  UNL1        0.0265
     58 H          19.7723   40.9630   -6.8092 H       1  UNL1        0.0265
     59 H          22.1632   39.8177   -5.2732 H       1  UNL1        0.0265
     60 H          22.2506   41.0165   -6.5355 H       1  UNL1        0.0265
     61 H          20.8599   41.3777   -3.8489 H       1  UNL1        0.0266
     62 H          20.8455   42.5801   -5.1099 H       1  UNL1        0.0266
     63 H          22.5932   42.9461   -3.2784 H       1  UNL1        0.0287
     64 H          23.4008   41.5014   -3.8230 H       1  UNL1        0.0287
     65 H          23.6598   42.5912   -6.1200 H       1  UNL1        0.0560
     66 H          24.5456   43.3755   -4.8401 H       1  UNL1        0.0560
     67 H          24.4277   45.3304   -6.3943 H       1  UNL1        0.0657
     68 H          22.9061   46.1529   -6.4087 H       1  UNL1        0.0657
     69 H          21.2471   42.6514  -10.9873 H       1  UNL1        0.1491
     70 H          24.0496   43.7683  -12.1697 H       1  UNL1        0.0252
     71 H          25.3156   43.2470  -11.0850 H       1  UNL1        0.0252
     72 H          24.8356   44.9450  -11.1350 H       1  UNL1        0.0252
     73 H          25.6743   43.0443   -8.9197 H       1  UNL1        0.0429
     74 H          25.3990   43.6549   -7.3372 H       1  UNL1        0.0429
     75 H          25.8318   44.7738   -8.6311 H       1  UNL1        0.0429
     76 H          22.2743   37.3494   -8.4572 H       1  UNL1        0.0232
     77 H          22.4222   38.0448  -10.0313 H       1  UNL1        0.0232
     78 H          20.8761   37.3494   -9.5361 H       1  UNL1        0.0232
     79 H          22.1422   40.5494  -13.0236 H       1  UNL1        0.2099
@<TRIPOS>BOND
     1     1     2    1
     2     1    40    1
     3     1    41    1
     4     1    42    1
     5     2     3    1
     6     2    43    1
     7     2    44    1
     8     3     4    1
     9     3    45    1
    10     3    46    1
    11     4     8   ar
    12     4     5   ar
    13     5     6   ar
    14     5    47    1
    15     6     7   ar
    16     6     9    1
    17     7     8   ar
    18     8    35    1
    19     9    10    1
    20     9    48    1
    21     9    49    1
    22    10    11    1
    23    10    50    1
    24    11    12    1
    25    11    51    1
    26    11    52    1
    27    12    36    1
    28    12    13    1
    29    12    34    1
    30    13    37    1
    31    13    30    1
    32    13    14    1
    33    14    15    1
    34    14    53    1
    35    14    54    1
    36    15    38    1
    37    15    16    1
    38    15    33    1
    39    16    17    1
    40    16    55    1
    41    16    56    1
    42    17    18    1
    43    17    57    1
    44    17    58    1
    45    18    19    1
    46    18    59    1
    47    18    60    1
    48    19    20    1
    49    19    61    1
    50    19    62    1
    51    20    21    1
    52    20    63    1
    53    20    64    1
    54    21    22    1
    55    21    65    1
    56    21    66    1
    57    22    23    1
    58    23    24    1
    59    23    67    1
    60    23    68    1
    61    24    25    2
    62    24    26   am
    63    26    27    1
    64    26    32    1
    65    27    39    1
    66    27    28    1
    67    27    31    1
    68    28    29    2
    69    28    30   am
    70    30    69    1
    71    31    70    1
    72    31    71    1
    73    31    72    1
    74    32    73    1
    75    32    74    1
    76    32    75    1
    77    33    76    1
    78    33    77    1
    79    33    78    1
    80    34    79    1
