@<TRIPOS>MOLECULE
BACE_6.smi:1
 82 84 0 0 0
SMALL
GASTEIGER
****
Structure written by MMmdl.
@<TRIPOS>ATOM
      1 C          20.6350   51.1520   -8.0332 C.3     1  UNL1       -0.0493
      2 C          21.6286   49.9833   -7.9526 C.3     1  UNL1        0.0121
      3 N          20.9289   48.6926   -7.8535 N.am    1  UNL1       -0.2978
      4 C          20.6362   48.0793   -9.1658 C.3     1  UNL1        0.0150
      5 C          21.3811   46.7551   -9.4523 C.3     1  UNL1       -0.0371
      6 C          21.2746   46.3131  -10.9228 C.3     1  UNL1       -0.0516
      7 C          19.8492   45.9918  -11.4175 C.3     1  UNL1       -0.0528
      8 C          19.3733   44.5505  -11.1530 C.3     1  UNL1       -0.0504
      9 C          17.9394   44.2764  -11.6761 C.3     1  UNL1       -0.0421
     10 C          17.3306   42.9669  -11.1189 C.3     1  UNL1       -0.0295
     11 C          16.4705   43.1362   -9.8449 C.3     1  UNL1        0.0508
     12 N          17.3264   43.6140   -8.7609 N.am    1  UNL1       -0.3060
     13 C          17.1869   44.7593   -8.0747 C.2     1  UNL1        0.2444
     14 O          16.2299   45.5279   -8.1970 O.2     1  UNL1       -0.2702
     15 C          18.3769   45.1227   -7.2407 C.ar    1  UNL1        0.0374
     16 C          19.1015   44.1397   -6.5272 C.ar    1  UNL1       -0.0496
     17 C          20.2424   44.4970   -5.7875 C.ar    1  UNL1       -0.0603
     18 C          20.7050   45.8250   -5.8071 C.ar    1  UNL1       -0.0496
     19 C          20.0134   46.8102   -6.5414 C.ar    1  UNL1        0.0376
     20 C          18.8084   46.4662   -7.1954 C.ar    1  UNL1       -0.0375
     21 C          20.5878   48.1942   -6.6308 C.2     1  UNL1        0.2466
     22 O          20.8012   48.8041   -5.5820 O.2     1  UNL1       -0.2700
     23 C          15.7854   41.8068   -9.4489 C.3     1  UNL1        0.0859
     24 C          15.0540   41.8517   -8.0885 C.3     1  UNL1        0.0240
     25 N          14.9977   40.5534   -7.4155 N.3     1  UNL1       -0.3095
     26 C          16.2975   40.0805   -6.9477 C.3     1  UNL1        0.0213
     27 C          17.0039   39.1022   -7.8588 C.ar    1  UNL1       -0.0333
     28 C          16.2793   38.1465   -8.5946 C.ar    1  UNL1       -0.0573
     29 C          16.9623   37.2747   -9.4577 C.ar    1  UNL1       -0.0612
     30 C          18.3620   37.3550   -9.5816 C.ar    1  UNL1       -0.0583
     31 C          19.1045   38.2924   -8.8320 C.ar    1  UNL1       -0.0445
     32 C          18.4078   39.1686   -7.9723 C.ar    1  UNL1       -0.0539
     33 C          20.6211   38.3531   -8.9829 C.3     1  UNL1       -0.0215
     34 C          21.3623   38.7206   -7.6845 C.3     1  UNL1       -0.0586
     35 C          21.0171   39.2805  -10.1409 C.3     1  UNL1       -0.0586
     36 O          14.7939   41.4873  -10.4086 O.3     1  UNL1       -0.3887
     37 C          17.8947   44.2502  -13.2136 C.3     1  UNL1       -0.0624
     38 H          17.3013   45.0992  -11.3536 H       1  UNL1        0.0299
     39 H          15.6900   43.8699  -10.0456 H       1  UNL1        0.0524
     40 H          16.5425   41.0279   -9.4708 H       1  UNL1        0.0624
     41 H          21.1571   52.0935   -8.1958 H       1  UNL1        0.0245
     42 H          20.0494   51.2361   -7.1184 H       1  UNL1        0.0245
     43 H          19.9408   51.0209   -8.8648 H       1  UNL1        0.0245
     44 H          22.2871   49.9906   -8.8212 H       1  UNL1        0.0462
     45 H          22.2994   50.1265   -7.1035 H       1  UNL1        0.0462
     46 H          19.5605   47.9554   -9.2661 H       1  UNL1        0.0464
     47 H          20.8817   48.7826   -9.9634 H       1  UNL1        0.0464
     48 H          22.4379   46.8843   -9.2118 H       1  UNL1        0.0280
     49 H          21.0264   45.9462   -8.8185 H       1  UNL1        0.0280
     50 H          21.6852   47.1111  -11.5440 H       1  UNL1        0.0266
     51 H          21.9227   45.4527  -11.0961 H       1  UNL1        0.0266
     52 H          19.1269   46.7010  -11.0186 H       1  UNL1        0.0265
     53 H          19.8470   46.1698  -12.4863 H       1  UNL1        0.0265
     54 H          20.0700   43.8440  -11.6046 H       1  UNL1        0.0268
     55 H          19.4308   44.3709  -10.0820 H       1  UNL1        0.0268
     56 H          16.6965   42.5156  -11.8814 H       1  UNL1        0.0286
     57 H          18.1204   42.2325  -10.9497 H       1  UNL1        0.0286
     58 H          18.1603   43.0699   -8.5828 H       1  UNL1        0.1494
     59 H          18.7741   43.1083   -6.5207 H       1  UNL1        0.0625
     60 H          20.7840   43.7434   -5.2325 H       1  UNL1        0.0618
     61 H          21.6117   46.0792   -5.2744 H       1  UNL1        0.0625
     62 H          18.2453   47.2195   -7.7260 H       1  UNL1        0.0633
     63 H          15.5432   42.5483   -7.4110 H       1  UNL1        0.0450
     64 H          14.0559   42.2587   -8.2233 H       1  UNL1        0.0450
     65 H          14.3929   40.6414   -6.5969 H       1  UNL1        0.1223
     66 H          16.9603   40.9343   -6.8400 H       1  UNL1        0.0473
     67 H          16.1838   39.6066   -5.9736 H       1  UNL1        0.0473
     68 H          15.2036   38.0860   -8.4973 H       1  UNL1        0.0621
     69 H          16.4107   36.5504  -10.0344 H       1  UNL1        0.0618
     70 H          18.8595   36.6906  -10.2675 H       1  UNL1        0.0620
     71 H          18.9396   39.9090   -7.3921 H       1  UNL1        0.0623
     72 H          20.9509   37.3481   -9.2403 H       1  UNL1        0.0343
     73 H          21.0798   38.0589   -6.8665 H       1  UNL1        0.0235
     74 H          21.1629   39.7444   -7.3734 H       1  UNL1        0.0235
     75 H          22.4395   38.6351   -7.8237 H       1  UNL1        0.0235
     76 H          20.5652   38.9550  -11.0778 H       1  UNL1        0.0235
     77 H          22.0982   39.2923  -10.2843 H       1  UNL1        0.0235
     78 H          20.6930   40.3039   -9.9547 H       1  UNL1        0.0235
     79 H          14.2828   40.7760  -10.0422 H       1  UNL1        0.2099
     80 H          18.4629   43.4109  -13.6150 H       1  UNL1        0.0232
     81 H          18.2916   45.1700  -13.6406 H       1  UNL1        0.0232
     82 H          16.8690   44.1505  -13.5708 H       1  UNL1        0.0232
@<TRIPOS>BOND
     1     1     2    1
     2     1    41    1
     3     1    42    1
     4     1    43    1
     5     2     3    1
     6     2    44    1
     7     2    45    1
     8     3    21   am
     9     3     4    1
    10     4     5    1
    11     4    46    1
    12     4    47    1
    13     5     6    1
    14     5    48    1
    15     5    49    1
    16     6     7    1
    17     6    50    1
    18     6    51    1
    19     7     8    1
    20     7    52    1
    21     7    53    1
    22     8     9    1
    23     8    54    1
    24     8    55    1
    25     9    38    1
    26     9    10    1
    27     9    37    1
    28    10    11    1
    29    10    56    1
    30    10    57    1
    31    11    39    1
    32    11    12    1
    33    11    23    1
    34    12    13   am
    35    12    58    1
    36    13    14    2
    37    13    15    1
    38    15    20   ar
    39    15    16   ar
    40    16    17   ar
    41    16    59    1
    42    17    18   ar
    43    17    60    1
    44    18    19   ar
    45    18    61    1
    46    19    20   ar
    47    19    21    1
    48    20    62    1
    49    21    22    2
    50    23    40    1
    51    23    24    1
    52    23    36    1
    53    24    25    1
    54    24    63    1
    55    24    64    1
    56    25    26    1
    57    25    65    1
    58    26    27    1
    59    26    66    1
    60    26    67    1
    61    27    32   ar
    62    27    28   ar
    63    28    29   ar
    64    28    68    1
    65    29    30   ar
    66    29    69    1
    67    30    31   ar
    68    30    70    1
    69    31    32   ar
    70    31    33    1
    71    32    71    1
    72    33    34    1
    73    33    35    1
    74    33    72    1
    75    34    73    1
    76    34    74    1
    77    34    75    1
    78    35    76    1
    79    35    77    1
    80    35    78    1
    81    36    79    1
    82    37    80    1
    83    37    81    1
    84    37    82    1
