@<TRIPOS>MOLECULE
BACE_11.smi:1
 81 83 0 0 0
SMALL
GASTEIGER
****
Structure written by MMmdl.
@<TRIPOS>ATOM
      1 C          21.9242   41.8868   -4.3629 C.3     1  UNL1       -0.0379
      2 C          21.6261   41.7499   -5.8689 C.3     1  UNL1        0.0991
      3 C          20.7343   40.5496   -6.2549 C.2     1  UNL1        0.2336
      4 O          20.9075   39.4815   -5.6814 O.2     1  UNL1       -0.2738
      5 N          19.8623   40.7066   -7.2659 N.am    1  UNL1       -0.3080
      6 C          19.0852   39.6783   -7.9708 C.3     1  UNL1        0.0580
      7 C          19.9588   38.7539   -8.8526 C.3     1  UNL1       -0.0065
      8 C          20.6102   39.5537   -9.9690 C.ar    1  UNL1       -0.0421
      9 C          19.9987   39.6343  -11.2367 C.ar    1  UNL1       -0.0583
     10 C          20.5275   40.4937  -12.2168 C.ar    1  UNL1       -0.0580
     11 C          21.6489   41.2946  -11.9243 C.ar    1  UNL1       -0.0199
     12 C          22.2807   41.2114  -10.6591 C.ar    1  UNL1        0.1208
     13 C          21.7696   40.3101   -9.7069 C.ar    1  UNL1       -0.0167
     14 O          23.3634   41.9687  -10.2701 O.3     1  UNL1       -0.4920
     15 C          23.8198   42.9967  -11.1355 C.3     1  UNL1        0.0896
     16 C          24.8975   43.8285  -10.4222 C.3     1  UNL1       -0.0186
     17 C          24.3550   44.8408   -9.3891 C.3     1  UNL1       -0.0495
     18 C          24.5871   44.4777   -7.9051 C.3     1  UNL1       -0.0447
     19 C          23.6384   43.4237   -7.2894 C.3     1  UNL1        0.0242
     20 C          22.1801   43.8854   -7.0841 C.2     1  UNL1        0.2159
     21 O          21.8471   45.0026   -7.4870 O.2     1  UNL1       -0.2756
     22 N          21.2901   43.0693   -6.4577 N.am    1  UNL1       -0.2932
     23 C          19.9378   43.5914   -6.2070 C.3     1  UNL1        0.0039
     24 C          17.9810   38.9928   -7.1164 C.3     1  UNL1        0.1132
     25 C          16.7181   38.6391   -7.9448 C.3     1  UNL1       -0.0049
     26 N          15.4471   38.9501   -7.2444 N.4     1  UNL1        0.2321
     27 C          15.1400   40.3786   -6.9914 C.3     1  UNL1       -0.0076
     28 C          15.4804   41.3601   -8.1133 C.ar    1  UNL1       -0.0027
     29 C          16.6505   42.1431   -8.0405 C.ar    1  UNL1       -0.0535
     30 C          16.9069   43.1306   -9.0045 C.ar    1  UNL1       -0.0611
     31 C          15.9751   43.3795  -10.0269 C.ar    1  UNL1       -0.0583
     32 C          14.7842   42.6196  -10.1140 C.ar    1  UNL1       -0.0444
     33 C          14.5797   41.5773   -9.1798 C.ar    1  UNL1       -0.0501
     34 C          13.7076   42.9102  -11.1699 C.3     1  UNL1       -0.0215
     35 C          13.9921   44.1513  -12.0411 C.3     1  UNL1       -0.0586
     36 C          12.3051   43.0507  -10.5461 C.3     1  UNL1       -0.0586
     37 O          18.4601   37.7925   -6.5446 O.3     1  UNL1       -0.3847
     38 H          22.5648   41.4073   -6.2953 H       1  UNL1        0.0594
     39 H          18.5387   40.2975   -8.6788 H       1  UNL1        0.0529
     40 H          17.7064   39.6664   -6.3148 H       1  UNL1        0.0666
     41 H          22.2613   40.9426   -3.9334 H       1  UNL1        0.0252
     42 H          21.0395   42.2018   -3.8102 H       1  UNL1        0.0252
     43 H          22.7097   42.6208   -4.1810 H       1  UNL1        0.0252
     44 H          19.8154   41.6342   -7.6603 H       1  UNL1        0.1491
     45 H          20.7219   38.2506   -8.2545 H       1  UNL1        0.0332
     46 H          19.3459   37.9652   -9.2917 H       1  UNL1        0.0332
     47 H          19.1106   39.0579  -11.4538 H       1  UNL1        0.0620
     48 H          20.0587   40.5516  -13.1877 H       1  UNL1        0.0619
     49 H          22.0282   41.9483  -12.6941 H       1  UNL1        0.0654
     50 H          22.2460   40.2481   -8.7397 H       1  UNL1        0.0657
     51 H          24.2497   42.5502  -12.0323 H       1  UNL1        0.0696
     52 H          22.9997   43.6415  -11.4534 H       1  UNL1        0.0696
     53 H          25.6505   43.1745   -9.9788 H       1  UNL1        0.0298
     54 H          25.4226   44.3952  -11.1918 H       1  UNL1        0.0298
     55 H          24.8780   45.7817   -9.5624 H       1  UNL1        0.0266
     56 H          23.3077   45.0678   -9.5862 H       1  UNL1        0.0266
     57 H          25.6194   44.1483   -7.7761 H       1  UNL1        0.0270
     58 H          24.5101   45.3917   -7.3134 H       1  UNL1        0.0270
     59 H          23.6590   42.5183   -7.8937 H       1  UNL1        0.0358
     60 H          24.0415   43.1547   -6.3126 H       1  UNL1        0.0358
     61 H          19.3932   43.7142   -7.1450 H       1  UNL1        0.0429
     62 H          19.9821   44.5652   -5.7130 H       1  UNL1        0.0429
     63 H          19.3443   42.9492   -5.5585 H       1  UNL1        0.0429
     64 H          16.7077   39.1479   -8.9079 H       1  UNL1        0.0840
     65 H          16.7123   37.5760   -8.1935 H       1  UNL1        0.0840
     66 H          14.6945   38.5907   -7.8102 H       1  UNL1        0.2018
     67 H          14.0658   40.4280   -6.8394 H       1  UNL1        0.0866
     68 H          15.6080   40.7005   -6.0602 H       1  UNL1        0.0866
     69 H          17.3523   42.0015   -7.2353 H       1  UNL1        0.0622
     70 H          17.8068   43.7218   -8.9447 H       1  UNL1        0.0618
     71 H          16.1954   44.1750  -10.7197 H       1  UNL1        0.0620
     72 H          13.6833   40.9771   -9.2404 H       1  UNL1        0.0625
     73 H          13.6855   42.0403  -11.8247 H       1  UNL1        0.0343
     74 H          14.9469   44.0836  -12.5610 H       1  UNL1        0.0235
     75 H          14.0101   45.0620  -11.4400 H       1  UNL1        0.0235
     76 H          13.2239   44.2746  -12.8061 H       1  UNL1        0.0235
     77 H          11.9834   42.1379  -10.0438 H       1  UNL1        0.0235
     78 H          11.5571   43.2696  -11.3103 H       1  UNL1        0.0235
     79 H          12.2830   43.8566   -9.8108 H       1  UNL1        0.0235
     80 H          17.7358   37.3136   -6.1552 H       1  UNL1        0.2101
     81 H          15.4131   38.4389   -6.3630 H       1  UNL1        0.2018
@<TRIPOS>BOND
     1     1     2    1
     2     1    41    1
     3     1    42    1
     4     1    43    1
     5     2    38    1
     6     2    22    1
     7     2     3    1
     8     3     4    2
     9     3     5   am
    10     5     6    1
    11     5    44    1
    12     6    39    1
    13     6     7    1
    14     6    24    1
    15     7     8    1
    16     7    45    1
    17     7    46    1
    18     8    13   ar
    19     8     9   ar
    20     9    10   ar
    21     9    47    1
    22    10    11   ar
    23    10    48    1
    24    11    12   ar
    25    11    49    1
    26    12    13   ar
    27    12    14    1
    28    13    50    1
    29    14    15    1
    30    15    16    1
    31    15    51    1
    32    15    52    1
    33    16    17    1
    34    16    53    1
    35    16    54    1
    36    17    18    1
    37    17    55    1
    38    17    56    1
    39    18    19    1
    40    18    57    1
    41    18    58    1
    42    19    20    1
    43    19    59    1
    44    19    60    1
    45    20    21    2
    46    20    22   am
    47    22    23    1
    48    23    61    1
    49    23    62    1
    50    23    63    1
    51    24    40    1
    52    24    25    1
    53    24    37    1
    54    25    26    1
    55    25    64    1
    56    25    65    1
    57    26    27    1
    58    26    66    1
    59    26    81    1
    60    27    28    1
    61    27    67    1
    62    27    68    1
    63    28    33   ar
    64    28    29   ar
    65    29    30   ar
    66    29    69    1
    67    30    31   ar
    68    30    70    1
    69    31    32   ar
    70    31    71    1
    71    32    33   ar
    72    32    34    1
    73    33    72    1
    74    34    35    1
    75    34    36    1
    76    34    73    1
    77    35    74    1
    78    35    75    1
    79    35    76    1
    80    36    77    1
    81    36    78    1
    82    36    79    1
    83    37    80    1
