@<TRIPOS>MOLECULE
BACE_15.smi:1
 82 85 0 0 0
SMALL
GASTEIGER
****
Structure written by MMmdl.
@<TRIPOS>ATOM
      1 C          26.6777   49.1924   -2.4107 C.3     1  UNL1       -0.0586
      2 C          25.4156   49.8283   -1.7954 C.3     1  UNL1       -0.0215
      3 C          25.0894   49.2004   -0.4336 C.3     1  UNL1       -0.0586
      4 C          24.1996   49.7870   -2.7171 C.ar    1  UNL1       -0.0445
      5 C          23.1707   50.7489   -2.6158 C.ar    1  UNL1       -0.0583
      6 C          22.0603   50.6962   -3.4780 C.ar    1  UNL1       -0.0612
      7 C          21.9582   49.6718   -4.4383 C.ar    1  UNL1       -0.0573
      8 C          22.9789   48.7067   -4.5612 C.ar    1  UNL1       -0.0333
      9 C          24.1019   48.7779   -3.6994 C.ar    1  UNL1       -0.0539
     10 C          22.8355   47.6231   -5.6262 C.3     1  UNL1        0.0213
     11 N          21.7845   47.8868   -6.6078 N.3     1  UNL1       -0.3095
     12 C          20.9791   46.7258   -6.9692 C.3     1  UNL1        0.0240
     13 C          20.2241   46.1484   -5.7484 C.3     1  UNL1        0.0862
     14 C          20.3804   44.6111   -5.5825 C.3     1  UNL1        0.0545
     15 C          21.8366   44.0961   -5.7097 C.3     1  UNL1       -0.0066
     16 C          21.9729   42.6101   -5.4324 C.ar    1  UNL1       -0.0421
     17 C          21.7747   42.1231   -4.1251 C.ar    1  UNL1       -0.0583
     18 C          21.8623   40.7437   -3.8699 C.ar    1  UNL1       -0.0580
     19 C          22.1376   39.8506   -4.9225 C.ar    1  UNL1       -0.0199
     20 C          22.3427   40.3207   -6.2365 C.ar    1  UNL1        0.1208
     21 C          22.2761   41.7158   -6.4799 C.ar    1  UNL1       -0.0167
     22 O          22.5811   39.3595   -7.1952 O.3     1  UNL1       -0.4920
     23 C          22.8120   39.7285   -8.5508 C.3     1  UNL1        0.0897
     24 C          22.3550   38.5488   -9.4184 C.3     1  UNL1       -0.0156
     25 C          20.8203   38.4484   -9.4786 C.3     1  UNL1       -0.0156
     26 C          20.2054   39.3194  -10.5864 C.3     1  UNL1        0.0897
     27 O          18.8071   39.4697  -10.3746 O.3     1  UNL1       -0.4919
     28 C          18.3421   40.4689   -9.5442 C.ar    1  UNL1        0.1215
     29 C          16.9716   40.4355   -9.2366 C.ar    1  UNL1       -0.0145
     30 C          16.3835   41.3885   -8.3826 C.ar    1  UNL1       -0.0178
     31 C          17.1821   42.4254   -7.8494 C.ar    1  UNL1       -0.0440
     32 C          18.5553   42.5025   -8.1776 C.ar    1  UNL1        0.0405
     33 C          19.1273   41.5180   -9.0112 C.ar    1  UNL1       -0.0078
     34 C          19.4187   43.6269   -7.6902 C.2     1  UNL1        0.2445
     35 O          20.1489   44.2370   -8.4724 O.2     1  UNL1       -0.2702
     36 N          19.4081   43.8295   -6.3628 N.am    1  UNL1       -0.3057
     37 C          14.8939   41.3109   -8.0782 C.3     1  UNL1        0.0725
     38 O          14.4603   40.0092   -7.6968 O.3     1  UNL1       -0.3784
     39 C          15.3828   39.2701   -6.9103 C.3     1  UNL1        0.0369
     40 O          18.8665   46.4773   -5.9514 O.3     1  UNL1       -0.3887
     41 H          20.5708   46.6445   -4.8409 H       1  UNL1        0.0624
     42 H          20.0702   44.3865   -4.5625 H       1  UNL1        0.0527
     43 H          26.8940   49.5996   -3.3977 H       1  UNL1        0.0235
     44 H          26.5812   48.1114   -2.5136 H       1  UNL1        0.0235
     45 H          27.5511   49.3734   -1.7839 H       1  UNL1        0.0235
     46 H          25.6461   50.8795   -1.6226 H       1  UNL1        0.0343
     47 H          24.2585   49.7134    0.0498 H       1  UNL1        0.0235
     48 H          25.9435   49.2525    0.2409 H       1  UNL1        0.0235
     49 H          24.8174   48.1497   -0.5391 H       1  UNL1        0.0235
     50 H          23.2167   51.5377   -1.8810 H       1  UNL1        0.0620
     51 H          21.2822   51.4414   -3.3934 H       1  UNL1        0.0618
     52 H          21.0954   49.6359   -5.0885 H       1  UNL1        0.0621
     53 H          24.9068   48.0614   -3.7800 H       1  UNL1        0.0623
     54 H          23.7957   47.4926   -6.1240 H       1  UNL1        0.0473
     55 H          22.6350   46.6828   -5.1131 H       1  UNL1        0.0473
     56 H          22.1873   48.2868   -7.4588 H       1  UNL1        0.1223
     57 H          20.2575   47.0014   -7.7387 H       1  UNL1        0.0450
     58 H          21.6130   45.9583   -7.4144 H       1  UNL1        0.0450
     59 H          22.2342   44.3192   -6.6995 H       1  UNL1        0.0332
     60 H          22.4802   44.6209   -5.0055 H       1  UNL1        0.0332
     61 H          21.5424   42.8020   -3.3165 H       1  UNL1        0.0620
     62 H          21.7009   40.3668   -2.8706 H       1  UNL1        0.0619
     63 H          22.1868   38.7896   -4.7215 H       1  UNL1        0.0654
     64 H          22.4319   42.1274   -7.4650 H       1  UNL1        0.0657
     65 H          22.2680   40.6147   -8.8680 H       1  UNL1        0.0696
     66 H          23.8757   39.9222   -8.6888 H       1  UNL1        0.0696
     67 H          22.7592   38.6426  -10.4260 H       1  UNL1        0.0299
     68 H          22.7702   37.6271   -9.0085 H       1  UNL1        0.0299
     69 H          20.5239   37.4143   -9.6484 H       1  UNL1        0.0299
     70 H          20.4005   38.7170   -8.5088 H       1  UNL1        0.0299
     71 H          20.7199   40.2695  -10.7141 H       1  UNL1        0.0696
     72 H          20.3322   38.8084  -11.5401 H       1  UNL1        0.0696
     73 H          16.3633   39.6591   -9.6735 H       1  UNL1        0.0657
     74 H          16.7320   43.1751   -7.2137 H       1  UNL1        0.0628
     75 H          20.1793   41.6027   -9.2280 H       1  UNL1        0.0662
     76 H          18.7686   43.2599   -5.8281 H       1  UNL1        0.1494
     77 H          14.6740   41.9777   -7.2423 H       1  UNL1        0.0610
     78 H          14.3154   41.6913   -8.9235 H       1  UNL1        0.0610
     79 H          15.0455   38.2367   -6.8404 H       1  UNL1        0.0524
     80 H          15.4476   39.6521   -5.8946 H       1  UNL1        0.0524
     81 H          16.3812   39.2616   -7.3533 H       1  UNL1        0.0524
     82 H          18.5821   46.0504   -6.7528 H       1  UNL1        0.2099
@<TRIPOS>BOND
     1     1     2    1
     2     1    43    1
     3     1    44    1
     4     1    45    1
     5     2     3    1
     6     2     4    1
     7     2    46    1
     8     3    47    1
     9     3    48    1
    10     3    49    1
    11     4     9   ar
    12     4     5   ar
    13     5     6   ar
    14     5    50    1
    15     6     7   ar
    16     6    51    1
    17     7     8   ar
    18     7    52    1
    19     8     9   ar
    20     8    10    1
    21     9    53    1
    22    10    11    1
    23    10    54    1
    24    10    55    1
    25    11    12    1
    26    11    56    1
    27    12    13    1
    28    12    57    1
    29    12    58    1
    30    13    41    1
    31    13    14    1
    32    13    40    1
    33    14    42    1
    34    14    36    1
    35    14    15    1
    36    15    16    1
    37    15    59    1
    38    15    60    1
    39    16    21   ar
    40    16    17   ar
    41    17    18   ar
    42    17    61    1
    43    18    19   ar
    44    18    62    1
    45    19    20   ar
    46    19    63    1
    47    20    21   ar
    48    20    22    1
    49    21    64    1
    50    22    23    1
    51    23    24    1
    52    23    65    1
    53    23    66    1
    54    24    25    1
    55    24    67    1
    56    24    68    1
    57    25    26    1
    58    25    69    1
    59    25    70    1
    60    26    27    1
    61    26    71    1
    62    26    72    1
    63    27    28    1
    64    28    33   ar
    65    28    29   ar
    66    29    30   ar
    67    29    73    1
    68    30    31   ar
    69    30    37    1
    70    31    32   ar
    71    31    74    1
    72    32    33   ar
    73    32    34    1
    74    33    75    1
    75    34    35    2
    76    34    36   am
    77    36    76    1
    78    37    38    1
    79    37    77    1
    80    37    78    1
    81    38    39    1
    82    39    79    1
    83    39    80    1
    84    39    81    1
    85    40    82    1
