@<TRIPOS>MOLECULE
BACE_16.smi:1
 85 88 0 0 0
SMALL
GASTEIGER
****
Structure written by MMmdl.
@<TRIPOS>ATOM
      1 C          30.4997   41.6024  -11.1755 C.3     1  UNL1       -0.0586
      2 C          29.4638   42.4730  -11.9016 C.3     1  UNL1       -0.0215
      3 C          30.1161   43.7153  -12.5272 C.3     1  UNL1       -0.0586
      4 C          28.2995   42.8616  -10.9977 C.ar    1  UNL1       -0.0444
      5 C          28.5233   43.5701   -9.7959 C.ar    1  UNL1       -0.0583
      6 C          27.4380   43.9709   -8.9938 C.ar    1  UNL1       -0.0611
      7 C          26.1210   43.6720   -9.3897 C.ar    1  UNL1       -0.0535
      8 C          25.8873   42.9609  -10.5852 C.ar    1  UNL1       -0.0027
      9 C          26.9778   42.5513  -11.3808 C.ar    1  UNL1       -0.0501
     10 C          24.4710   42.6622  -11.0312 C.3     1  UNL1       -0.0076
     11 N          23.9576   41.4275  -10.4025 N.4     1  UNL1        0.2321
     12 C          23.0404   41.6803   -9.2692 C.3     1  UNL1       -0.0049
     13 C          22.5320   40.3836   -8.6001 C.3     1  UNL1        0.1133
     14 C          21.5036   40.6042   -7.4505 C.3     1  UNL1        0.0583
     15 C          20.8870   39.2780   -6.9286 C.3     1  UNL1       -0.0065
     16 C          19.6773   38.8056   -7.7274 C.ar    1  UNL1       -0.0421
     17 C          19.8566   38.0387   -8.8928 C.ar    1  UNL1       -0.0583
     18 C          18.7395   37.6191   -9.6342 C.ar    1  UNL1       -0.0580
     19 C          17.4450   38.0115   -9.2564 C.ar    1  UNL1       -0.0199
     20 C          17.2477   38.8209   -8.1127 C.ar    1  UNL1        0.1208
     21 C          18.3703   39.1682   -7.3337 C.ar    1  UNL1       -0.0167
     22 O          16.0227   39.3185   -7.7166 O.3     1  UNL1       -0.4920
     23 C          14.9065   39.1911   -8.5946 C.3     1  UNL1        0.0897
     24 C          15.0163   40.1460   -9.8045 C.3     1  UNL1       -0.0156
     25 C          14.7218   41.6119   -9.4458 C.3     1  UNL1       -0.0156
     26 C          15.0588   42.6068  -10.5697 C.3     1  UNL1        0.0897
     27 O          16.4669   42.7522  -10.7232 O.3     1  UNL1       -0.4918
     28 C          17.1369   43.4077   -9.7146 C.ar    1  UNL1        0.1247
     29 C          18.3396   42.8419   -9.2592 C.ar    1  UNL1       -0.0076
     30 C          19.0693   43.4366   -8.2042 C.ar    1  UNL1        0.0436
     31 C          18.6104   44.6469   -7.6450 C.ar    1  UNL1       -0.0076
     32 C          17.4306   45.2585   -8.1274 C.ar    1  UNL1        0.1253
     33 C          16.6878   44.6187   -9.1400 C.ar    1  UNL1        0.0218
     34 O          16.9480   46.4558   -7.6532 O.3     1  UNL1       -0.4844
     35 C          17.8779   47.4033   -7.1399 C.3     1  UNL1        0.1470
     36 C          17.6596   48.7389   -7.8479 C.2     1  UNL1        0.1673
     37 O          17.7478   49.8033   -7.2403 O.2     1  UNL1       -0.2941
     38 C          17.2647   48.7126   -9.3198 C.3     1  UNL1       -0.0026
     39 C          20.3433   42.8189   -7.7087 C.2     1  UNL1        0.2446
     40 O          21.2332   43.4994   -7.1988 O.2     1  UNL1       -0.2702
     41 N          20.4187   41.4921   -7.8603 N.am    1  UNL1       -0.3055
     42 O          23.6602   39.7489   -8.0399 O.3     1  UNL1       -0.3847
     43 H          22.0991   39.7338   -9.3610 H       1  UNL1        0.0666
     44 H          22.0371   41.0677   -6.6177 H       1  UNL1        0.0529
     45 H          30.0600   40.6642  -10.8391 H       1  UNL1        0.0235
     46 H          30.9279   42.1143  -10.3125 H       1  UNL1        0.0235
     47 H          31.3223   41.3503  -11.8449 H       1  UNL1        0.0235
     48 H          29.0653   41.8727  -12.7207 H       1  UNL1        0.0343
     49 H          29.3876   44.3032  -13.0849 H       1  UNL1        0.0235
     50 H          30.9079   43.4337  -13.2206 H       1  UNL1        0.0235
     51 H          30.5576   44.3621  -11.7691 H       1  UNL1        0.0235
     52 H          29.5279   43.8248   -9.4922 H       1  UNL1        0.0620
     53 H          27.6169   44.5171   -8.0783 H       1  UNL1        0.0618
     54 H          25.2952   43.9958   -8.7731 H       1  UNL1        0.0622
     55 H          26.7989   42.0149  -12.3015 H       1  UNL1        0.0625
     56 H          23.8259   43.5171  -10.8205 H       1  UNL1        0.0866
     57 H          24.4589   42.5501  -12.1142 H       1  UNL1        0.0866
     58 H          23.4739   40.8980  -11.1171 H       1  UNL1        0.2018
     59 H          23.5291   42.3156   -8.5285 H       1  UNL1        0.0840
     60 H          22.2023   42.2461   -9.6736 H       1  UNL1        0.0840
     61 H          21.6325   38.4832   -6.8830 H       1  UNL1        0.0332
     62 H          20.5643   39.4254   -5.8958 H       1  UNL1        0.0332
     63 H          20.8470   37.7397   -9.2027 H       1  UNL1        0.0620
     64 H          18.8653   36.9919  -10.5028 H       1  UNL1        0.0619
     65 H          16.6236   37.6870   -9.8756 H       1  UNL1        0.0654
     66 H          18.2210   39.7504   -6.4398 H       1  UNL1        0.0657
     67 H          14.7709   38.1569   -8.9089 H       1  UNL1        0.0696
     68 H          14.0094   39.4250   -8.0229 H       1  UNL1        0.0696
     69 H          16.0011   40.0718  -10.2626 H       1  UNL1        0.0299
     70 H          14.3080   39.8264  -10.5681 H       1  UNL1        0.0299
     71 H          13.6601   41.6978   -9.2392 H       1  UNL1        0.0299
     72 H          15.2324   41.8899   -8.5228 H       1  UNL1        0.0299
     73 H          14.6507   42.2414  -11.5117 H       1  UNL1        0.0696
     74 H          14.5693   43.5628  -10.3935 H       1  UNL1        0.0696
     75 H          18.6747   41.9243   -9.7216 H       1  UNL1        0.0662
     76 H          19.1751   45.0929   -6.8397 H       1  UNL1        0.0662
     77 H          15.7862   45.0947   -9.4930 H       1  UNL1        0.0691
     78 H          17.7292   47.5206   -6.0657 H       1  UNL1        0.0777
     79 H          18.9169   47.1233   -7.3068 H       1  UNL1        0.0777
     80 H          16.3388   48.1531   -9.4577 H       1  UNL1        0.0307
     81 H          18.0487   48.2382   -9.9113 H       1  UNL1        0.0307
     82 H          17.1139   49.7258   -9.6936 H       1  UNL1        0.0307
     83 H          19.5964   41.0292   -8.2218 H       1  UNL1        0.1494
     84 H          24.0470   39.1539   -8.6783 H       1  UNL1        0.2101
     85 H          24.7441   40.8790  -10.0791 H       1  UNL1        0.2018
@<TRIPOS>BOND
     1     1     2    1
     2     1    45    1
     3     1    46    1
     4     1    47    1
     5     2     3    1
     6     2     4    1
     7     2    48    1
     8     3    49    1
     9     3    50    1
    10     3    51    1
    11     4     9   ar
    12     4     5   ar
    13     5     6   ar
    14     5    52    1
    15     6     7   ar
    16     6    53    1
    17     7     8   ar
    18     7    54    1
    19     8     9   ar
    20     8    10    1
    21     9    55    1
    22    10    11    1
    23    10    56    1
    24    10    57    1
    25    11    12    1
    26    11    58    1
    27    11    85    1
    28    12    13    1
    29    12    59    1
    30    12    60    1
    31    13    43    1
    32    13    14    1
    33    13    42    1
    34    14    44    1
    35    14    41    1
    36    14    15    1
    37    15    16    1
    38    15    61    1
    39    15    62    1
    40    16    21   ar
    41    16    17   ar
    42    17    18   ar
    43    17    63    1
    44    18    19   ar
    45    18    64    1
    46    19    20   ar
    47    19    65    1
    48    20    21   ar
    49    20    22    1
    50    21    66    1
    51    22    23    1
    52    23    24    1
    53    23    67    1
    54    23    68    1
    55    24    25    1
    56    24    69    1
    57    24    70    1
    58    25    26    1
    59    25    71    1
    60    25    72    1
    61    26    27    1
    62    26    73    1
    63    26    74    1
    64    27    28    1
    65    28    33   ar
    66    28    29   ar
    67    29    30   ar
    68    29    75    1
    69    30    31   ar
    70    30    39    1
    71    31    32   ar
    72    31    76    1
    73    32    33   ar
    74    32    34    1
    75    33    77    1
    76    34    35    1
    77    35    36    1
    78    35    78    1
    79    35    79    1
    80    36    37    2
    81    36    38    1
    82    38    80    1
    83    38    81    1
    84    38    82    1
    85    39    40    2
    86    39    41   am
    87    41    83    1
    88    42    84    1
