@<TRIPOS>MOLECULE
BACE_7.smi:1
 98 102 0 0 0
SMALL
GASTEIGER
****
Structure written by MMmdl.
@<TRIPOS>ATOM
      1 C          25.8992   43.2297  -12.1011 C.3     1  UNL1       -0.0624
      2 C          26.3621   42.6476  -10.7589 C.3     1  UNL1       -0.0421
      3 C          27.7878   42.0588  -10.8620 C.3     1  UNL1       -0.0504
      4 C          28.9006   43.1277  -10.8040 C.3     1  UNL1       -0.0528
      5 C          29.1581   43.6584   -9.3804 C.3     1  UNL1       -0.0516
      6 C          29.7848   45.0626   -9.3447 C.3     1  UNL1       -0.0371
      7 C          29.9346   45.6388   -7.9208 C.3     1  UNL1        0.0156
      8 N          28.6316   45.7705   -7.2271 N.am    1  UNL1       -0.2907
      9 C          27.8438   46.8398   -7.5273 C.2     1  UNL1        0.2471
     10 O          28.2622   47.8546   -8.0857 O.2     1  UNL1       -0.2700
     11 C          26.3672   46.7134   -7.3130 C.ar    1  UNL1        0.0384
     12 C          25.6645   47.6139   -6.4928 C.ar    1  UNL1       -0.0373
     13 C          24.2675   47.4844   -6.3170 C.ar    1  UNL1        0.0383
     14 C          23.5766   46.4391   -6.9841 C.ar    1  UNL1       -0.0373
     15 C          24.2753   45.5358   -7.8202 C.ar    1  UNL1        0.0381
     16 C          25.6593   45.7133   -8.0066 C.ar    1  UNL1       -0.0375
     17 C          23.5668   44.4382   -8.5658 C.2     1  UNL1        0.2444
     18 O          22.4358   44.6050   -9.0183 O.2     1  UNL1       -0.2702
     19 N          24.2741   43.3047   -8.7073 N.am    1  UNL1       -0.3060
     20 C          24.0188   42.2399   -9.6813 C.3     1  UNL1        0.0508
     21 C          25.3497   41.6245  -10.1823 C.3     1  UNL1       -0.0295
     22 C          22.9850   41.2173   -9.1411 C.3     1  UNL1        0.0859
     23 C          22.1545   40.5921  -10.2746 C.3     1  UNL1        0.0240
     24 N          20.8838   40.1127   -9.7503 N.3     1  UNL1       -0.3095
     25 C          19.9907   39.5443  -10.7477 C.3     1  UNL1        0.0213
     26 C          18.7611   38.9650  -10.0855 C.ar    1  UNL1       -0.0333
     27 C          18.8652   37.7482   -9.3855 C.ar    1  UNL1       -0.0573
     28 C          17.7350   37.1976   -8.7640 C.ar    1  UNL1       -0.0612
     29 C          16.5001   37.8636   -8.8302 C.ar    1  UNL1       -0.0583
     30 C          16.3760   39.0923   -9.5198 C.ar    1  UNL1       -0.0445
     31 C          17.5260   39.6393  -10.1367 C.ar    1  UNL1       -0.0539
     32 C          15.0426   39.8418   -9.5982 C.3     1  UNL1       -0.0215
     33 C          13.8616   39.0603   -8.9931 C.3     1  UNL1       -0.0586
     34 C          14.6924   40.2448  -11.0365 C.3     1  UNL1       -0.0586
     35 O          23.6109   40.1531   -8.4395 O.3     1  UNL1       -0.3887
     36 C          23.5611   48.4304   -5.4539 C.ar    1  UNL1        0.2271
     37 N          24.0704   49.4458   -4.7489 N.ar    1  UNL1       -0.2175
     38 C          22.9936   50.0159   -4.0884 C.ar    1  UNL1        0.0663
     39 C          21.8645   49.3329   -4.4581 C.ar    1  UNL1        0.1125
     40 O          22.2081   48.3219   -5.3163 O.2     1  UNL1       -0.4436
     41 C          28.4771   44.9096   -6.0217 C.3     1  UNL1        0.0487
     42 C          27.1957   44.0510   -5.9221 C.3     1  UNL1       -0.0422
     43 C          28.7866   45.6742   -4.7435 C.ar    1  UNL1       -0.0273
     44 C          27.7778   46.3225   -3.9977 C.ar    1  UNL1       -0.0568
     45 C          28.1081   47.0557   -2.8435 C.ar    1  UNL1       -0.0614
     46 C          29.4486   47.1386   -2.4244 C.ar    1  UNL1       -0.0617
     47 C          30.4586   46.4848   -3.1576 C.ar    1  UNL1       -0.0614
     48 C          30.1290   45.7640   -4.3175 C.ar    1  UNL1       -0.0568
     49 H          26.4222   43.4770  -10.0649 H       1  UNL1        0.0299
     50 H          23.5556   42.7334  -10.5373 H       1  UNL1        0.0524
     51 H          22.3094   41.7311   -8.4545 H       1  UNL1        0.0624
     52 H          29.2521   44.1488   -6.0775 H       1  UNL1        0.0548
     53 H          25.7987   42.4414  -12.8393 H       1  UNL1        0.0232
     54 H          26.6055   43.9571  -12.4945 H       1  UNL1        0.0232
     55 H          24.9385   43.7307  -12.0164 H       1  UNL1        0.0232
     56 H          27.9500   41.3522  -10.0480 H       1  UNL1        0.0268
     57 H          27.8774   41.4760  -11.7793 H       1  UNL1        0.0268
     58 H          29.8297   42.7059  -11.1902 H       1  UNL1        0.0265
     59 H          28.6491   43.9490  -11.4727 H       1  UNL1        0.0265
     60 H          28.2218   43.6775   -8.8251 H       1  UNL1        0.0266
     61 H          29.8057   42.9624   -8.8467 H       1  UNL1        0.0266
     62 H          30.7646   45.0281   -9.8222 H       1  UNL1        0.0280
     63 H          29.1854   45.7451   -9.9477 H       1  UNL1        0.0280
     64 H          30.6365   45.0175   -7.3652 H       1  UNL1        0.0465
     65 H          30.4299   46.6098   -7.9740 H       1  UNL1        0.0465
     66 H          26.2058   48.3998   -5.9829 H       1  UNL1        0.0633
     67 H          22.5102   46.3253   -6.8526 H       1  UNL1        0.0633
     68 H          26.2121   45.0665   -8.6680 H       1  UNL1        0.0633
     69 H          25.1545   43.2483   -8.2200 H       1  UNL1        0.1494
     70 H          25.1462   40.8526  -10.9256 H       1  UNL1        0.0286
     71 H          25.8147   41.1011   -9.3498 H       1  UNL1        0.0286
     72 H          21.9511   41.3381  -11.0448 H       1  UNL1        0.0450
     73 H          22.7061   39.7899  -10.7648 H       1  UNL1        0.0450
     74 H          21.0468   39.4520   -8.9962 H       1  UNL1        0.1223
     75 H          19.6985   40.3019  -11.4747 H       1  UNL1        0.0473
     76 H          20.4902   38.7485  -11.2988 H       1  UNL1        0.0473
     77 H          19.8182   37.2456   -9.3154 H       1  UNL1        0.0621
     78 H          17.8104   36.2698   -8.2146 H       1  UNL1        0.0618
     79 H          15.6682   37.4086   -8.3111 H       1  UNL1        0.0620
     80 H          17.4710   40.5898  -10.6456 H       1  UNL1        0.0623
     81 H          15.1600   40.7570   -9.0177 H       1  UNL1        0.0343
     82 H          13.9390   38.9890   -7.9056 H       1  UNL1        0.0235
     83 H          13.8074   38.0511   -9.3916 H       1  UNL1        0.0235
     84 H          12.9065   39.5261   -9.2400 H       1  UNL1        0.0235
     85 H          15.4612   40.8655  -11.4957 H       1  UNL1        0.0235
     86 H          13.7605   40.8101  -11.0670 H       1  UNL1        0.0235
     87 H          14.5631   39.3504  -11.6410 H       1  UNL1        0.0235
     88 H          24.0616   39.5867   -9.0584 H       1  UNL1        0.2099
     89 H          23.1101   50.8540   -3.4143 H       1  UNL1        0.0862
     90 H          20.8201   49.4248   -4.2017 H       1  UNL1        0.1046
     91 H          27.2707   43.3552   -5.0861 H       1  UNL1        0.0251
     92 H          27.0416   43.4487   -6.8164 H       1  UNL1        0.0251
     93 H          26.2914   44.6283   -5.7322 H       1  UNL1        0.0251
     94 H          26.7419   46.2673   -4.2981 H       1  UNL1        0.0621
     95 H          27.3382   47.5600   -2.2794 H       1  UNL1        0.0618
     96 H          29.7063   47.7059   -1.5422 H       1  UNL1        0.0618
     97 H          31.4901   46.5501   -2.8415 H       1  UNL1        0.0618
     98 H          30.9196   45.2969   -4.8819 H       1  UNL1        0.0621
@<TRIPOS>BOND
     1     1     2    1
     2     1    53    1
     3     1    54    1
     4     1    55    1
     5     2    49    1
     6     2    21    1
     7     2     3    1
     8     3     4    1
     9     3    56    1
    10     3    57    1
    11     4     5    1
    12     4    58    1
    13     4    59    1
    14     5     6    1
    15     5    60    1
    16     5    61    1
    17     6     7    1
    18     6    62    1
    19     6    63    1
    20     7     8    1
    21     7    64    1
    22     7    65    1
    23     8     9   am
    24     8    41    1
    25     9    10    2
    26     9    11    1
    27    11    16   ar
    28    11    12   ar
    29    12    13   ar
    30    12    66    1
    31    13    14   ar
    32    13    36    1
    33    14    15   ar
    34    14    67    1
    35    15    16   ar
    36    15    17    1
    37    16    68    1
    38    17    18    2
    39    17    19   am
    40    19    20    1
    41    19    69    1
    42    20    50    1
    43    20    21    1
    44    20    22    1
    45    21    70    1
    46    21    71    1
    47    22    51    1
    48    22    23    1
    49    22    35    1
    50    23    24    1
    51    23    72    1
    52    23    73    1
    53    24    25    1
    54    24    74    1
    55    25    26    1
    56    25    75    1
    57    25    76    1
    58    26    31   ar
    59    26    27   ar
    60    27    28   ar
    61    27    77    1
    62    28    29   ar
    63    28    78    1
    64    29    30   ar
    65    29    79    1
    66    30    31   ar
    67    30    32    1
    68    31    80    1
    69    32    33    1
    70    32    34    1
    71    32    81    1
    72    33    82    1
    73    33    83    1
    74    33    84    1
    75    34    85    1
    76    34    86    1
    77    34    87    1
    78    35    88    1
    79    36    40   ar
    80    36    37   ar
    81    37    38   ar
    82    38    39   ar
    83    38    89    1
    84    39    40   ar
    85    39    90    1
    86    41    52    1
    87    41    42    1
    88    41    43    1
    89    42    91    1
    90    42    92    1
    91    42    93    1
    92    43    48   ar
    93    43    44   ar
    94    44    45   ar
    95    44    94    1
    96    45    46   ar
    97    45    95    1
    98    46    47   ar
    99    46    96    1
   100    47    48   ar
   101    47    97    1
   102    48    98    1
