@<TRIPOS>MOLECULE
BACE_15.smi:1
 82 85 0 0 0
SMALL
GASTEIGER
****
Structure written by MMmdl.
@<TRIPOS>ATOM
      1 C          16.6620   36.3219   -9.3078 C.3     1  UNL1       -0.0586
      2 C          16.6686   37.7914   -8.8794 C.3     1  UNL1       -0.0215
      3 C          16.2764   38.7456  -10.0155 C.3     1  UNL1       -0.0586
      4 C          18.0046   38.1799   -8.2690 C.ar    1  UNL1       -0.0445
      5 C          18.0447   38.5756   -6.9202 C.ar    1  UNL1       -0.0583
      6 C          19.2605   38.9521   -6.3344 C.ar    1  UNL1       -0.0612
      7 C          20.4495   38.9427   -7.0837 C.ar    1  UNL1       -0.0573
      8 C          20.4243   38.5546   -8.4379 C.ar    1  UNL1       -0.0333
      9 C          19.2003   38.1631   -9.0259 C.ar    1  UNL1       -0.0539
     10 C          21.7055   38.6131   -9.2494 C.3     1  UNL1        0.0213
     11 N          21.7990   39.8617   -9.9994 N.3     1  UNL1       -0.3095
     12 C          21.2327   39.7875  -11.3434 C.3     1  UNL1        0.0240
     13 C          20.7280   41.1459  -11.8644 C.3     1  UNL1        0.0862
     14 C          19.4157   41.6241  -11.1726 C.3     1  UNL1        0.0545
     15 C          18.6055   42.6771  -11.9884 C.3     1  UNL1       -0.0066
     16 C          17.4294   43.2786  -11.2267 C.ar    1  UNL1       -0.0421
     17 C          16.3131   42.4739  -10.9234 C.ar    1  UNL1       -0.0583
     18 C          15.2605   42.9927  -10.1496 C.ar    1  UNL1       -0.0580
     19 C          15.3244   44.3152   -9.6740 C.ar    1  UNL1       -0.0199
     20 C          16.4269   45.1430   -9.9742 C.ar    1  UNL1        0.1208
     21 C          17.4708   44.6179  -10.7787 C.ar    1  UNL1       -0.0167
     22 O          16.4033   46.4140   -9.4366 O.3     1  UNL1       -0.4920
     23 C          17.5454   47.2607   -9.5399 C.3     1  UNL1        0.0897
     24 C          17.5765   48.1701   -8.2998 C.3     1  UNL1       -0.0156
     25 C          17.8549   47.3958   -6.9937 C.3     1  UNL1       -0.0156
     26 C          19.3298   47.4199   -6.5559 C.3     1  UNL1        0.0897
     27 O          19.6114   46.3625   -5.6410 O.3     1  UNL1       -0.4919
     28 C          19.9584   45.1235   -6.1483 C.ar    1  UNL1        0.1215
     29 C          20.3730   44.1467   -5.2271 C.ar    1  UNL1       -0.0145
     30 C          20.7514   42.8523   -5.6397 C.ar    1  UNL1       -0.0178
     31 C          20.7059   42.5266   -7.0123 C.ar    1  UNL1       -0.0440
     32 C          20.3012   43.4918   -7.9579 C.ar    1  UNL1        0.0405
     33 C          19.9365   44.7816   -7.5222 C.ar    1  UNL1       -0.0078
     34 C          20.3010   43.1912   -9.4251 C.2     1  UNL1        0.2445
     35 O          20.7908   43.9927  -10.2216 O.2     1  UNL1       -0.2702
     36 N          19.6629   42.0684   -9.7934 N.am    1  UNL1       -0.3057
     37 C          21.2397   41.8115   -4.6395 C.3     1  UNL1        0.0725
     38 O          21.2950   42.2585   -3.2876 O.3     1  UNL1       -0.3784
     39 C          20.0659   42.1179   -2.5874 C.3     1  UNL1        0.0369
     40 O          20.4957   40.9273  -13.2400 O.3     1  UNL1       -0.3887
     41 H          21.5123   41.8996  -11.7860 H       1  UNL1        0.0624
     42 H          18.7639   40.7557  -11.0721 H       1  UNL1        0.0527
     43 H          16.8456   35.6737   -8.4513 H       1  UNL1        0.0235
     44 H          17.4439   36.1345  -10.0399 H       1  UNL1        0.0235
     45 H          15.7055   36.0395   -9.7479 H       1  UNL1        0.0235
     46 H          15.9073   37.8910   -8.1042 H       1  UNL1        0.0343
     47 H          16.2157   39.7682   -9.6439 H       1  UNL1        0.0235
     48 H          15.2996   38.4900  -10.4251 H       1  UNL1        0.0235
     49 H          17.0017   38.7318  -10.8308 H       1  UNL1        0.0235
     50 H          17.1411   38.5886   -6.3253 H       1  UNL1        0.0620
     51 H          19.2599   39.2709   -5.3037 H       1  UNL1        0.0618
     52 H          21.3765   39.2487   -6.6207 H       1  UNL1        0.0621
     53 H          19.1698   37.8638  -10.0621 H       1  UNL1        0.0623
     54 H          22.5468   38.5428   -8.5602 H       1  UNL1        0.0473
     55 H          21.7872   37.7492   -9.9075 H       1  UNL1        0.0473
     56 H          22.7687   40.1647  -10.0440 H       1  UNL1        0.1223
     57 H          22.0011   39.4038  -12.0145 H       1  UNL1        0.0450
     58 H          20.4109   39.0720  -11.3874 H       1  UNL1        0.0450
     59 H          19.2613   43.4823  -12.3180 H       1  UNL1        0.0332
     60 H          18.2201   42.2190  -12.8986 H       1  UNL1        0.0332
     61 H          16.2735   41.4497  -11.2624 H       1  UNL1        0.0620
     62 H          14.4175   42.3653   -9.8992 H       1  UNL1        0.0619
     63 H          14.5261   44.6965   -9.0569 H       1  UNL1        0.0654
     64 H          18.3335   45.2125  -11.0396 H       1  UNL1        0.0657
     65 H          18.4899   46.7271   -9.5951 H       1  UNL1        0.0696
     66 H          17.4566   47.8569  -10.4466 H       1  UNL1        0.0696
     67 H          18.3199   48.9563   -8.4300 H       1  UNL1        0.0299
     68 H          16.6201   48.6833   -8.2232 H       1  UNL1        0.0299
     69 H          17.2596   47.8193   -6.1848 H       1  UNL1        0.0299
     70 H          17.5127   46.3670   -7.1058 H       1  UNL1        0.0299
     71 H          20.0158   47.4169   -7.4041 H       1  UNL1        0.0696
     72 H          19.5277   48.3626   -6.0435 H       1  UNL1        0.0696
     73 H          20.4103   44.4115   -4.1837 H       1  UNL1        0.0657
     74 H          21.0140   41.5464   -7.3434 H       1  UNL1        0.0628
     75 H          19.6367   45.4939   -8.2695 H       1  UNL1        0.0662
     76 H          19.2928   41.4802   -9.0588 H       1  UNL1        0.1494
     77 H          20.6332   40.9096   -4.7203 H       1  UNL1        0.0610
     78 H          22.2530   41.5273   -4.9300 H       1  UNL1        0.0610
     79 H          20.1774   42.5124   -1.5774 H       1  UNL1        0.0524
     80 H          19.7720   41.0686   -2.5096 H       1  UNL1        0.0524
     81 H          19.2598   42.6673   -3.0739 H       1  UNL1        0.0524
     82 H          21.3074   40.6073  -13.6096 H       1  UNL1        0.2099
@<TRIPOS>BOND
     1     1     2    1
     2     1    43    1
     3     1    44    1
     4     1    45    1
     5     2     3    1
     6     2     4    1
     7     2    46    1
     8     3    47    1
     9     3    48    1
    10     3    49    1
    11     4     9   ar
    12     4     5   ar
    13     5     6   ar
    14     5    50    1
    15     6     7   ar
    16     6    51    1
    17     7     8   ar
    18     7    52    1
    19     8     9   ar
    20     8    10    1
    21     9    53    1
    22    10    11    1
    23    10    54    1
    24    10    55    1
    25    11    12    1
    26    11    56    1
    27    12    13    1
    28    12    57    1
    29    12    58    1
    30    13    41    1
    31    13    14    1
    32    13    40    1
    33    14    42    1
    34    14    36    1
    35    14    15    1
    36    15    16    1
    37    15    59    1
    38    15    60    1
    39    16    21   ar
    40    16    17   ar
    41    17    18   ar
    42    17    61    1
    43    18    19   ar
    44    18    62    1
    45    19    20   ar
    46    19    63    1
    47    20    21   ar
    48    20    22    1
    49    21    64    1
    50    22    23    1
    51    23    24    1
    52    23    65    1
    53    23    66    1
    54    24    25    1
    55    24    67    1
    56    24    68    1
    57    25    26    1
    58    25    69    1
    59    25    70    1
    60    26    27    1
    61    26    71    1
    62    26    72    1
    63    27    28    1
    64    28    33   ar
    65    28    29   ar
    66    29    30   ar
    67    29    73    1
    68    30    31   ar
    69    30    37    1
    70    31    32   ar
    71    31    74    1
    72    32    33   ar
    73    32    34    1
    74    33    75    1
    75    34    35    2
    76    34    36   am
    77    36    76    1
    78    37    38    1
    79    37    77    1
    80    37    78    1
    81    38    39    1
    82    39    79    1
    83    39    80    1
    84    39    81    1
    85    40    82    1
