@<TRIPOS>MOLECULE
BACE_5.smi:1
 79 80 0 0 0
SMALL
GASTEIGER
****
Structure written by MMmdl.
@<TRIPOS>ATOM
      1 C          30.9516   41.7783  -13.6541 C.3     1  UNL1       -0.0649
      2 C          29.5434   41.5290  -13.1032 C.3     1  UNL1       -0.0505
      3 C          29.0379   42.6875  -12.2287 C.3     1  UNL1       -0.0112
      4 C          27.6696   42.4813  -11.6588 C.ar    1  UNL1        0.0364
      5 C          26.5586   43.2793  -11.6559 C.ar    1  UNL1       -0.0168
      6 C          25.5864   42.5407  -10.9159 C.ar    1  UNL1        0.0768
      7 N          26.0613   41.3797  -10.4944 N.ar    1  UNL1       -0.1774
      8 N          27.3173   41.3500  -10.9609 N.ar    1  UNL1       -0.2813
      9 C          24.1722   42.9396  -10.5848 C.3     1  UNL1        0.0403
     10 N          23.1845   41.8861  -10.8400 N.3     1  UNL1       -0.3080
     11 C          22.9959   40.9598   -9.7140 C.3     1  UNL1        0.0240
     12 C          21.8330   39.9659   -9.9458 C.3     1  UNL1        0.0859
     13 C          20.4348   40.5593   -9.6158 C.3     1  UNL1        0.0505
     14 C          19.2735   39.5591   -9.8704 C.3     1  UNL1       -0.0295
     15 C          18.2657   39.4443   -8.6983 C.3     1  UNL1       -0.0421
     16 C          16.9787   38.6869   -9.0994 C.3     1  UNL1       -0.0504
     17 C          16.0752   39.3841  -10.1343 C.3     1  UNL1       -0.0528
     18 C          15.5020   40.7340   -9.6640 C.3     1  UNL1       -0.0530
     19 C          14.4804   41.3058  -10.6595 C.3     1  UNL1       -0.0510
     20 C          13.8986   42.6687  -10.2475 C.3     1  UNL1       -0.0294
     21 C          14.8681   43.8399  -10.4546 C.3     1  UNL1        0.0483
     22 O          14.9803   44.1292  -11.8454 O.3     1  UNL1       -0.3706
     23 C          15.9909   45.0758  -12.1865 C.3     1  UNL1        0.1238
     24 C          17.3781   44.4102  -12.1293 C.2     1  UNL1        0.2417
     25 O          17.6267   43.5736  -13.0009 O.2     1  UNL1       -0.2731
     26 N          18.2606   44.7340  -11.1445 N.am    1  UNL1       -0.2914
     27 C          19.5552   44.0178  -11.0611 C.3     1  UNL1        0.0991
     28 C          19.4640   42.8211  -10.0984 C.2     1  UNL1        0.2336
     29 O          18.7300   42.8565   -9.1114 O.2     1  UNL1       -0.2738
     30 N          20.2452   41.7762  -10.3982 N.am    1  UNL1       -0.3084
     31 C          20.7066   44.9463  -10.6102 C.3     1  UNL1       -0.0379
     32 C          17.9402   45.7198  -10.0973 C.3     1  UNL1        0.0040
     33 C          18.9000   38.7583   -7.4731 C.3     1  UNL1       -0.0624
     34 O          22.0592   38.8707   -9.0823 O.3     1  UNL1       -0.3887
     35 H          27.8944   40.5154  -10.8404 H       1  UNL1        0.1885
     36 H          21.8597   39.5886  -10.9711 H       1  UNL1        0.0624
     37 H          20.4452   40.8536   -8.5653 H       1  UNL1        0.0524
     38 H          17.9837   40.4468   -8.3809 H       1  UNL1        0.0299
     39 H          19.8433   43.6379  -12.0399 H       1  UNL1        0.0594
     40 H          31.2699   40.9498  -14.2871 H       1  UNL1        0.0230
     41 H          31.6781   41.8757  -12.8458 H       1  UNL1        0.0230
     42 H          30.9863   42.6869  -14.2566 H       1  UNL1        0.0230
     43 H          29.5559   40.6012  -12.5286 H       1  UNL1        0.0266
     44 H          28.8600   41.3706  -13.9379 H       1  UNL1        0.0266
     45 H          29.0451   43.6074  -12.8149 H       1  UNL1        0.0328
     46 H          29.7397   42.8513  -11.4099 H       1  UNL1        0.0328
     47 H          26.4543   44.2528  -12.1092 H       1  UNL1        0.0654
     48 H          23.9171   43.8043  -11.1969 H       1  UNL1        0.0489
     49 H          24.1079   43.2842   -9.5524 H       1  UNL1        0.0489
     50 H          23.5177   41.3497  -11.6478 H       1  UNL1        0.1224
     51 H          22.8169   41.5115   -8.7890 H       1  UNL1        0.0450
     52 H          23.9141   40.3983   -9.5535 H       1  UNL1        0.0450
     53 H          18.7578   39.8484  -10.7851 H       1  UNL1        0.0286
     54 H          19.6682   38.5662  -10.0856 H       1  UNL1        0.0286
     55 H          17.2484   37.7001   -9.4765 H       1  UNL1        0.0268
     56 H          16.3807   38.5009   -8.2056 H       1  UNL1        0.0268
     57 H          15.2456   38.7129  -10.3572 H       1  UNL1        0.0265
     58 H          16.6034   39.5204  -11.0774 H       1  UNL1        0.0265
     59 H          15.0259   40.6069   -8.6893 H       1  UNL1        0.0265
     60 H          16.3173   41.4436   -9.5255 H       1  UNL1        0.0265
     61 H          13.6609   40.5915  -10.7542 H       1  UNL1        0.0266
     62 H          14.9411   41.3846  -11.6405 H       1  UNL1        0.0266
     63 H          12.9859   42.8606  -10.8115 H       1  UNL1        0.0287
     64 H          13.6008   42.6221   -9.2014 H       1  UNL1        0.0287
     65 H          15.8298   43.5999  -10.0057 H       1  UNL1        0.0560
     66 H          14.4930   44.7264   -9.9443 H       1  UNL1        0.0560
     67 H          15.8989   45.9876  -11.5979 H       1  UNL1        0.0657
     68 H          15.8284   45.3818  -13.2222 H       1  UNL1        0.0657
     69 H          20.8688   41.8815  -11.1886 H       1  UNL1        0.1491
     70 H          21.6668   44.4639  -10.7840 H       1  UNL1        0.0252
     71 H          20.6733   45.1978   -9.5500 H       1  UNL1        0.0252
     72 H          20.7107   45.8757  -11.1812 H       1  UNL1        0.0252
     73 H          18.5881   45.6402   -9.2261 H       1  UNL1        0.0429
     74 H          16.9358   45.5916   -9.6953 H       1  UNL1        0.0429
     75 H          18.0239   46.7332  -10.4925 H       1  UNL1        0.0429
     76 H          18.1846   38.6795   -6.6527 H       1  UNL1        0.0232
     77 H          19.7586   39.3089   -7.0885 H       1  UNL1        0.0232
     78 H          19.2354   37.7501   -7.7158 H       1  UNL1        0.0232
     79 H          22.9378   38.5472   -9.2425 H       1  UNL1        0.2099
@<TRIPOS>BOND
     1     1     2    1
     2     1    40    1
     3     1    41    1
     4     1    42    1
     5     2     3    1
     6     2    43    1
     7     2    44    1
     8     3     4    1
     9     3    45    1
    10     3    46    1
    11     4     8   ar
    12     4     5   ar
    13     5     6   ar
    14     5    47    1
    15     6     7   ar
    16     6     9    1
    17     7     8   ar
    18     8    35    1
    19     9    10    1
    20     9    48    1
    21     9    49    1
    22    10    11    1
    23    10    50    1
    24    11    12    1
    25    11    51    1
    26    11    52    1
    27    12    36    1
    28    12    13    1
    29    12    34    1
    30    13    37    1
    31    13    30    1
    32    13    14    1
    33    14    15    1
    34    14    53    1
    35    14    54    1
    36    15    38    1
    37    15    16    1
    38    15    33    1
    39    16    17    1
    40    16    55    1
    41    16    56    1
    42    17    18    1
    43    17    57    1
    44    17    58    1
    45    18    19    1
    46    18    59    1
    47    18    60    1
    48    19    20    1
    49    19    61    1
    50    19    62    1
    51    20    21    1
    52    20    63    1
    53    20    64    1
    54    21    22    1
    55    21    65    1
    56    21    66    1
    57    22    23    1
    58    23    24    1
    59    23    67    1
    60    23    68    1
    61    24    25    2
    62    24    26   am
    63    26    27    1
    64    26    32    1
    65    27    39    1
    66    27    28    1
    67    27    31    1
    68    28    29    2
    69    28    30   am
    70    30    69    1
    71    31    70    1
    72    31    71    1
    73    31    72    1
    74    32    73    1
    75    32    74    1
    76    32    75    1
    77    33    76    1
    78    33    77    1
    79    33    78    1
    80    34    79    1
