@<TRIPOS>MOLECULE
BACE_5.smi:1
 80 81 0 0 0
SMALL
GASTEIGER
****
Structure written by MMmdl.
@<TRIPOS>ATOM
      1 C          18.7741   41.1402  -11.4487 C.3     1  UNL1       -0.0649
      2 C          19.6324   40.0526  -10.7975 C.3     1  UNL1       -0.0504
      3 C          18.9779   38.6612  -10.8602 C.3     1  UNL1       -0.0089
      4 C          17.9801   38.4086   -9.7784 C.ar    1  UNL1        0.0632
      5 C          16.7259   39.0668   -9.5641 C.ar    1  UNL1       -0.0129
      6 C          16.2901   38.5483   -8.3774 C.ar    1  UNL1        0.0806
      7 N          17.1937   37.5700   -8.0411 N.ar    1  UNL1       -0.2762
      8 N          18.2338   37.4768   -8.8790 N.ar    1  UNL1       -0.1785
      9 C          15.1627   38.8857   -7.4452 C.3     1  UNL1        0.0092
     10 N          14.8606   40.3298   -7.3411 N.4     1  UNL1        0.2332
     11 C          16.0017   41.2760   -7.3458 C.3     1  UNL1       -0.0049
     12 C          15.8104   42.3538   -8.4359 C.3     1  UNL1        0.1129
     13 C          17.0275   43.3021   -8.6453 C.3     1  UNL1        0.0543
     14 C          17.6554   43.8145   -7.3322 C.3     1  UNL1       -0.0293
     15 C          18.8905   44.7366   -7.4781 C.3     1  UNL1       -0.0421
     16 C          19.2861   45.3282   -6.1063 C.3     1  UNL1       -0.0504
     17 C          20.1685   46.5854   -6.1896 C.3     1  UNL1       -0.0528
     18 C          19.3331   47.8559   -6.4623 C.3     1  UNL1       -0.0530
     19 C          20.1882   49.1220   -6.7184 C.3     1  UNL1       -0.0510
     20 C          21.0957   49.0627   -7.9683 C.3     1  UNL1       -0.0294
     21 C          20.3608   48.7221   -9.2767 C.3     1  UNL1        0.0483
     22 O          19.3792   49.7142   -9.5411 O.3     1  UNL1       -0.3706
     23 C          18.6173   49.4602  -10.7303 C.3     1  UNL1        0.1238
     24 C          17.5870   48.3306  -10.4969 C.2     1  UNL1        0.2417
     25 O          16.8945   48.4124   -9.4774 O.2     1  UNL1       -0.2731
     26 N          17.4719   47.3021  -11.3806 N.am    1  UNL1       -0.2914
     27 C          16.4842   46.2187  -11.1096 C.3     1  UNL1        0.0991
     28 C          17.1682   44.9714  -10.5294 C.2     1  UNL1        0.2336
     29 O          18.1754   44.5028  -11.0425 O.2     1  UNL1       -0.2738
     30 N          16.5817   44.4427   -9.4455 N.am    1  UNL1       -0.3083
     31 C          15.6907   45.8437  -12.3760 C.3     1  UNL1       -0.0379
     32 C          18.3794   47.1602  -12.5293 C.3     1  UNL1        0.0040
     33 C          20.0799   44.0045   -8.1265 C.3     1  UNL1       -0.0624
     34 O          14.6935   43.1234   -8.0397 O.3     1  UNL1       -0.3847
     35 H          17.0631   36.9619   -7.2260 H       1  UNL1        0.1887
     36 H          15.5709   41.8925   -9.3907 H       1  UNL1        0.0666
     37 H          17.7868   42.7427   -9.1829 H       1  UNL1        0.0526
     38 H          18.6134   45.5691   -8.1222 H       1  UNL1        0.0299
     39 H          15.7297   46.5607  -10.3923 H       1  UNL1        0.0594
     40 H          19.2953   42.0973  -11.4914 H       1  UNL1        0.0230
     41 H          17.8321   41.2859  -10.9096 H       1  UNL1        0.0230
     42 H          18.5192   40.8737  -12.4702 H       1  UNL1        0.0230
     43 H          19.8903   40.3245   -9.7722 H       1  UNL1        0.0266
     44 H          20.5742   40.0094  -11.3620 H       1  UNL1        0.0266
     45 H          19.7599   37.9017  -10.8280 H       1  UNL1        0.0329
     46 H          18.4840   38.5572  -11.8190 H       1  UNL1        0.0329
     47 H          16.2635   39.8487  -10.1439 H       1  UNL1        0.0656
     48 H          15.4356   38.5526   -6.4415 H       1  UNL1        0.0881
     49 H          14.2638   38.3350   -7.7188 H       1  UNL1        0.0881
     50 H          14.3321   40.4753   -6.4860 H       1  UNL1        0.2018
     51 H          16.9695   40.7860   -7.4406 H       1  UNL1        0.0840
     52 H          16.0396   41.7331   -6.3576 H       1  UNL1        0.0840
     53 H          16.8898   44.3394   -6.7608 H       1  UNL1        0.0286
     54 H          17.9547   42.9686   -6.7129 H       1  UNL1        0.0286
     55 H          18.3869   45.5785   -5.5438 H       1  UNL1        0.0268
     56 H          19.8010   44.5593   -5.5293 H       1  UNL1        0.0268
     57 H          20.9301   46.4600   -6.9566 H       1  UNL1        0.0265
     58 H          20.7043   46.7037   -5.2401 H       1  UNL1        0.0265
     59 H          18.6674   47.7028   -7.3028 H       1  UNL1        0.0265
     60 H          18.6924   48.0433   -5.6037 H       1  UNL1        0.0265
     61 H          20.8019   49.3257   -5.8406 H       1  UNL1        0.0266
     62 H          19.5124   49.9727   -6.8232 H       1  UNL1        0.0266
     63 H          21.5929   50.0267   -8.0859 H       1  UNL1        0.0287
     64 H          21.8881   48.3441   -7.8112 H       1  UNL1        0.0287
     65 H          19.9132   47.7222   -9.2072 H       1  UNL1        0.0560
     66 H          21.0777   48.6903  -10.1030 H       1  UNL1        0.0560
     67 H          19.2895   49.3075  -11.5691 H       1  UNL1        0.0657
     68 H          18.0514   50.3610  -10.9624 H       1  UNL1        0.0657
     69 H          15.7249   44.8761   -9.1326 H       1  UNL1        0.1491
     70 H          14.8495   45.2119  -12.1075 H       1  UNL1        0.0252
     71 H          16.2915   45.2766  -13.0843 H       1  UNL1        0.0252
     72 H          15.2975   46.7313  -12.8689 H       1  UNL1        0.0252
     73 H          18.2280   46.2533  -13.0971 H       1  UNL1        0.0429
     74 H          19.4217   47.1250  -12.1931 H       1  UNL1        0.0429
     75 H          18.2615   47.9951  -13.2221 H       1  UNL1        0.0429
     76 H          20.9656   44.6423   -8.1981 H       1  UNL1        0.0232
     77 H          19.8570   43.6859   -9.1439 H       1  UNL1        0.0232
     78 H          20.3551   43.1153   -7.5605 H       1  UNL1        0.0232
     79 H          14.8595   43.3501   -7.1182 H       1  UNL1        0.2101
     80 H          14.2572   40.5720   -8.1045 H       1  UNL1        0.2018
@<TRIPOS>BOND
     1     1     2    1
     2     1    40    1
     3     1    41    1
     4     1    42    1
     5     2     3    1
     6     2    43    1
     7     2    44    1
     8     3    45    1
     9     3    46    1
    10     3     4    1
    11     4     8   ar
    12     4     5   ar
    13     5     6   ar
    14     5    47    1
    15     6     7   ar
    16     6     9    1
    17     7     8   ar
    18     7    35    1
    19     9    10    1
    20     9    48    1
    21     9    49    1
    22    10    11    1
    23    10    50    1
    24    10    80    1
    25    11    12    1
    26    11    51    1
    27    11    52    1
    28    12    36    1
    29    12    13    1
    30    12    34    1
    31    13    37    1
    32    13    30    1
    33    13    14    1
    34    14    15    1
    35    14    53    1
    36    14    54    1
    37    15    38    1
    38    15    16    1
    39    15    33    1
    40    16    17    1
    41    16    55    1
    42    16    56    1
    43    17    18    1
    44    17    57    1
    45    17    58    1
    46    18    19    1
    47    18    59    1
    48    18    60    1
    49    19    20    1
    50    19    61    1
    51    19    62    1
    52    20    21    1
    53    20    63    1
    54    20    64    1
    55    21    22    1
    56    21    65    1
    57    21    66    1
    58    22    23    1
    59    23    24    1
    60    23    67    1
    61    23    68    1
    62    24    25    2
    63    24    26   am
    64    26    27    1
    65    26    32    1
    66    27    39    1
    67    27    28    1
    68    27    31    1
    69    28    29    2
    70    28    30   am
    71    30    69    1
    72    31    70    1
    73    31    71    1
    74    31    72    1
    75    32    73    1
    76    32    74    1
    77    32    75    1
    78    33    76    1
    79    33    77    1
    80    33    78    1
    81    34    79    1
