@<TRIPOS>MOLECULE
BACE_5.smi:1
 79 80 0 0 0
SMALL
GASTEIGER
****
Structure written by MMmdl.
@<TRIPOS>ATOM
      1 C          29.9620   42.7722  -14.8060 C.3     1  UNL1       -0.0649
      2 C          29.5673   44.0915  -14.1232 C.3     1  UNL1       -0.0504
      3 C          29.5900   44.0380  -12.5856 C.3     1  UNL1       -0.0089
      4 C          28.5361   43.1371  -12.0020 C.ar    1  UNL1        0.0631
      5 C          27.2320   43.4857  -11.5438 C.ar    1  UNL1       -0.0168
      6 C          26.7015   42.3106  -11.0899 C.ar    1  UNL1        0.0501
      7 N          27.6640   41.3501  -11.3102 N.ar    1  UNL1       -0.2801
      8 N          28.7894   41.8471  -11.8546 N.ar    1  UNL1       -0.1786
      9 C          25.3809   42.0200  -10.4524 C.3     1  UNL1        0.0380
     10 N          24.2676   42.5509  -11.2400 N.3     1  UNL1       -0.3081
     11 C          23.0157   42.7854  -10.5159 C.3     1  UNL1        0.0240
     12 C          22.3807   41.4847   -9.9589 C.3     1  UNL1        0.0859
     13 C          20.8209   41.4388   -9.8157 C.3     1  UNL1        0.0505
     14 C          20.1789   40.1402  -10.3680 C.3     1  UNL1       -0.0295
     15 C          20.2333   38.8950   -9.4522 C.3     1  UNL1       -0.0421
     16 C          19.2628   37.7846   -9.9202 C.3     1  UNL1       -0.0504
     17 C          17.7666   38.1419  -10.0229 C.3     1  UNL1       -0.0528
     18 C          17.1418   38.6978   -8.7315 C.3     1  UNL1       -0.0530
     19 C          15.6050   38.8100   -8.7926 C.3     1  UNL1       -0.0510
     20 C          15.0480   39.6851   -9.9333 C.3     1  UNL1       -0.0294
     21 C          15.4562   41.1605   -9.8438 C.3     1  UNL1        0.0483
     22 O          14.8681   41.8681  -10.9330 O.3     1  UNL1       -0.3706
     23 C          15.0660   43.2788  -10.8946 C.3     1  UNL1        0.1238
     24 C          16.5145   43.6366  -11.2903 C.2     1  UNL1        0.2417
     25 O          16.8605   43.3500  -12.4401 O.2     1  UNL1       -0.2731
     26 N          17.3517   44.2259  -10.3951 N.am    1  UNL1       -0.2914
     27 C          18.7594   44.5338  -10.7513 C.3     1  UNL1        0.0991
     28 C          19.7339   43.6857   -9.9167 C.2     1  UNL1        0.2336
     29 O          20.0822   44.0406   -8.7874 O.2     1  UNL1       -0.2738
     30 N          20.1343   42.5406  -10.4898 N.am    1  UNL1       -0.3084
     31 C          19.0337   46.0477  -10.6369 C.3     1  UNL1       -0.0379
     32 C          16.9218   44.5030   -9.0133 C.3     1  UNL1        0.0040
     33 C          21.6515   38.3054   -9.3572 C.3     1  UNL1       -0.0624
     34 O          22.9261   41.3171   -8.6643 O.3     1  UNL1       -0.3887
     35 H          27.6047   40.3635  -11.0636 H       1  UNL1        0.1886
     36 H          22.6970   40.6470  -10.5825 H       1  UNL1        0.0624
     37 H          20.5515   41.5032   -8.7588 H       1  UNL1        0.0524
     38 H          19.9310   39.1915   -8.4474 H       1  UNL1        0.0299
     39 H          18.9631   44.2915  -11.7953 H       1  UNL1        0.0594
     40 H          29.9811   42.8806  -15.8904 H       1  UNL1        0.0230
     41 H          29.2604   41.9697  -14.5746 H       1  UNL1        0.0230
     42 H          30.9520   42.4437  -14.4878 H       1  UNL1        0.0230
     43 H          28.5775   44.4071  -14.4553 H       1  UNL1        0.0266
     44 H          30.2585   44.8675  -14.4548 H       1  UNL1        0.0266
     45 H          29.4520   45.0472  -12.1960 H       1  UNL1        0.0329
     46 H          30.5782   43.7272  -12.2434 H       1  UNL1        0.0329
     47 H          26.7586   44.4560  -11.5373 H       1  UNL1        0.0654
     48 H          25.3817   42.4716   -9.4607 H       1  UNL1        0.0489
     49 H          25.2605   40.9467  -10.3043 H       1  UNL1        0.0489
     50 H          24.0671   41.8800  -11.9855 H       1  UNL1        0.1224
     51 H          22.3417   43.2479  -11.2335 H       1  UNL1        0.0450
     52 H          23.1516   43.5261   -9.7261 H       1  UNL1        0.0450
     53 H          19.1257   40.3626  -10.5394 H       1  UNL1        0.0286
     54 H          20.5837   39.9008  -11.3532 H       1  UNL1        0.0286
     55 H          19.5913   37.4060  -10.8874 H       1  UNL1        0.0268
     56 H          19.3482   36.9468   -9.2303 H       1  UNL1        0.0268
     57 H          17.2277   37.2342  -10.2946 H       1  UNL1        0.0265
     58 H          17.6066   38.8316  -10.8506 H       1  UNL1        0.0265
     59 H          17.4023   38.0412   -7.8998 H       1  UNL1        0.0265
     60 H          17.5755   39.6689   -8.4923 H       1  UNL1        0.0265
     61 H          15.2410   39.1908   -7.8365 H       1  UNL1        0.0266
     62 H          15.1863   37.8068   -8.8853 H       1  UNL1        0.0266
     63 H          15.3427   39.2823  -10.9009 H       1  UNL1        0.0287
     64 H          13.9596   39.6234   -9.9104 H       1  UNL1        0.0287
     65 H          16.5428   41.2482   -9.8746 H       1  UNL1        0.0560
     66 H          15.1154   41.5778   -8.8945 H       1  UNL1        0.0560
     67 H          14.7320   43.6814   -9.9398 H       1  UNL1        0.0657
     68 H          14.4088   43.7234  -11.6429 H       1  UNL1        0.0657
     69 H          19.8164   42.3564  -11.4305 H       1  UNL1        0.1491
     70 H          20.0439   46.2882  -10.9729 H       1  UNL1        0.0252
     71 H          18.9395   46.4198   -9.6166 H       1  UNL1        0.0252
     72 H          18.3403   46.6148  -11.2592 H       1  UNL1        0.0252
     73 H          17.7034   44.9542   -8.4032 H       1  UNL1        0.0429
     74 H          16.6233   43.5857   -8.5028 H       1  UNL1        0.0429
     75 H          16.0826   45.2019   -8.9993 H       1  UNL1        0.0429
     76 H          21.6499   37.3503   -8.8402 H       1  UNL1        0.0232
     77 H          22.3261   38.9370   -8.7882 H       1  UNL1        0.0232
     78 H          22.0833   38.1503  -10.3457 H       1  UNL1        0.0232
     79 H          23.8255   41.0492   -8.7498 H       1  UNL1        0.2099
@<TRIPOS>BOND
     1     1     2    1
     2     1    40    1
     3     1    41    1
     4     1    42    1
     5     2     3    1
     6     2    43    1
     7     2    44    1
     8     3    45    1
     9     3    46    1
    10     3     4    1
    11     4     8   ar
    12     4     5   ar
    13     5     6   ar
    14     5    47    1
    15     6     7   ar
    16     6     9    1
    17     7     8   ar
    18     7    35    1
    19     9    10    1
    20     9    48    1
    21     9    49    1
    22    10    11    1
    23    10    50    1
    24    11    12    1
    25    11    51    1
    26    11    52    1
    27    12    36    1
    28    12    13    1
    29    12    34    1
    30    13    37    1
    31    13    30    1
    32    13    14    1
    33    14    15    1
    34    14    53    1
    35    14    54    1
    36    15    38    1
    37    15    16    1
    38    15    33    1
    39    16    17    1
    40    16    55    1
    41    16    56    1
    42    17    18    1
    43    17    57    1
    44    17    58    1
    45    18    19    1
    46    18    59    1
    47    18    60    1
    48    19    20    1
    49    19    61    1
    50    19    62    1
    51    20    21    1
    52    20    63    1
    53    20    64    1
    54    21    22    1
    55    21    65    1
    56    21    66    1
    57    22    23    1
    58    23    24    1
    59    23    67    1
    60    23    68    1
    61    24    25    2
    62    24    26   am
    63    26    27    1
    64    26    32    1
    65    27    39    1
    66    27    28    1
    67    27    31    1
    68    28    29    2
    69    28    30   am
    70    30    69    1
    71    31    70    1
    72    31    71    1
    73    31    72    1
    74    32    73    1
    75    32    74    1
    76    32    75    1
    77    33    76    1
    78    33    77    1
    79    33    78    1
    80    34    79    1
