@<TRIPOS>MOLECULE
BACE_4.smi:1
 89 91 0 0 0
SMALL
GASTEIGER
****
Structure written by MMmdl.
@<TRIPOS>ATOM
      1 C          22.6721   44.4217   -7.5549 C.3     1  UNL1       -0.0624
      2 C          22.2113   44.3052   -6.1047 C.3     1  UNL1       -0.0421
      3 C          23.3346   44.8038   -5.1749 C.3     1  UNL1       -0.0504
      4 C          23.6981   46.2833   -5.4146 C.3     1  UNL1       -0.0528
      5 C          22.6776   47.2730   -4.8124 C.3     1  UNL1       -0.0530
      6 C          22.8624   48.7369   -5.2661 C.3     1  UNL1       -0.0510
      7 C          22.6205   49.0066   -6.7713 C.3     1  UNL1       -0.0294
      8 C          21.2843   48.4825   -7.3426 C.3     1  UNL1        0.0483
      9 O          20.0272   49.1044   -6.6952 O.3     1  UNL1       -0.3706
     10 C          18.6925   48.5126   -7.2159 C.3     1  UNL1        0.1238
     11 C          18.4369   47.0569   -6.8029 C.2     1  UNL1        0.2417
     12 O          18.5887   46.7212   -5.6398 O.2     1  UNL1       -0.2731
     13 N          18.0415   46.2182   -7.7728 N.am    1  UNL1       -0.2914
     14 C          17.8763   44.7658   -7.5424 C.3     1  UNL1        0.0991
     15 C          19.2015   44.0069   -7.7794 C.2     1  UNL1        0.2336
     16 O          19.8948   44.2355   -8.7569 O.2     1  UNL1       -0.2738
     17 N          19.5281   43.0999   -6.8453 N.am    1  UNL1       -0.3084
     18 C          20.7447   42.2784   -6.8435 C.3     1  UNL1        0.0505
     19 C          21.7692   42.8540   -5.8212 C.3     1  UNL1       -0.0295
     20 C          20.3855   40.7739   -6.6328 C.3     1  UNL1        0.0859
     21 C          21.3008   39.7815   -7.3831 C.3     1  UNL1        0.0245
     22 N          21.7202   40.3039   -8.6860 N.3     1  UNL1       -0.3042
     23 C          20.6824   40.3189   -9.7283 C.3     1  UNL1        0.0447
     24 C          21.1371   40.3774  -11.1671 C.3     1  UNL1       -0.0285
     25 C          20.5087   41.5905  -10.5240 C.3     1  UNL1       -0.0285
     26 C          19.4337   39.5066   -9.4162 C.ar    1  UNL1       -0.0271
     27 C          19.4608   38.1005   -9.5222 C.ar    1  UNL1       -0.0568
     28 C          18.3104   37.3445   -9.2394 C.ar    1  UNL1       -0.0612
     29 C          17.1211   37.9877   -8.8507 C.ar    1  UNL1       -0.0580
     30 C          17.0554   39.3985   -8.7382 C.ar    1  UNL1       -0.0417
     31 C          18.2306   40.1413   -9.0290 C.ar    1  UNL1       -0.0531
     32 C          15.7285   40.0705   -8.3111 C.3     1  UNL1       -0.0127
     33 C          14.6270   39.7634   -9.3522 C.3     1  UNL1       -0.0560
     34 C          15.2894   39.5314   -6.9297 C.3     1  UNL1       -0.0560
     35 C          15.8315   41.6117   -8.1915 C.3     1  UNL1       -0.0560
     36 O          20.4599   40.4414   -5.2591 O.3     1  UNL1       -0.3887
     37 C          16.8543   44.2225   -8.5369 C.3     1  UNL1       -0.0379
     38 C          17.9071   46.7525   -9.1130 C.3     1  UNL1        0.0040
     39 H          21.3456   44.9613   -6.0145 H       1  UNL1        0.0299
     40 H          17.4714   44.5521   -6.5532 H       1  UNL1        0.0594
     41 H          21.1882   42.3692   -7.8347 H       1  UNL1        0.0524
     42 H          19.3589   40.5845   -6.9493 H       1  UNL1        0.0624
     43 H          22.9943   45.4351   -7.7935 H       1  UNL1        0.0232
     44 H          21.8744   44.1763   -8.2551 H       1  UNL1        0.0232
     45 H          23.5097   43.7552   -7.7640 H       1  UNL1        0.0232
     46 H          23.0593   44.6549   -4.1309 H       1  UNL1        0.0268
     47 H          24.2208   44.1906   -5.3389 H       1  UNL1        0.0268
     48 H          23.8104   46.4487   -6.4861 H       1  UNL1        0.0265
     49 H          24.6776   46.4893   -4.9832 H       1  UNL1        0.0265
     50 H          21.6575   46.9593   -5.0341 H       1  UNL1        0.0265
     51 H          22.7518   47.2286   -3.7258 H       1  UNL1        0.0265
     52 H          23.8648   49.0725   -5.0005 H       1  UNL1        0.0266
     53 H          22.1903   49.3667   -4.6833 H       1  UNL1        0.0266
     54 H          22.6904   50.0792   -6.9523 H       1  UNL1        0.0287
     55 H          23.4373   48.5704   -7.3463 H       1  UNL1        0.0287
     56 H          21.2578   47.3964   -7.2535 H       1  UNL1        0.0560
     57 H          21.2617   48.6796   -8.4143 H       1  UNL1        0.0560
     58 H          18.6443   48.6188   -8.2996 H       1  UNL1        0.0657
     59 H          17.8586   49.0973   -6.8277 H       1  UNL1        0.0657
     60 H          18.8869   42.9886   -6.0729 H       1  UNL1        0.1491
     61 H          21.3553   42.7865   -4.8151 H       1  UNL1        0.0286
     62 H          22.6464   42.2069   -5.8194 H       1  UNL1        0.0286
     63 H          20.7591   38.8467   -7.5318 H       1  UNL1        0.0450
     64 H          22.1688   39.5323   -6.7734 H       1  UNL1        0.0450
     65 H          22.5471   39.8190   -9.0196 H       1  UNL1        0.1229
     66 H          22.2101   40.4054  -11.3566 H       1  UNL1        0.0287
     67 H          20.5468   39.8348  -11.9055 H       1  UNL1        0.0287
     68 H          19.4983   41.8590  -10.8324 H       1  UNL1        0.0287
     69 H          21.1616   42.4296  -10.2835 H       1  UNL1        0.0287
     70 H          20.3675   37.5945   -9.8210 H       1  UNL1        0.0621
     71 H          18.3393   36.2679   -9.3212 H       1  UNL1        0.0618
     72 H          16.2567   37.3756   -8.6415 H       1  UNL1        0.0620
     73 H          18.2393   41.2178   -8.9655 H       1  UNL1        0.0624
     74 H          14.9084   40.1196  -10.3442 H       1  UNL1        0.0238
     75 H          13.6842   40.2462   -9.0913 H       1  UNL1        0.0238
     76 H          14.4181   38.6970   -9.4370 H       1  UNL1        0.0238
     77 H          16.0497   39.7197   -6.1704 H       1  UNL1        0.0238
     78 H          15.1003   38.4580   -6.9410 H       1  UNL1        0.0238
     79 H          14.3685   40.0066   -6.5891 H       1  UNL1        0.0238
     80 H          16.5652   41.9158   -7.4436 H       1  UNL1        0.0238
     81 H          14.8800   42.0511   -7.8884 H       1  UNL1        0.0238
     82 H          16.0998   42.0786   -9.1402 H       1  UNL1        0.0238
     83 H          19.7010   40.7974   -4.8229 H       1  UNL1        0.2099
     84 H          16.6791   43.1571   -8.3819 H       1  UNL1        0.0252
     85 H          17.1766   44.3552   -9.5702 H       1  UNL1        0.0252
     86 H          15.8921   44.7240   -8.4273 H       1  UNL1        0.0252
     87 H          17.4286   46.0649   -9.8077 H       1  UNL1        0.0429
     88 H          18.8799   47.0107   -9.5332 H       1  UNL1        0.0429
     89 H          17.2735   47.6404   -9.1208 H       1  UNL1        0.0429
@<TRIPOS>BOND
     1     1     2    1
     2     1    43    1
     3     1    44    1
     4     1    45    1
     5     2    39    1
     6     2    19    1
     7     2     3    1
     8     3     4    1
     9     3    46    1
    10     3    47    1
    11     4     5    1
    12     4    48    1
    13     4    49    1
    14     5     6    1
    15     5    50    1
    16     5    51    1
    17     6     7    1
    18     6    52    1
    19     6    53    1
    20     7     8    1
    21     7    54    1
    22     7    55    1
    23     8     9    1
    24     8    56    1
    25     8    57    1
    26     9    10    1
    27    10    11    1
    28    10    58    1
    29    10    59    1
    30    11    12    2
    31    11    13   am
    32    13    14    1
    33    13    38    1
    34    14    40    1
    35    14    15    1
    36    14    37    1
    37    15    16    2
    38    15    17   am
    39    17    18    1
    40    17    60    1
    41    18    41    1
    42    18    19    1
    43    18    20    1
    44    19    61    1
    45    19    62    1
    46    20    42    1
    47    20    21    1
    48    20    36    1
    49    21    22    1
    50    21    63    1
    51    21    64    1
    52    22    23    1
    53    22    65    1
    54    23    25    1
    55    23    24    1
    56    23    26    1
    57    24    25    1
    58    24    66    1
    59    24    67    1
    60    25    68    1
    61    25    69    1
    62    26    31   ar
    63    26    27   ar
    64    27    28   ar
    65    27    70    1
    66    28    29   ar
    67    28    71    1
    68    29    30   ar
    69    29    72    1
    70    30    31   ar
    71    30    32    1
    72    31    73    1
    73    32    33    1
    74    32    34    1
    75    32    35    1
    76    33    74    1
    77    33    75    1
    78    33    76    1
    79    34    77    1
    80    34    78    1
    81    34    79    1
    82    35    80    1
    83    35    81    1
    84    35    82    1
    85    36    83    1
    86    37    84    1
    87    37    85    1
    88    37    86    1
    89    38    87    1
    90    38    88    1
    91    38    89    1
