@<TRIPOS>MOLECULE
BACE_20.smi:1
 78 79 0 0 0
SMALL
GASTEIGER
****
Structure written by MMmdl.
@<TRIPOS>ATOM
      1 C          29.2997   47.7638  -15.7698 C.3     1  UNL1       -0.0652
      2 C          29.6795   46.5476  -14.9168 C.3     1  UNL1       -0.0545
      3 C          28.7216   46.2917  -13.7403 C.3     1  UNL1       -0.0377
      4 C          27.3369   45.7940  -14.1881 C.3     1  UNL1        0.0104
      5 N          26.4627   45.4590  -13.0712 N.pl3   1  UNL1       -0.3289
      6 C          26.5493   44.2254  -12.4096 C.ar    1  UNL1        0.1232
      7 C          25.5802   43.9230  -11.4364 C.ar    1  UNL1       -0.0095
      8 C          25.6679   42.6908  -10.7588 C.ar    1  UNL1        0.0450
      9 C          26.7270   41.8129  -11.0686 C.ar    1  UNL1        0.0122
     10 C          27.6571   42.2037  -12.0468 C.ar    1  UNL1        0.2168
     11 N          27.5577   43.3798  -12.7154 N.ar    1  UNL1       -0.1981
     12 O          28.7029   41.3560  -12.3536 O.3     1  UNL1       -0.4796
     13 C          29.5457   41.7044  -13.4464 C.3     1  UNL1        0.0804
     14 C          24.7002   42.3646   -9.6726 C.2     1  UNL1        0.2446
     15 O          24.8230   42.9003   -8.5710 O.2     1  UNL1       -0.2702
     16 N          23.7411   41.4736   -9.9841 N.am    1  UNL1       -0.3057
     17 C          22.8309   40.8743   -9.0007 C.3     1  UNL1        0.0533
     18 C          21.9286   41.9328   -8.2902 C.3     1  UNL1       -0.0068
     19 C          21.8548   41.7272   -6.7847 C.ar    1  UNL1       -0.0455
     20 C          22.6403   42.5246   -5.9247 C.ar    1  UNL1       -0.0585
     21 C          22.5955   42.3280   -4.5296 C.ar    1  UNL1       -0.0615
     22 C          21.7583   41.3346   -3.9882 C.ar    1  UNL1       -0.0617
     23 C          20.9587   40.5489   -4.8392 C.ar    1  UNL1       -0.0615
     24 C          21.0067   40.7423   -6.2345 C.ar    1  UNL1       -0.0585
     25 C          22.0972   39.6409   -9.6275 C.3     1  UNL1        0.0745
     26 C          20.6514   39.8256  -10.1490 C.3     1  UNL1       -0.0143
     27 C          20.5118   40.7474  -11.3927 C.3     1  UNL1        0.0351
     28 C          21.0011   40.0448  -12.6746 C.3     1  UNL1       -0.0540
     29 C          19.0930   41.3125  -11.6119 C.2     1  UNL1        0.2159
     30 O          18.9027   42.1503  -12.4961 O.2     1  UNL1       -0.2755
     31 N          18.1057   40.8764  -10.8172 N.am    1  UNL1       -0.3151
     32 C          16.7345   41.3656  -10.8430 C.3     1  UNL1        0.0116
     33 C          15.8486   40.5932   -9.8531 C.3     1  UNL1       -0.0376
     34 C          15.6617   39.1165  -10.2320 C.3     1  UNL1       -0.0545
     35 C          14.7253   38.3676   -9.2815 C.3     1  UNL1       -0.0652
     36 O          22.0598   38.5966   -8.6816 O.3     1  UNL1       -0.3899
     37 H          23.5249   40.4863   -8.2478 H       1  UNL1        0.0527
     38 H          22.7050   39.2491  -10.4394 H       1  UNL1        0.0612
     39 H          21.1360   41.6245  -11.2351 H       1  UNL1        0.0392
     40 H          30.0440   47.9366  -16.5483 H       1  UNL1        0.0230
     41 H          29.2427   48.6672  -15.1636 H       1  UNL1        0.0230
     42 H          28.3354   47.6283  -16.2602 H       1  UNL1        0.0230
     43 H          30.6829   46.7050  -14.5201 H       1  UNL1        0.0263
     44 H          29.7408   45.6565  -15.5437 H       1  UNL1        0.0263
     45 H          28.6213   47.1936  -13.1383 H       1  UNL1        0.0280
     46 H          29.1771   45.5444  -13.0900 H       1  UNL1        0.0280
     47 H          27.4431   44.9310  -14.8422 H       1  UNL1        0.0461
     48 H          26.8382   46.5640  -14.7793 H       1  UNL1        0.0461
     49 H          25.7103   46.0899  -12.8395 H       1  UNL1        0.1475
     50 H          24.7936   44.6214  -11.1986 H       1  UNL1        0.0659
     51 H          26.8345   40.8651  -10.5536 H       1  UNL1        0.0678
     52 H          30.3228   40.9505  -13.5703 H       1  UNL1        0.0660
     53 H          30.0452   42.6610  -13.2830 H       1  UNL1        0.0660
     54 H          28.9833   41.7507  -14.3787 H       1  UNL1        0.0660
     55 H          23.7269   41.1056  -10.9262 H       1  UNL1        0.1494
     56 H          22.3000   42.9434   -8.4561 H       1  UNL1        0.0332
     57 H          20.9188   41.9786   -8.6931 H       1  UNL1        0.0332
     58 H          23.2960   43.2815   -6.3320 H       1  UNL1        0.0620
     59 H          23.2086   42.9339   -3.8784 H       1  UNL1        0.0618
     60 H          21.7220   41.1811   -2.9181 H       1  UNL1        0.0618
     61 H          20.3034   39.7987   -4.4270 H       1  UNL1        0.0618
     62 H          20.3956   40.1262   -6.8782 H       1  UNL1        0.0620
     63 H          20.0257   40.1522   -9.3193 H       1  UNL1        0.0298
     64 H          20.2537   38.8428  -10.4156 H       1  UNL1        0.0298
     65 H          22.0589   39.8032  -12.6173 H       1  UNL1        0.0237
     66 H          20.8675   40.6702  -13.5588 H       1  UNL1        0.0237
     67 H          20.4607   39.1122  -12.8401 H       1  UNL1        0.0237
     68 H          18.3276   40.1789  -10.1233 H       1  UNL1        0.1487
     69 H          16.3369   41.2745  -11.8555 H       1  UNL1        0.0462
     70 H          16.7347   42.4260  -10.5861 H       1  UNL1        0.0462
     71 H          14.8701   41.0721   -9.8113 H       1  UNL1        0.0280
     72 H          16.2617   40.6696   -8.8452 H       1  UNL1        0.0280
     73 H          16.6257   38.6081  -10.2573 H       1  UNL1        0.0263
     74 H          15.2556   39.0583  -11.2399 H       1  UNL1        0.0263
     75 H          14.5779   37.3491   -9.6367 H       1  UNL1        0.0230
     76 H          13.7470   38.8444   -9.2262 H       1  UNL1        0.0230
     77 H          15.1356   38.3201   -8.2704 H       1  UNL1        0.0230
     78 H          22.9234   38.1989   -8.6727 H       1  UNL1        0.2099
@<TRIPOS>BOND
     1     1     2    1
     2     1    40    1
     3     1    41    1
     4     1    42    1
     5     2     3    1
     6     2    43    1
     7     2    44    1
     8     3     4    1
     9     3    45    1
    10     3    46    1
    11     4     5    1
    12     4    47    1
    13     4    48    1
    14     5     6    1
    15     5    49    1
    16     6    11   ar
    17     6     7   ar
    18     7     8   ar
    19     7    50    1
    20     8     9   ar
    21     8    14    1
    22     9    10   ar
    23     9    51    1
    24    10    11   ar
    25    10    12    1
    26    12    13    1
    27    13    52    1
    28    13    53    1
    29    13    54    1
    30    14    15    2
    31    14    16   am
    32    16    17    1
    33    16    55    1
    34    17    37    1
    35    17    18    1
    36    17    25    1
    37    18    19    1
    38    18    56    1
    39    18    57    1
    40    19    24   ar
    41    19    20   ar
    42    20    21   ar
    43    20    58    1
    44    21    22   ar
    45    21    59    1
    46    22    23   ar
    47    22    60    1
    48    23    24   ar
    49    23    61    1
    50    24    62    1
    51    25    38    1
    52    25    26    1
    53    25    36    1
    54    26    27    1
    55    26    63    1
    56    26    64    1
    57    27    39    1
    58    27    28    1
    59    27    29    1
    60    28    65    1
    61    28    66    1
    62    28    67    1
    63    29    30    2
    64    29    31   am
    65    31    32    1
    66    31    68    1
    67    32    33    1
    68    32    69    1
    69    32    70    1
    70    33    34    1
    71    33    71    1
    72    33    72    1
    73    34    35    1
    74    34    73    1
    75    34    74    1
    76    35    75    1
    77    35    76    1
    78    35    77    1
    79    36    78    1
