@<TRIPOS>MOLECULE
BACE_18.smi:1
 66 67 0 0 0
SMALL
GASTEIGER
****
Structure written by MMmdl.
@<TRIPOS>ATOM
      1 O          17.9162   41.9619   -7.6393 O.3     1  UNL1       -0.3924
      2 C          17.1017   40.9786   -8.2439 C.3     1  UNL1        0.0719
      3 C          17.4722   40.7444   -9.7277 C.3     1  UNL1        0.0965
      4 O          16.4449   39.9495  -10.2959 O.3     1  UNL1       -0.3877
      5 C          18.8399   40.0351   -9.9691 C.3     1  UNL1        0.0517
      6 N          19.3464   40.1014  -11.3556 N.am    1  UNL1       -0.3059
      7 C          19.6301   41.1289  -12.1803 C.2     1  UNL1        0.2445
      8 O          20.2380   40.9505  -13.2341 O.2     1  UNL1       -0.2702
      9 C          19.9456   40.4085   -8.9413 C.3     1  UNL1       -0.0294
     10 C          21.3103   39.6799   -9.0800 C.3     1  UNL1       -0.0421
     11 C          21.1410   38.1562   -9.1950 C.3     1  UNL1       -0.0624
     12 C          22.2472   39.9688   -7.8814 C.3     1  UNL1       -0.0504
     13 C          22.7735   41.4088   -7.7545 C.3     1  UNL1       -0.0528
     14 C          23.8409   41.7661   -8.8060 C.3     1  UNL1       -0.0530
     15 C          24.4593   43.1667   -8.6202 C.3     1  UNL1       -0.0530
     16 C          23.9000   44.2354   -9.5741 C.3     1  UNL1       -0.0500
     17 C          22.4480   44.6419   -9.2832 C.3     1  UNL1       -0.0186
     18 C          21.8656   45.5329  -10.3903 C.3     1  UNL1        0.0896
     19 O          20.4539   45.6733  -10.2784 O.3     1  UNL1       -0.4919
     20 C          19.6431   44.7152  -10.8526 C.ar    1  UNL1        0.1219
     21 C          20.0785   43.4221  -11.2408 C.ar    1  UNL1       -0.0078
     22 C          19.1756   42.5089  -11.8180 C.ar    1  UNL1        0.0409
     23 C          18.2909   45.0638  -11.0475 C.ar    1  UNL1       -0.0078
     24 C          17.3876   44.1791  -11.6751 C.ar    1  UNL1        0.0410
     25 C          17.8483   42.9073  -12.0782 C.ar    1  UNL1       -0.0373
     26 C          15.9330   44.5505  -11.7940 C.2     1  UNL1        0.2463
     27 O          15.6355   45.5938  -12.3812 O.2     1  UNL1       -0.2700
     28 N          14.9996   43.7368  -11.2424 N.am    1  UNL1       -0.3036
     29 C          15.4017   42.5679  -10.4575 C.3     1  UNL1        0.0031
     30 C          13.5548   43.9848  -11.2698 C.3     1  UNL1        0.0031
     31 H          17.4597   41.7154  -10.2181 H       1  UNL1        0.0635
     32 H          18.6230   38.9771   -9.8277 H       1  UNL1        0.0525
     33 H          21.7944   40.0225   -9.9946 H       1  UNL1        0.0299
     34 H          17.8280   41.8946   -6.7005 H       1  UNL1        0.2095
     35 H          17.1468   40.0547   -7.6643 H       1  UNL1        0.0583
     36 H          16.0810   41.3549   -8.1699 H       1  UNL1        0.0583
     37 H          16.3559   39.1263   -9.8015 H       1  UNL1        0.2100
     38 H          19.6281   39.2064  -11.7242 H       1  UNL1        0.1494
     39 H          20.1045   41.4856   -8.9745 H       1  UNL1        0.0286
     40 H          19.5750   40.1899   -7.9428 H       1  UNL1        0.0286
     41 H          20.6484   37.7417   -8.3149 H       1  UNL1        0.0232
     42 H          22.1048   37.6568   -9.3043 H       1  UNL1        0.0232
     43 H          20.5443   37.8866  -10.0631 H       1  UNL1        0.0232
     44 H          21.7247   39.7075   -6.9593 H       1  UNL1        0.0268
     45 H          23.1071   39.2988   -7.9206 H       1  UNL1        0.0268
     46 H          21.9456   42.1130   -7.7636 H       1  UNL1        0.0265
     47 H          23.2246   41.5104   -6.7667 H       1  UNL1        0.0265
     48 H          24.6409   41.0288   -8.7350 H       1  UNL1        0.0265
     49 H          23.4389   41.6621   -9.8147 H       1  UNL1        0.0265
     50 H          24.3748   43.4960   -7.5845 H       1  UNL1        0.0265
     51 H          25.5287   43.0846   -8.8118 H       1  UNL1        0.0265
     52 H          24.5284   45.1259   -9.5242 H       1  UNL1        0.0266
     53 H          23.9853   43.8693  -10.5988 H       1  UNL1        0.0266
     54 H          21.8365   43.7506   -9.1826 H       1  UNL1        0.0298
     55 H          22.3835   45.1527   -8.3218 H       1  UNL1        0.0298
     56 H          22.3101   46.5260  -10.3210 H       1  UNL1        0.0696
     57 H          22.1343   45.1657  -11.3799 H       1  UNL1        0.0696
     58 H          21.0999   43.1021  -11.1028 H       1  UNL1        0.0662
     59 H          17.9494   46.0348  -10.7191 H       1  UNL1        0.0662
     60 H          17.1645   42.2025  -12.5314 H       1  UNL1        0.0633
     61 H          16.3208   42.1172  -10.8360 H       1  UNL1        0.0428
     62 H          14.6376   41.7931  -10.4973 H       1  UNL1        0.0428
     63 H          15.5610   42.8449   -9.4159 H       1  UNL1        0.0428
     64 H          13.3209   45.0503  -11.2876 H       1  UNL1        0.0428
     65 H          13.0685   43.5720  -10.3855 H       1  UNL1        0.0428
     66 H          13.0994   43.5183  -12.1434 H       1  UNL1        0.0428
@<TRIPOS>BOND
     1     1     2    1
     2     1    34    1
     3     2     3    1
     4     2    35    1
     5     2    36    1
     6     3    31    1
     7     3     4    1
     8     3     5    1
     9     4    37    1
    10     5    32    1
    11     5     6    1
    12     5     9    1
    13     6     7   am
    14     6    38    1
    15     7    22    1
    16     7     8    2
    17     9    10    1
    18     9    39    1
    19     9    40    1
    20    10    33    1
    21    10    11    1
    22    10    12    1
    23    11    41    1
    24    11    42    1
    25    11    43    1
    26    12    13    1
    27    12    44    1
    28    12    45    1
    29    13    14    1
    30    13    46    1
    31    13    47    1
    32    14    15    1
    33    14    48    1
    34    14    49    1
    35    15    16    1
    36    15    50    1
    37    15    51    1
    38    16    17    1
    39    16    52    1
    40    16    53    1
    41    17    18    1
    42    17    54    1
    43    17    55    1
    44    18    19    1
    45    18    56    1
    46    18    57    1
    47    19    20    1
    48    20    21   ar
    49    20    23   ar
    50    21    22   ar
    51    21    58    1
    52    22    25   ar
    53    23    24   ar
    54    23    59    1
    55    24    25   ar
    56    24    26    1
    57    25    60    1
    58    26    27    2
    59    26    28   am
    60    28    29    1
    61    28    30    1
    62    29    61    1
    63    29    62    1
    64    29    63    1
    65    30    64    1
    66    30    65    1
    67    30    66    1
