@<TRIPOS>MOLECULE
BACE_2.smi:1
 96 98 0 0 0
SMALL
GASTEIGER
****
Structure written by MMmdl.
@<TRIPOS>ATOM
      1 C          31.9423   43.4958  -12.0627 C.ar    1  UNL1       -0.0192
      2 C          32.0044   43.0020  -13.3751 C.ar    1  UNL1       -0.0548
      3 C          30.8576   42.4477  -13.9812 C.ar    1  UNL1       -0.0441
      4 C          30.9133   41.9441  -15.4166 C.3     1  UNL1       -0.0215
      5 C          30.9264   43.1129  -16.4101 C.3     1  UNL1       -0.0586
      6 C          32.0973   40.9922  -15.6555 C.3     1  UNL1       -0.0586
      7 C          29.6494   42.3830  -13.2524 C.ar    1  UNL1       -0.0463
      8 C          29.5781   42.8715  -11.9263 C.ar    1  UNL1        0.0420
      9 C          30.7349   43.4563  -11.3421 C.ar    1  UNL1        0.1298
     10 C          28.2719   42.8253  -11.1352 C.3     1  UNL1        0.0105
     11 C          28.5644   43.0847   -9.6431 C.3     1  UNL1        0.0341
     12 C          29.5003   44.3023   -9.4589 C.3     1  UNL1        0.1105
     13 O          30.7474   44.0065  -10.0795 O.3     1  UNL1       -0.4855
     14 C          28.9233   45.6057  -10.0548 C.3     1  UNL1       -0.0250
     15 C          29.8394   44.5495   -7.9790 C.3     1  UNL1       -0.0250
     16 N          27.5064   41.5704  -11.3748 N.4     1  UNL1        0.2345
     17 C          26.2113   41.3794  -10.6619 C.3     1  UNL1       -0.0047
     18 C          25.2646   42.6083  -10.7010 C.3     1  UNL1        0.1130
     19 O          25.0117   42.9524  -12.0401 O.3     1  UNL1       -0.3847
     20 C          23.8974   42.4968   -9.9645 C.3     1  UNL1        0.0543
     21 N          23.2423   41.2197  -10.2701 N.am    1  UNL1       -0.3083
     22 C          21.9501   41.0827  -10.6181 C.2     1  UNL1        0.2336
     23 O          21.1924   42.0417  -10.7720 O.2     1  UNL1       -0.2738
     24 C          21.4222   39.6477  -10.8102 C.3     1  UNL1        0.0991
     25 C          20.9495   39.5107  -12.2767 C.3     1  UNL1       -0.0379
     26 C          23.9948   42.6537   -8.4243 C.3     1  UNL1       -0.0293
     27 C          23.9189   44.0944   -7.8438 C.3     1  UNL1       -0.0421
     28 C          24.8599   45.1117   -8.5133 C.3     1  UNL1       -0.0624
     29 C          24.1837   44.1134   -6.3191 C.3     1  UNL1       -0.0504
     30 C          23.2147   43.2960   -5.4498 C.3     1  UNL1       -0.0528
     31 C          21.7600   43.7888   -5.5030 C.3     1  UNL1       -0.0530
     32 C          20.8328   43.0757   -4.5044 C.3     1  UNL1       -0.0531
     33 C          20.8033   41.5406   -4.6236 C.3     1  UNL1       -0.0530
     34 C          20.4599   41.0284   -6.0337 C.3     1  UNL1       -0.0526
     35 C          20.1218   39.5285   -6.0444 C.3     1  UNL1       -0.0448
     36 C          19.6477   39.0098   -7.4158 C.3     1  UNL1        0.0242
     37 C          20.7208   39.1006   -8.5226 C.2     1  UNL1        0.2159
     38 O          21.9004   38.9463   -8.1969 O.2     1  UNL1       -0.2756
     39 N          20.3571   39.3687   -9.8071 N.am    1  UNL1       -0.2932
     40 C          18.9336   39.4530  -10.1888 C.3     1  UNL1        0.0039
     41 H          27.6697   43.6425  -11.5301 H       1  UNL1        0.0906
     42 H          25.7918   43.4589  -10.2873 H       1  UNL1        0.0666
     43 H          23.2646   43.3133  -10.3181 H       1  UNL1        0.0526
     44 H          22.2353   38.9356  -10.6631 H       1  UNL1        0.0594
     45 H          22.9075   44.4630   -8.0199 H       1  UNL1        0.0299
     46 H          32.8213   43.9361  -11.6133 H       1  UNL1        0.0654
     47 H          32.9357   43.0696  -13.9183 H       1  UNL1        0.0622
     48 H          30.0034   41.3708  -15.6003 H       1  UNL1        0.0343
     49 H          30.0599   43.7579  -16.2637 H       1  UNL1        0.0235
     50 H          30.8997   42.7520  -17.4382 H       1  UNL1        0.0235
     51 H          31.8214   43.7245  -16.2941 H       1  UNL1        0.0235
     52 H          32.0600   40.1528  -14.9608 H       1  UNL1        0.0235
     53 H          33.0622   41.4828  -15.5372 H       1  UNL1        0.0235
     54 H          32.0641   40.5794  -16.6648 H       1  UNL1        0.0235
     55 H          28.7785   41.9643  -13.7294 H       1  UNL1        0.0626
     56 H          27.6513   43.2155   -9.0641 H       1  UNL1        0.0362
     57 H          29.0651   42.2058   -9.2402 H       1  UNL1        0.0362
     58 H          27.9547   45.8434   -9.6135 H       1  UNL1        0.0268
     59 H          28.7969   45.5607  -11.1349 H       1  UNL1        0.0268
     60 H          29.5858   46.4502   -9.8615 H       1  UNL1        0.0268
     61 H          28.9383   44.6458   -7.3733 H       1  UNL1        0.0268
     62 H          30.4179   45.4653   -7.8555 H       1  UNL1        0.0268
     63 H          30.4501   43.7497   -7.5608 H       1  UNL1        0.0268
     64 H          27.2941   41.5589  -12.3616 H       1  UNL1        0.2021
     65 H          25.7218   40.5124  -11.1060 H       1  UNL1        0.0840
     66 H          26.4307   41.0972   -9.6380 H       1  UNL1        0.0840
     67 H          24.4600   42.2785  -12.4283 H       1  UNL1        0.2101
     68 H          23.7699   40.3705  -10.1229 H       1  UNL1        0.1491
     69 H          21.7941   39.5668  -12.9636 H       1  UNL1        0.0252
     70 H          20.2502   40.2950  -12.5732 H       1  UNL1        0.0252
     71 H          20.4603   38.5521  -12.4403 H       1  UNL1        0.0252
     72 H          23.1629   42.1033   -7.9824 H       1  UNL1        0.0286
     73 H          24.8802   42.1476   -8.0556 H       1  UNL1        0.0286
     74 H          24.7621   46.0949   -8.0517 H       1  UNL1        0.0232
     75 H          24.6294   45.2476   -9.5698 H       1  UNL1        0.0232
     76 H          25.9026   44.8130   -8.4127 H       1  UNL1        0.0232
     77 H          25.1986   43.7593   -6.1303 H       1  UNL1        0.0268
     78 H          24.1679   45.1432   -5.9614 H       1  UNL1        0.0268
     79 H          23.5640   43.3433   -4.4192 H       1  UNL1        0.0265
     80 H          23.2609   42.2438   -5.7227 H       1  UNL1        0.0265
     81 H          21.7307   44.8615   -5.3023 H       1  UNL1        0.0265
     82 H          21.3663   43.6620   -6.5117 H       1  UNL1        0.0265
     83 H          19.8188   43.4573   -4.6357 H       1  UNL1        0.0265
     84 H          21.1209   43.3466   -3.4866 H       1  UNL1        0.0265
     85 H          21.7541   41.1161   -4.3008 H       1  UNL1        0.0265
     86 H          20.0603   41.1669   -3.9167 H       1  UNL1        0.0265
     87 H          21.2962   41.2243   -6.7038 H       1  UNL1        0.0265
     88 H          19.6170   41.5877   -6.4398 H       1  UNL1        0.0265
     89 H          20.9800   38.9534   -5.6975 H       1  UNL1        0.0270
     90 H          19.3213   39.3501   -5.3257 H       1  UNL1        0.0270
     91 H          18.7497   39.5696   -7.6707 H       1  UNL1        0.0358
     92 H          19.3461   37.9657   -7.3238 H       1  UNL1        0.0358
     93 H          18.7201   39.3655  -11.2495 H       1  UNL1        0.0429
     94 H          18.5189   40.4079   -9.8633 H       1  UNL1        0.0429
     95 H          18.3563   38.6510   -9.7248 H       1  UNL1        0.0429
     96 H          28.0926   40.7674  -11.1737 H       1  UNL1        0.2021
@<TRIPOS>BOND
     1     1     9   ar
     2     1     2   ar
     3     1    46    1
     4     2     3   ar
     5     2    47    1
     6     3     4    1
     7     3     7   ar
     8     4     5    1
     9     4     6    1
    10     4    48    1
    11     5    49    1
    12     5    50    1
    13     5    51    1
    14     6    52    1
    15     6    53    1
    16     6    54    1
    17     7     8   ar
    18     7    55    1
    19     8     9   ar
    20     8    10    1
    21     9    13    1
    22    10    41    1
    23    10    11    1
    24    10    16    1
    25    11    12    1
    26    11    56    1
    27    11    57    1
    28    12    13    1
    29    12    14    1
    30    12    15    1
    31    14    58    1
    32    14    59    1
    33    14    60    1
    34    15    61    1
    35    15    62    1
    36    15    63    1
    37    16    17    1
    38    16    64    1
    39    16    96    1
    40    17    18    1
    41    17    65    1
    42    17    66    1
    43    18    42    1
    44    18    19    1
    45    18    20    1
    46    19    67    1
    47    20    43    1
    48    20    21    1
    49    20    26    1
    50    21    22   am
    51    21    68    1
    52    22    23    2
    53    22    24    1
    54    24    44    1
    55    24    39    1
    56    24    25    1
    57    25    69    1
    58    25    70    1
    59    25    71    1
    60    26    27    1
    61    26    72    1
    62    26    73    1
    63    27    45    1
    64    27    28    1
    65    27    29    1
    66    28    74    1
    67    28    75    1
    68    28    76    1
    69    29    30    1
    70    29    77    1
    71    29    78    1
    72    30    31    1
    73    30    79    1
    74    30    80    1
    75    31    32    1
    76    31    81    1
    77    31    82    1
    78    32    33    1
    79    32    83    1
    80    32    84    1
    81    33    34    1
    82    33    85    1
    83    33    86    1
    84    34    35    1
    85    34    87    1
    86    34    88    1
    87    35    36    1
    88    35    89    1
    89    35    90    1
    90    36    37    1
    91    36    91    1
    92    36    92    1
    93    37    38    2
    94    37    39   am
    95    39    40    1
    96    40    93    1
    97    40    94    1
    98    40    95    1
