@<TRIPOS>MOLECULE
BACE_20.smi:1
 78 79 0 0 0
SMALL
GASTEIGER
****
Structure written by MMmdl.
@<TRIPOS>ATOM
      1 C          22.5408   47.4852  -15.9147 C.3     1  UNL1       -0.0652
      2 C          23.0673   47.2389  -14.4955 C.3     1  UNL1       -0.0545
      3 C          24.3097   46.3348  -14.4674 C.3     1  UNL1       -0.0377
      4 C          24.8451   46.1111  -13.0455 C.3     1  UNL1        0.0104
      5 N          26.0357   45.2708  -13.0502 N.pl3   1  UNL1       -0.3289
      6 C          26.0958   44.0800  -12.3096 C.ar    1  UNL1        0.1232
      7 C          24.9400   43.6575  -11.6207 C.ar    1  UNL1       -0.0095
      8 C          24.9809   42.4572  -10.8768 C.ar    1  UNL1        0.0450
      9 C          26.1984   41.7367  -10.8396 C.ar    1  UNL1        0.0122
     10 C          27.3135   42.2353  -11.5618 C.ar    1  UNL1        0.2168
     11 N          27.2539   43.3791  -12.2789 N.ar    1  UNL1       -0.1981
     12 O          28.5533   41.6330  -11.6135 O.3     1  UNL1       -0.4796
     13 C          29.5400   42.1808  -12.4769 C.3     1  UNL1        0.0804
     14 C          23.7689   41.9952  -10.1140 C.2     1  UNL1        0.2446
     15 O          22.6728   42.5269  -10.2976 O.2     1  UNL1       -0.2702
     16 N          23.9675   40.9522   -9.2852 N.am    1  UNL1       -0.3057
     17 C          23.2415   40.6630   -8.0438 C.3     1  UNL1        0.0533
     18 C          23.0191   42.0025   -7.2877 C.3     1  UNL1       -0.0068
     19 C          22.4419   41.8779   -5.8822 C.ar    1  UNL1       -0.0455
     20 C          21.3825   40.9791   -5.6257 C.ar    1  UNL1       -0.0585
     21 C          20.8602   40.8475   -4.3238 C.ar    1  UNL1       -0.0615
     22 C          21.3975   41.6089   -3.2682 C.ar    1  UNL1       -0.0617
     23 C          22.4600   42.4994   -3.5148 C.ar    1  UNL1       -0.0615
     24 C          22.9828   42.6315   -4.8166 C.ar    1  UNL1       -0.0585
     25 C          21.9692   39.8171   -8.3606 C.3     1  UNL1        0.0745
     26 C          21.5499   38.7980   -7.2666 C.3     1  UNL1       -0.0143
     27 C          20.0185   38.5851   -7.0997 C.3     1  UNL1        0.0351
     28 C          19.2721   39.7661   -6.4434 C.3     1  UNL1       -0.0540
     29 C          19.3494   38.1901   -8.4290 C.2     1  UNL1        0.2159
     30 O          19.9214   38.4272   -9.4941 O.2     1  UNL1       -0.2755
     31 N          18.1468   37.5914   -8.3543 N.am    1  UNL1       -0.3151
     32 C          17.3072   37.2073   -9.4860 C.3     1  UNL1        0.0116
     33 C          15.8594   37.7013   -9.3143 C.3     1  UNL1       -0.0376
     34 C          15.7418   39.2327   -9.3820 C.3     1  UNL1       -0.0545
     35 C          14.2965   39.7265   -9.2425 C.3     1  UNL1       -0.0652
     36 O          22.1247   39.1821   -9.6143 O.3     1  UNL1       -0.3899
     37 H          23.8981   40.0526   -7.4213 H       1  UNL1        0.0527
     38 H          21.1452   40.5177   -8.5016 H       1  UNL1        0.0612
     39 H          19.8754   37.7221   -6.4474 H       1  UNL1        0.0392
     40 H          21.6613   48.1291  -15.8946 H       1  UNL1        0.0230
     41 H          22.2556   46.5509  -16.3992 H       1  UNL1        0.0230
     42 H          23.2924   47.9714  -16.5374 H       1  UNL1        0.0230
     43 H          22.2748   46.7913  -13.8947 H       1  UNL1        0.0263
     44 H          23.3013   48.1977  -14.0315 H       1  UNL1        0.0263
     45 H          25.0938   46.7768  -15.0838 H       1  UNL1        0.0280
     46 H          24.0674   45.3715  -14.9184 H       1  UNL1        0.0280
     47 H          24.0753   45.6402  -12.4327 H       1  UNL1        0.0461
     48 H          25.0851   47.0718  -12.5878 H       1  UNL1        0.0461
     49 H          26.8317   45.5592  -13.6009 H       1  UNL1        0.1475
     50 H          24.0362   44.2485  -11.6728 H       1  UNL1        0.0659
     51 H          26.2659   40.8273  -10.2615 H       1  UNL1        0.0678
     52 H          30.4532   41.5917  -12.3923 H       1  UNL1        0.0660
     53 H          29.7893   43.2074  -12.2047 H       1  UNL1        0.0660
     54 H          29.2264   42.1455  -13.5212 H       1  UNL1        0.0660
     55 H          24.6826   40.2876   -9.5441 H       1  UNL1        0.1494
     56 H          23.9788   42.5108   -7.1798 H       1  UNL1        0.0332
     57 H          22.4072   42.6831   -7.8804 H       1  UNL1        0.0332
     58 H          20.9664   40.3844   -6.4258 H       1  UNL1        0.0620
     59 H          20.0485   40.1605   -4.1348 H       1  UNL1        0.0618
     60 H          20.9976   41.5074   -2.2700 H       1  UNL1        0.0618
     61 H          22.8760   43.0803   -2.7048 H       1  UNL1        0.0618
     62 H          23.8020   43.3140   -4.9893 H       1  UNL1        0.0620
     63 H          21.9471   39.1528   -6.3144 H       1  UNL1        0.0298
     64 H          22.0381   37.8392   -7.4442 H       1  UNL1        0.0298
     65 H          19.5213   39.8565   -5.3866 H       1  UNL1        0.0237
     66 H          18.1900   39.6365   -6.4949 H       1  UNL1        0.0237
     67 H          19.5133   40.7160   -6.9222 H       1  UNL1        0.0237
     68 H          17.7821   37.3867   -7.4350 H       1  UNL1        0.1487
     69 H          17.3318   36.1267   -9.6363 H       1  UNL1        0.0462
     70 H          17.7427   37.6492  -10.3828 H       1  UNL1        0.0462
     71 H          15.4701   37.3510   -8.3573 H       1  UNL1        0.0280
     72 H          15.2267   37.2587  -10.0847 H       1  UNL1        0.0280
     73 H          16.1497   39.5906  -10.3279 H       1  UNL1        0.0263
     74 H          16.3483   39.6826   -8.5951 H       1  UNL1        0.0263
     75 H          14.2529   40.8146   -9.2949 H       1  UNL1        0.0230
     76 H          13.8647   39.4240   -8.2880 H       1  UNL1        0.0230
     77 H          13.6642   39.3316  -10.0381 H       1  UNL1        0.0230
     78 H          22.9775   38.7760   -9.6409 H       1  UNL1        0.2099
@<TRIPOS>BOND
     1     1     2    1
     2     1    40    1
     3     1    41    1
     4     1    42    1
     5     2     3    1
     6     2    43    1
     7     2    44    1
     8     3     4    1
     9     3    45    1
    10     3    46    1
    11     4     5    1
    12     4    47    1
    13     4    48    1
    14     5     6    1
    15     5    49    1
    16     6    11   ar
    17     6     7   ar
    18     7     8   ar
    19     7    50    1
    20     8     9   ar
    21     8    14    1
    22     9    10   ar
    23     9    51    1
    24    10    11   ar
    25    10    12    1
    26    12    13    1
    27    13    52    1
    28    13    53    1
    29    13    54    1
    30    14    15    2
    31    14    16   am
    32    16    17    1
    33    16    55    1
    34    17    37    1
    35    17    18    1
    36    17    25    1
    37    18    19    1
    38    18    56    1
    39    18    57    1
    40    19    24   ar
    41    19    20   ar
    42    20    21   ar
    43    20    58    1
    44    21    22   ar
    45    21    59    1
    46    22    23   ar
    47    22    60    1
    48    23    24   ar
    49    23    61    1
    50    24    62    1
    51    25    38    1
    52    25    26    1
    53    25    36    1
    54    26    27    1
    55    26    63    1
    56    26    64    1
    57    27    39    1
    58    27    28    1
    59    27    29    1
    60    28    65    1
    61    28    66    1
    62    28    67    1
    63    29    30    2
    64    29    31   am
    65    31    32    1
    66    31    68    1
    67    32    33    1
    68    32    69    1
    69    32    70    1
    70    33    34    1
    71    33    71    1
    72    33    72    1
    73    34    35    1
    74    34    73    1
    75    34    74    1
    76    35    75    1
    77    35    76    1
    78    35    77    1
    79    36    78    1
