@<TRIPOS>MOLECULE
BACE_19.smi:1
 76 77 0 0 0
SMALL
GASTEIGER
****
Structure written by MMmdl.
@<TRIPOS>ATOM
      1 C          24.8082   51.3453   -2.0022 C.3     1  UNL1       -0.0652
      2 C          23.3494   51.0032   -1.6650 C.3     1  UNL1       -0.0545
      3 C          22.5603   50.5065   -2.8880 C.3     1  UNL1       -0.0376
      4 C          23.1742   49.2873   -3.5992 C.3     1  UNL1        0.0116
      5 N          22.3014   48.7297   -4.6209 N.am    1  UNL1       -0.3151
      6 C          21.7985   49.3751   -5.6799 C.2     1  UNL1        0.2159
      7 O          22.0580   50.5503   -5.9327 O.2     1  UNL1       -0.2755
      8 C          20.8317   48.5638   -6.5500 C.3     1  UNL1        0.0351
      9 C          19.3888   49.0804   -6.3840 C.3     1  UNL1       -0.0540
     10 C          21.0133   47.0305   -6.3851 C.3     1  UNL1       -0.0143
     11 C          19.7829   46.1460   -6.7279 C.3     1  UNL1        0.0742
     12 C          20.1074   44.6344   -6.9412 C.3     1  UNL1        0.0493
     13 C          21.3732   44.1327   -6.1950 C.3     1  UNL1       -0.0295
     14 C          21.6801   42.6092   -6.2339 C.3     1  UNL1       -0.0418
     15 C          20.4450   41.7298   -5.8805 C.3     1  UNL1       -0.0464
     16 C          20.6037   40.1945   -5.9948 C.3     1  UNL1       -0.0274
     17 C          20.5950   39.6790   -7.4298 C.ar    1  UNL1       -0.0470
     18 C          21.6301   38.8335   -7.8785 C.ar    1  UNL1       -0.0586
     19 C          21.6739   38.4312   -9.2270 C.ar    1  UNL1       -0.0612
     20 C          20.6998   38.8924  -10.1294 C.ar    1  UNL1       -0.0570
     21 C          19.6540   39.7344   -9.6990 C.ar    1  UNL1       -0.0263
     22 C          19.5834   40.0778   -8.3313 C.ar    1  UNL1       -0.0538
     23 C          18.6227   40.2341  -10.7119 C.3     1  UNL1        0.0907
     24 S          18.3575   42.0754  -10.6559 S.O2    1  UNL1       -0.0263
     25 O          17.4770   42.4538  -11.7724 O.2     1  UNL1       -0.1740
     26 O          17.9872   42.4882   -9.2949 O.2     1  UNL1       -0.1740
     27 C          20.0572   42.7254  -11.0027 C.3     1  UNL1        0.0769
     28 C          20.2322   44.2486  -10.7996 C.3     1  UNL1        0.0520
     29 C          20.7124   44.6477   -9.3940 C.2     1  UNL1        0.2177
     30 O          21.6841   45.3920   -9.2752 O.2     1  UNL1       -0.2755
     31 N          20.0005   44.2053   -8.3469 N.am    1  UNL1       -0.3097
     32 C          19.0496   45.1253  -11.2448 C.3     1  UNL1       -0.0526
     33 C          22.4167   42.2117   -7.5244 C.3     1  UNL1       -0.0623
     34 O          18.8012   46.2833   -5.7230 O.3     1  UNL1       -0.3899
     35 H          21.1224   48.7852   -7.5795 H       1  UNL1        0.0392
     36 H          19.3055   46.5390   -7.6250 H       1  UNL1        0.0612
     37 H          19.2824   44.1132   -6.4684 H       1  UNL1        0.0524
     38 H          22.4101   42.4417   -5.4408 H       1  UNL1        0.0299
     39 H          21.0604   44.5275  -11.4496 H       1  UNL1        0.0407
     40 H          25.3422   51.6759   -1.1105 H       1  UNL1        0.0230
     41 H          24.8646   52.1496   -2.7353 H       1  UNL1        0.0230
     42 H          25.3385   50.4817   -2.4040 H       1  UNL1        0.0230
     43 H          23.3317   50.2489   -0.8771 H       1  UNL1        0.0263
     44 H          22.8686   51.8924   -1.2599 H       1  UNL1        0.0263
     45 H          21.5451   50.2545   -2.5782 H       1  UNL1        0.0280
     46 H          22.4758   51.3167   -3.6081 H       1  UNL1        0.0280
     47 H          24.1094   49.5612   -4.0832 H       1  UNL1        0.0462
     48 H          23.4149   48.5131   -2.8707 H       1  UNL1        0.0462
     49 H          22.0564   47.7485   -4.5367 H       1  UNL1        0.1487
     50 H          19.3369   50.1636   -6.4856 H       1  UNL1        0.0237
     51 H          18.9753   48.8502   -5.4042 H       1  UNL1        0.0237
     52 H          18.7352   48.6613   -7.1474 H       1  UNL1        0.0237
     53 H          21.8880   46.7231   -6.9548 H       1  UNL1        0.0298
     54 H          21.3067   46.8334   -5.3538 H       1  UNL1        0.0298
     55 H          22.2474   44.6873   -6.5368 H       1  UNL1        0.0286
     56 H          21.2586   44.4167   -5.1478 H       1  UNL1        0.0286
     57 H          20.1744   41.9578   -4.8484 H       1  UNL1        0.0271
     58 H          19.5775   42.0185   -6.4655 H       1  UNL1        0.0271
     59 H          21.5130   39.8775   -5.4825 H       1  UNL1        0.0313
     60 H          19.7764   39.7097   -5.4755 H       1  UNL1        0.0313
     61 H          22.4022   38.5072   -7.1988 H       1  UNL1        0.0620
     62 H          22.4665   37.7806   -9.5697 H       1  UNL1        0.0618
     63 H          20.7407   38.5660  -11.1584 H       1  UNL1        0.0621
     64 H          18.7642   40.6768   -7.9673 H       1  UNL1        0.0623
     65 H          18.9362   39.9867  -11.7255 H       1  UNL1        0.0549
     66 H          17.6692   39.7365  -10.5647 H       1  UNL1        0.0549
     67 H          20.7665   42.1686  -10.3978 H       1  UNL1        0.0507
     68 H          20.2851   42.4821  -12.0376 H       1  UNL1        0.0507
     69 H          19.2261   43.5803   -8.5589 H       1  UNL1        0.1491
     70 H          19.2856   46.1831  -11.1193 H       1  UNL1        0.0237
     71 H          18.1473   44.9267  -10.6667 H       1  UNL1        0.0237
     72 H          18.8166   44.9708  -12.2991 H       1  UNL1        0.0237
     73 H          21.7361   42.1079   -8.3648 H       1  UNL1        0.0232
     74 H          22.9330   41.2612   -7.3989 H       1  UNL1        0.0232
     75 H          23.1754   42.9469   -7.7965 H       1  UNL1        0.0232
     76 H          18.0096   45.8565   -6.0371 H       1  UNL1        0.2099
@<TRIPOS>BOND
     1     1     2    1
     2     1    40    1
     3     1    41    1
     4     1    42    1
     5     2     3    1
     6     2    43    1
     7     2    44    1
     8     3     4    1
     9     3    45    1
    10     3    46    1
    11     4     5    1
    12     4    47    1
    13     4    48    1
    14     5     6   am
    15     5    49    1
    16     6     7    2
    17     6     8    1
    18     8    35    1
    19     8     9    1
    20     8    10    1
    21     9    50    1
    22     9    51    1
    23     9    52    1
    24    10    11    1
    25    10    53    1
    26    10    54    1
    27    11    36    1
    28    11    12    1
    29    11    34    1
    30    12    37    1
    31    12    31    1
    32    12    13    1
    33    13    14    1
    34    13    55    1
    35    13    56    1
    36    14    38    1
    37    14    15    1
    38    14    33    1
    39    15    16    1
    40    15    57    1
    41    15    58    1
    42    16    17    1
    43    16    59    1
    44    16    60    1
    45    17    22   ar
    46    17    18   ar
    47    18    19   ar
    48    18    61    1
    49    19    20   ar
    50    19    62    1
    51    20    21   ar
    52    20    63    1
    53    21    22   ar
    54    21    23    1
    55    22    64    1
    56    23    24    1
    57    23    65    1
    58    23    66    1
    59    24    25    2
    60    24    26    2
    61    24    27    1
    62    27    28    1
    63    27    67    1
    64    27    68    1
    65    28    39    1
    66    28    29    1
    67    28    32    1
    68    29    30    2
    69    29    31   am
    70    31    69    1
    71    32    70    1
    72    32    71    1
    73    32    72    1
    74    33    73    1
    75    33    74    1
    76    33    75    1
    77    34    76    1
