@<TRIPOS>MOLECULE
BACE_7.smi:1
 98 102 0 0 0
SMALL
GASTEIGER
****
Structure written by MMmdl.
@<TRIPOS>ATOM
      1 C          17.6562   38.1192   -9.8418 C.3     1  UNL1       -0.0624
      2 C          17.5169   39.2124   -8.7683 C.3     1  UNL1       -0.0421
      3 C          17.7795   38.6473   -7.3528 C.3     1  UNL1       -0.0504
      4 C          19.2826   38.5213   -7.0234 C.3     1  UNL1       -0.0528
      5 C          19.9072   39.8587   -6.5866 C.3     1  UNL1       -0.0516
      6 C          21.4320   39.9408   -6.7619 C.3     1  UNL1       -0.0371
      7 C          22.0129   41.3072   -6.3304 C.3     1  UNL1        0.0156
      8 N          21.4733   42.4377   -7.1181 N.am    1  UNL1       -0.2907
      9 C          21.9575   42.6493   -8.3731 C.2     1  UNL1        0.2471
     10 O          23.0419   42.2163   -8.7614 O.2     1  UNL1       -0.2700
     11 C          21.0486   43.2954   -9.3750 C.ar    1  UNL1        0.0384
     12 C          21.3717   44.5332   -9.9702 C.ar    1  UNL1       -0.0373
     13 C          20.5000   45.1121  -10.9239 C.ar    1  UNL1        0.0383
     14 C          19.3081   44.4418  -11.2806 C.ar    1  UNL1       -0.0373
     15 C          18.9856   43.1982  -10.6976 C.ar    1  UNL1        0.0381
     16 C          19.8787   42.6207   -9.7704 C.ar    1  UNL1       -0.0375
     17 C          17.7217   42.4847  -11.0696 C.2     1  UNL1        0.2444
     18 O          17.2600   42.5467  -12.2090 O.2     1  UNL1       -0.2702
     19 N          17.1316   41.8542  -10.0417 N.am    1  UNL1       -0.3060
     20 C          16.0267   40.8999  -10.0955 C.3     1  UNL1        0.0508
     21 C          16.1550   39.9521   -8.8743 C.3     1  UNL1       -0.0295
     22 C          14.6169   41.5748  -10.1940 C.3     1  UNL1        0.0859
     23 C          14.5554   43.1151   -9.9303 C.3     1  UNL1        0.0240
     24 N          13.3578   43.7988  -10.4504 N.3     1  UNL1       -0.3095
     25 C          13.4008   44.1259  -11.8838 C.3     1  UNL1        0.0213
     26 C          14.0472   45.4547  -12.2628 C.ar    1  UNL1       -0.0333
     27 C          15.4418   45.6542  -12.1493 C.ar    1  UNL1       -0.0573
     28 C          16.0333   46.8394  -12.6250 C.ar    1  UNL1       -0.0612
     29 C          15.2423   47.8343  -13.2306 C.ar    1  UNL1       -0.0583
     30 C          13.8409   47.6621  -13.3342 C.ar    1  UNL1       -0.0445
     31 C          13.2598   46.4727  -12.8391 C.ar    1  UNL1       -0.0539
     32 C          12.9356   48.7126  -13.9806 C.3     1  UNL1       -0.0215
     33 C          12.4256   48.2315  -15.3459 C.3     1  UNL1       -0.0586
     34 C          13.5748   50.1085  -14.0927 C.3     1  UNL1       -0.0586
     35 O          14.0600   41.1787  -11.4354 O.3     1  UNL1       -0.3887
     36 C          20.8204   46.4022  -11.5303 C.ar    1  UNL1        0.2271
     37 N          21.9198   47.1429  -11.3771 N.ar    1  UNL1       -0.2175
     38 C          21.7215   48.2612  -12.1747 C.ar    1  UNL1        0.0663
     39 C          20.4904   48.1449  -12.7691 C.ar    1  UNL1        0.1125
     40 O          19.9075   46.9740  -12.3655 O.2     1  UNL1       -0.4436
     41 C          20.6993   43.4523   -6.3539 C.3     1  UNL1        0.0487
     42 C          19.2335   43.6517   -6.7987 C.3     1  UNL1       -0.0422
     43 C          21.4797   44.7568   -6.1664 C.ar    1  UNL1       -0.0273
     44 C          22.6385   44.7466   -5.3595 C.ar    1  UNL1       -0.0568
     45 C          23.3854   45.9252   -5.1651 C.ar    1  UNL1       -0.0614
     46 C          22.9823   47.1254   -5.7760 C.ar    1  UNL1       -0.0617
     47 C          21.8313   47.1461   -6.5860 C.ar    1  UNL1       -0.0614
     48 C          21.0841   45.9679   -6.7837 C.ar    1  UNL1       -0.0568
     49 H          18.3090   39.9290   -8.9551 H       1  UNL1        0.0299
     50 H          16.1859   40.2853  -10.9838 H       1  UNL1        0.0524
     51 H          13.9623   41.1080   -9.4575 H       1  UNL1        0.0624
     52 H          20.5824   43.0813   -5.3349 H       1  UNL1        0.0548
     53 H          16.8475   37.3902   -9.7788 H       1  UNL1        0.0232
     54 H          18.5940   37.5733   -9.7419 H       1  UNL1        0.0232
     55 H          17.6487   38.5491  -10.8404 H       1  UNL1        0.0232
     56 H          17.3096   39.2705   -6.5912 H       1  UNL1        0.0268
     57 H          17.2963   37.6761   -7.2616 H       1  UNL1        0.0268
     58 H          19.4121   37.7850   -6.2292 H       1  UNL1        0.0265
     59 H          19.8176   38.1210   -7.8844 H       1  UNL1        0.0265
     60 H          19.4516   40.6601   -7.1613 H       1  UNL1        0.0266
     61 H          19.6578   40.0516   -5.5440 H       1  UNL1        0.0266
     62 H          21.9032   39.1504   -6.1753 H       1  UNL1        0.0280
     63 H          21.6964   39.7436   -7.8020 H       1  UNL1        0.0280
     64 H          21.8461   41.4320   -5.2606 H       1  UNL1        0.0465
     65 H          23.0969   41.2775   -6.4301 H       1  UNL1        0.0465
     66 H          22.2830   45.0413   -9.6886 H       1  UNL1        0.0633
     67 H          18.6354   44.8798  -12.0035 H       1  UNL1        0.0633
     68 H          19.6669   41.6560   -9.3344 H       1  UNL1        0.0633
     69 H          17.5760   41.9485   -9.1399 H       1  UNL1        0.1494
     70 H          15.3459   39.2195   -8.8848 H       1  UNL1        0.0286
     71 H          15.9952   40.5460   -7.9723 H       1  UNL1        0.0286
     72 H          14.5969   43.2524   -8.8489 H       1  UNL1        0.0450
     73 H          15.4330   43.6270  -10.2988 H       1  UNL1        0.0450
     74 H          12.5522   43.2085  -10.2644 H       1  UNL1        0.1223
     75 H          13.9220   43.3545  -12.4407 H       1  UNL1        0.0473
     76 H          12.3842   44.1248  -12.2741 H       1  UNL1        0.0473
     77 H          16.0834   44.8909  -11.7462 H       1  UNL1        0.0621
     78 H          17.1040   46.9724  -12.5444 H       1  UNL1        0.0618
     79 H          15.7325   48.7201  -13.6046 H       1  UNL1        0.0620
     80 H          12.1961   46.3319  -12.9438 H       1  UNL1        0.0623
     81 H          12.0670   48.8149  -13.3307 H       1  UNL1        0.0343
     82 H          11.8940   47.2822  -15.2649 H       1  UNL1        0.0235
     83 H          13.2469   48.0896  -16.0495 H       1  UNL1        0.0235
     84 H          11.7354   48.9522  -15.7859 H       1  UNL1        0.0235
     85 H          13.9230   50.4745  -13.1276 H       1  UNL1        0.0235
     86 H          12.8602   50.8390  -14.4723 H       1  UNL1        0.0235
     87 H          14.4196   50.1107  -14.7818 H       1  UNL1        0.0235
     88 H          13.3378   40.5848  -11.2398 H       1  UNL1        0.2099
     89 H          22.4593   49.0438  -12.2553 H       1  UNL1        0.0862
     90 H          19.9262   48.7615  -13.4535 H       1  UNL1        0.1046
     91 H          18.7175   44.2894   -6.0815 H       1  UNL1        0.0251
     92 H          18.6890   42.7098   -6.8380 H       1  UNL1        0.0251
     93 H          19.1247   44.1376   -7.7653 H       1  UNL1        0.0251
     94 H          22.9638   43.8320   -4.8839 H       1  UNL1        0.0621
     95 H          24.2707   45.9026   -4.5462 H       1  UNL1        0.0618
     96 H          23.5574   48.0277   -5.6269 H       1  UNL1        0.0618
     97 H          21.5253   48.0635   -7.0649 H       1  UNL1        0.0618
     98 H          20.2182   46.0156   -7.4216 H       1  UNL1        0.0621
@<TRIPOS>BOND
     1     1     2    1
     2     1    53    1
     3     1    54    1
     4     1    55    1
     5     2    49    1
     6     2    21    1
     7     2     3    1
     8     3     4    1
     9     3    56    1
    10     3    57    1
    11     4     5    1
    12     4    58    1
    13     4    59    1
    14     5     6    1
    15     5    60    1
    16     5    61    1
    17     6     7    1
    18     6    62    1
    19     6    63    1
    20     7     8    1
    21     7    64    1
    22     7    65    1
    23     8     9   am
    24     8    41    1
    25     9    10    2
    26     9    11    1
    27    11    16   ar
    28    11    12   ar
    29    12    13   ar
    30    12    66    1
    31    13    14   ar
    32    13    36    1
    33    14    15   ar
    34    14    67    1
    35    15    16   ar
    36    15    17    1
    37    16    68    1
    38    17    18    2
    39    17    19   am
    40    19    20    1
    41    19    69    1
    42    20    50    1
    43    20    21    1
    44    20    22    1
    45    21    70    1
    46    21    71    1
    47    22    51    1
    48    22    23    1
    49    22    35    1
    50    23    24    1
    51    23    72    1
    52    23    73    1
    53    24    25    1
    54    24    74    1
    55    25    26    1
    56    25    75    1
    57    25    76    1
    58    26    31   ar
    59    26    27   ar
    60    27    28   ar
    61    27    77    1
    62    28    29   ar
    63    28    78    1
    64    29    30   ar
    65    29    79    1
    66    30    31   ar
    67    30    32    1
    68    31    80    1
    69    32    33    1
    70    32    34    1
    71    32    81    1
    72    33    82    1
    73    33    83    1
    74    33    84    1
    75    34    85    1
    76    34    86    1
    77    34    87    1
    78    35    88    1
    79    36    40   ar
    80    36    37   ar
    81    37    38   ar
    82    38    39   ar
    83    38    89    1
    84    39    40   ar
    85    39    90    1
    86    41    52    1
    87    41    42    1
    88    41    43    1
    89    42    91    1
    90    42    92    1
    91    42    93    1
    92    43    48   ar
    93    43    44   ar
    94    44    45   ar
    95    44    94    1
    96    45    46   ar
    97    45    95    1
    98    46    47   ar
    99    46    96    1
   100    47    48   ar
   101    47    97    1
   102    48    98    1
