REMARK energy -6.17567
 OpenBabel10031817233D
Structure written by MMmdl.
 77 80  0  0  1  0  0  0  0  0999 V2000
   19.9646   42.2336   -2.1297 C   0  0  0  0  0  0  0  0  0  0  0  0
   20.9894   41.3065   -2.4586 O   0  0  0  0  0  0  0  0  0  0  0  0
   21.9057   41.7620   -3.4488 C   0  0  0  0  0  0  0  0  0  0  0  0
   21.4156   41.5320   -4.8705 C   0  0  0  0  0  0  0  0  0  0  0  0
   20.5704   42.4756   -5.4852 C   0  0  0  0  0  0  0  0  0  0  0  0
   20.0582   42.2531   -6.7826 C   0  0  0  0  0  0  0  0  0  0  0  0
   20.4716   41.1007   -7.4933 C   0  0  0  0  0  0  0  0  0  0  0  0
   21.3335   40.1470   -6.8944 C   0  0  0  0  0  0  0  0  0  0  0  0
   21.7927   40.3717   -5.5788 C   0  0  0  0  0  0  0  0  0  0  0  0
   21.7385   38.9670   -7.5452 N   0  0  0  0  0  0  0  0  0  0  0  0
   21.0293   38.4783   -8.7212 C   0  0  0  0  0  0  0  0  0  0  0  0
   21.5415   39.0988  -10.0250 C   0  0  0  0  0  0  0  0  0  0  0  0
   20.4367   39.1524  -11.0931 C   0  0  0  0  0  0  0  0  0  0  0  0
   20.8921   39.8157  -12.4059 C   0  0  0  0  0  0  0  0  0  0  0  0
   21.6598   40.9940  -12.1896 O   0  0  0  0  0  0  0  0  0  0  0  0
   21.0854   42.1160  -11.6400 C   0  0  0  0  0  0  0  0  0  0  0  0
   21.9629   43.1441  -11.2410 C   0  0  0  0  0  0  0  0  0  0  0  0
   21.4677   44.3352  -10.6787 C   0  0  0  0  0  0  0  0  0  0  0  0
   20.0838   44.5010  -10.4987 C   0  0  0  0  0  0  0  0  0  0  0  0
   19.1963   43.4735  -10.8799 C   0  0  0  0  0  0  0  0  0  0  0  0
   19.6935   42.2949  -11.4702 C   0  0  0  0  0  0  0  0  0  0  0  0
   17.7106   43.6125  -10.6138 C   0  0  0  0  0  0  0  0  0  0  0  0
   17.3298   43.6291   -9.1105 C   0  0  2  0  0  0  0  0  0  0  0  0
   18.2316   42.7797   -8.3094 N   0  0  0  0  0  0  0  0  0  0  0  0
   19.0713   43.2383   -7.3578 C   0  0  0  0  0  0  0  0  0  0  0  0
   19.0159   44.3888   -6.9206 O   0  0  0  0  0  0  0  0  0  0  0  0
   15.8096   43.3422   -8.9094 C   0  0  1  0  0  0  0  0  0  0  0  0
   15.2954   41.9035   -8.5922 C   0  0  1  0  0  0  0  0  0  0  0  0
   15.6912   40.8824   -9.6846 C   0  0  0  0  0  0  0  0  0  0  0  0
   15.2822   39.5587   -9.3494 O   0  0  0  0  0  0  0  0  0  0  0  0
   15.8128   39.0848   -8.1113 C   0  0  2  0  0  0  0  0  0  0  0  0
   15.2678   40.0100   -7.0042 C   0  0  0  0  0  0  0  0  0  0  0  0
   15.6654   41.4142   -7.2401 N   0  3  0  0  0  0  0  0  0  0  0  0
   17.3565   38.9693   -8.2130 C   0  0  0  0  0  0  0  0  0  0  0  0
   17.9029   37.8696   -7.5112 O   0  0  0  0  0  0  0  0  0  0  0  0
   18.1767   38.1503   -6.1506 C   0  0  0  0  0  0  0  0  0  0  0  0
   15.2671   44.3134   -8.0400 O   0  0  0  0  0  0  0  0  0  0  0  0
   17.5058   44.6675   -8.8218 H   0  0  0  0  0  0  0  0  0  0  0  0
   15.3297   43.6057   -9.8536 H   0  0  0  0  0  0  0  0  0  0  0  0
   14.2055   41.9473   -8.5946 H   0  0  0  0  0  0  0  0  0  0  0  0
   15.4056   38.0836   -7.9641 H   0  0  0  0  0  0  0  0  0  0  0  0
   19.3001   41.7958   -1.3846 H   0  0  0  0  0  0  0  0  0  0  0  0
   19.3547   42.4958   -2.9927 H   0  0  0  0  0  0  0  0  0  0  0  0
   20.3840   43.1497   -1.7122 H   0  0  0  0  0  0  0  0  0  0  0  0
   22.8362   41.2079   -3.3130 H   0  0  0  0  0  0  0  0  0  0  0  0
   22.1598   42.8129   -3.2957 H   0  0  0  0  0  0  0  0  0  0  0  0
   20.2789   43.3576   -4.9338 H   0  0  0  0  0  0  0  0  0  0  0  0
   20.1119   40.9436   -8.4972 H   0  0  0  0  0  0  0  0  0  0  0  0
   22.4356   39.6462   -5.1010 H   0  0  0  0  0  0  0  0  0  0  0  0
   22.2816   38.2953   -7.0213 H   0  0  0  0  0  0  0  0  0  0  0  0
   19.9710   38.6839   -8.5938 H   0  0  0  0  0  0  0  0  0  0  0  0
   21.1146   37.3934   -8.7986 H   0  0  0  0  0  0  0  0  0  0  0  0
   22.4059   38.5424  -10.3875 H   0  0  0  0  0  0  0  0  0  0  0  0
   21.9001   40.1100   -9.8303 H   0  0  0  0  0  0  0  0  0  0  0  0
   19.5876   39.6932  -10.6813 H   0  0  0  0  0  0  0  0  0  0  0  0
   20.0601   38.1504  -11.2999 H   0  0  0  0  0  0  0  0  0  0  0  0
   20.0519   40.0206  -13.0679 H   0  0  0  0  0  0  0  0  0  0  0  0
   21.5345   39.1211  -12.9477 H   0  0  0  0  0  0  0  0  0  0  0  0
   23.0283   43.0143  -11.3698 H   0  0  0  0  0  0  0  0  0  0  0  0
   22.1523   45.1148  -10.3772 H   0  0  0  0  0  0  0  0  0  0  0  0
   19.7074   45.4060  -10.0458 H   0  0  0  0  0  0  0  0  0  0  0  0
   18.9958   41.5319  -11.7755 H   0  0  0  0  0  0  0  0  0  0  0  0
   17.1968   42.7985  -11.1240 H   0  0  0  0  0  0  0  0  0  0  0  0
   17.3539   44.5249  -11.0940 H   0  0  0  0  0  0  0  0  0  0  0  0
   18.3727   41.8306   -8.6201 H   0  0  0  0  0  0  0  0  0  0  0  0
   16.7639   40.9011   -9.8744 H   0  0  0  0  0  0  0  0  0  0  0  0
   15.2162   41.1515  -10.6287 H   0  0  0  0  0  0  0  0  0  0  0  0
   15.5840   39.7037   -6.0099 H   0  0  0  0  0  0  0  0  0  0  0  0
   14.1790   39.9516   -6.9886 H   0  0  0  0  0  0  0  0  0  0  0  0
   16.6606   41.4975   -7.0891 H   0  0  0  0  0  0  0  0  0  0  0  0
   17.6097   38.7697   -9.2557 H   0  0  0  0  0  0  0  0  0  0  0  0
   17.8635   39.8994   -7.9546 H   0  0  0  0  0  0  0  0  0  0  0  0
   18.4599   37.2325   -5.6406 H   0  0  0  0  0  0  0  0  0  0  0  0
   17.3086   38.5502   -5.6401 H   0  0  0  0  0  0  0  0  0  0  0  0
   18.9906   38.8659   -6.0442 H   0  0  0  0  0  0  0  0  0  0  0  0
   15.5856   44.1563   -7.1545 H   0  0  0  0  0  0  0  0  0  0  0  0
   15.1999   41.9818   -6.5333 H   0  0  0  0  0  0  0  0  0  0  0  0
  1  2  1  0  0  0  0
  1 42  1  0  0  0  0
  1 43  1  0  0  0  0
  1 44  1  0  0  0  0
  2  3  1  0  0  0  0
  3  4  1  0  0  0  0
  3 45  1  0  0  0  0
  3 46  1  0  0  0  0
  4  9  1  0  0  0  0
  4  5  2  0  0  0  0
  5  6  1  0  0  0  0
  5 47  1  0  0  0  0
  6 25  1  0  0  0  0
  6  7  2  0  0  0  0
  7  8  1  0  0  0  0
  7 48  1  0  0  0  0
  8  9  2  0  0  0  0
  8 10  1  0  0  0  0
  9 49  1  0  0  0  0
 10 11  1  0  0  0  0
 10 50  1  0  0  0  0
 11 12  1  0  0  0  0
 11 51  1  0  0  0  0
 11 52  1  0  0  0  0
 12 13  1  0  0  0  0
 12 53  1  0  0  0  0
 12 54  1  0  0  0  0
 13 14  1  0  0  0  0
 13 55  1  0  0  0  0
 13 56  1  0  0  0  0
 14 15  1  0  0  0  0
 14 57  1  0  0  0  0
 14 58  1  0  0  0  0
 15 16  1  0  0  0  0
 16 21  1  0  0  0  0
 16 17  2  0  0  0  0
 17 18  1  0  0  0  0
 17 59  1  0  0  0  0
 18 19  2  0  0  0  0
 18 60  1  0  0  0  0
 19 20  1  0  0  0  0
 19 61  1  0  0  0  0
 20 21  2  0  0  0  0
 20 22  1  0  0  0  0
 21 62  1  0  0  0  0
 22 23  1  0  0  0  0
 22 63  1  0  0  0  0
 22 64  1  0  0  0  0
 23 38  1  1  0  0  0
 23 24  1  0  0  0  0
 23 27  1  0  0  0  0
 24 25  1  0  0  0  0
 24 65  1  0  0  0  0
 25 26  2  0  0  0  0
 27 39  1  6  0  0  0
 27 28  1  0  0  0  0
 27 37  1  0  0  0  0
 28 40  1  6  0  0  0
 28 33  1  0  0  0  0
 28 29  1  0  0  0  0
 29 30  1  0  0  0  0
 29 66  1  0  0  0  0
 29 67  1  0  0  0  0
 30 31  1  0  0  0  0
 31 41  1  1  0  0  0
 31 32  1  0  0  0  0
 31 34  1  0  0  0  0
 32 33  1  0  0  0  0
 32 68  1  0  0  0  0
 32 69  1  0  0  0  0
 33 70  1  0  0  0  0
 33 77  1  0  0  0  0
 34 35  1  0  0  0  0
 34 71  1  0  0  0  0
 34 72  1  0  0  0  0
 35 36  1  0  0  0  0
 36 73  1  0  0  0  0
 36 74  1  0  0  0  0
 36 75  1  0  0  0  0
 37 76  1  0  0  0  0
M  CHG  1  33   1
M  END
