REMARK energy -2.85262
 OpenBabel10031817233D
Structure written by MMmdl.
 95 97  0  0  1  0  0  0  0  0999 V2000
   22.3705   50.7982   -3.4266 C   0  0  0  0  0  0  0  0  0  0  0  0
   23.2647   50.8635   -2.3461 C   0  0  0  0  0  0  0  0  0  0  0  0
   24.2132   49.8420   -2.1492 C   0  0  0  0  0  0  0  0  0  0  0  0
   25.1882   49.9694   -0.9844 C   0  0  0  0  0  0  0  0  0  0  0  0
   24.6593   49.2198    0.2406 C   0  0  0  0  0  0  0  0  0  0  0  0
   26.6281   49.5638   -1.3398 C   0  0  0  0  0  0  0  0  0  0  0  0
   24.2091   48.7168   -3.0084 C   0  0  0  0  0  0  0  0  0  0  0  0
   23.2992   48.6342   -4.0894 C   0  0  0  0  0  0  0  0  0  0  0  0
   22.4181   49.7230   -4.3301 C   0  0  0  0  0  0  0  0  0  0  0  0
   23.2600   47.3896   -4.9849 C   0  0  2  0  0  0  0  0  0  0  0  0
   22.0520   47.4830   -5.9492 C   0  0  0  0  0  0  0  0  0  0  0  0
   21.8363   48.9044   -6.5029 C   0  0  0  0  0  0  0  0  0  0  0  0
   21.5793   49.7898   -5.4189 O   0  0  0  0  0  0  0  0  0  0  0  0
   23.0383   49.4116   -7.3284 C   0  0  0  0  0  0  0  0  0  0  0  0
   20.5662   48.9698   -7.3654 C   0  0  0  0  0  0  0  0  0  0  0  0
   23.2603   46.1505   -4.1711 N   0  0  0  0  0  0  0  0  0  0  0  0
   22.6733   44.9163   -4.7394 C   0  0  0  0  0  0  0  0  0  0  0  0
   23.5086   44.2883   -5.8808 C   0  0  1  0  0  0  0  0  0  0  0  0
   24.4070   43.3998   -5.2400 O   0  0  0  0  0  0  0  0  0  0  0  0
   22.7204   43.4307   -6.9181 C   0  0  1  0  0  0  0  0  0  0  0  0
   21.5579   44.1285   -7.4762 N   0  0  0  0  0  0  0  0  0  0  0  0
   20.2834   43.9681   -7.0828 C   0  0  0  0  0  0  0  0  0  0  0  0
   19.9839   43.3499   -6.0643 O   0  0  0  0  0  0  0  0  0  0  0  0
   19.1984   44.6458   -7.9454 C   0  0  2  0  0  0  0  0  0  0  0  0
   18.5325   45.7958   -7.1614 C   0  0  0  0  0  0  0  0  0  0  0  0
   23.6498   42.9678   -8.0736 C   0  0  0  0  0  0  0  0  0  0  0  0
   23.0500   42.0787   -9.1923 C   0  0  2  0  0  0  0  0  0  0  0  0
   22.2254   42.8663  -10.2286 C   0  0  0  0  0  0  0  0  0  0  0  0
   22.3088   40.8360   -8.6491 C   0  0  0  0  0  0  0  0  0  0  0  0
   21.9656   39.8188   -9.7505 C   0  0  0  0  0  0  0  0  0  0  0  0
   21.4534   38.4645   -9.2323 C   0  0  0  0  0  0  0  0  0  0  0  0
   19.9887   38.4203   -8.7599 C   0  0  0  0  0  0  0  0  0  0  0  0
   18.9697   38.8930   -9.8144 C   0  0  0  0  0  0  0  0  0  0  0  0
   18.4327   40.2917   -9.4854 C   0  0  0  0  0  0  0  0  0  0  0  0
   17.7096   40.9845  -10.6527 C   0  0  0  0  0  0  0  0  0  0  0  0
   17.0634   42.3317  -10.2621 C   0  0  0  0  0  0  0  0  0  0  0  0
   18.0882   43.3751   -9.7675 C   0  0  0  0  0  0  0  0  0  0  0  0
   18.8122   43.8892  -10.6217 O   0  0  0  0  0  0  0  0  0  0  0  0
   18.1729   43.6915   -8.4453 N   0  0  0  0  0  0  0  0  0  0  0  0
   17.2601   43.0883   -7.4625 C   0  0  0  0  0  0  0  0  0  0  0  0
   24.1669   47.4096   -5.5895 H   0  0  0  0  0  0  0  0  0  0  0  0
   24.0694   45.0617   -6.4076 H   0  0  0  0  0  0  0  0  0  0  0  0
   22.3650   42.5359   -6.4018 H   0  0  0  0  0  0  0  0  0  0  0  0
   19.7127   45.1254   -8.7803 H   0  0  0  0  0  0  0  0  0  0  0  0
   23.9162   41.7069   -9.7424 H   0  0  0  0  0  0  0  0  0  0  0  0
   21.6610   51.5977   -3.5827 H   0  0  0  0  0  0  0  0  0  0  0  0
   23.2279   51.7114   -1.6778 H   0  0  0  0  0  0  0  0  0  0  0  0
   25.2314   51.0265   -0.7160 H   0  0  0  0  0  0  0  0  0  0  0  0
   23.6623   49.5835    0.4878 H   0  0  0  0  0  0  0  0  0  0  0  0
   25.3037   49.3733    1.1081 H   0  0  0  0  0  0  0  0  0  0  0  0
   24.5915   48.1500    0.0488 H   0  0  0  0  0  0  0  0  0  0  0  0
   26.9961   50.1341   -2.1936 H   0  0  0  0  0  0  0  0  0  0  0  0
   26.7107   48.5045   -1.5823 H   0  0  0  0  0  0  0  0  0  0  0  0
   27.3013   49.7573   -0.5047 H   0  0  0  0  0  0  0  0  0  0  0  0
   24.9018   47.9068   -2.8399 H   0  0  0  0  0  0  0  0  0  0  0  0
   22.1617   46.7742   -6.7694 H   0  0  0  0  0  0  0  0  0  0  0  0
   21.1447   47.2078   -5.4101 H   0  0  0  0  0  0  0  0  0  0  0  0
   23.2447   48.7450   -8.1663 H   0  0  0  0  0  0  0  0  0  0  0  0
   23.9507   49.4816   -6.7369 H   0  0  0  0  0  0  0  0  0  0  0  0
   22.8426   50.4017   -7.7397 H   0  0  0  0  0  0  0  0  0  0  0  0
   20.6104   48.2615   -8.1944 H   0  0  0  0  0  0  0  0  0  0  0  0
   20.4272   49.9659   -7.7875 H   0  0  0  0  0  0  0  0  0  0  0  0
   19.6771   48.7474   -6.7742 H   0  0  0  0  0  0  0  0  0  0  0  0
   24.2205   45.9296   -3.9113 H   0  0  0  0  0  0  0  0  0  0  0  0
   22.5447   44.1781   -3.9451 H   0  0  0  0  0  0  0  0  0  0  0  0
   21.6580   45.1183   -5.0626 H   0  0  0  0  0  0  0  0  0  0  0  0
   24.8007   43.8375   -4.4929 H   0  0  0  0  0  0  0  0  0  0  0  0
   21.7160   44.6566   -8.3204 H   0  0  0  0  0  0  0  0  0  0  0  0
   19.2750   46.5346   -6.8732 H   0  0  0  0  0  0  0  0  0  0  0  0
   18.0633   45.4609   -6.2387 H   0  0  0  0  0  0  0  0  0  0  0  0
   17.7792   46.3039   -7.7635 H   0  0  0  0  0  0  0  0  0  0  0  0
   24.1187   43.8400   -8.5305 H   0  0  0  0  0  0  0  0  0  0  0  0
   24.4767   42.4067   -7.6395 H   0  0  0  0  0  0  0  0  0  0  0  0
   22.1130   42.2991  -11.1525 H   0  0  0  0  0  0  0  0  0  0  0  0
   22.7082   43.8075  -10.4919 H   0  0  0  0  0  0  0  0  0  0  0  0
   21.2240   43.0879   -9.8690 H   0  0  0  0  0  0  0  0  0  0  0  0
   22.9420   40.3495   -7.9065 H   0  0  0  0  0  0  0  0  0  0  0  0
   21.3995   41.1332   -8.1269 H   0  0  0  0  0  0  0  0  0  0  0  0
   22.8620   39.6334  -10.3380 H   0  0  0  0  0  0  0  0  0  0  0  0
   21.2542   40.2478  -10.4532 H   0  0  0  0  0  0  0  0  0  0  0  0
   21.5588   37.7500  -10.0400 H   0  0  0  0  0  0  0  0  0  0  0  0
   22.1050   38.1037   -8.4371 H   0  0  0  0  0  0  0  0  0  0  0  0
   19.8767   38.9820   -7.8316 H   0  0  0  0  0  0  0  0  0  0  0  0
   19.7505   37.3907   -8.4972 H   0  0  0  0  0  0  0  0  0  0  0  0
   19.4100   38.8666  -10.8118 H   0  0  0  0  0  0  0  0  0  0  0  0
   18.1291   38.1985   -9.8480 H   0  0  0  0  0  0  0  0  0  0  0  0
   19.2552   40.9224   -9.1494 H   0  0  0  0  0  0  0  0  0  0  0  0
   17.7554   40.1946   -8.6381 H   0  0  0  0  0  0  0  0  0  0  0  0
   18.4118   41.1360  -11.4737 H   0  0  0  0  0  0  0  0  0  0  0  0
   16.9373   40.3203  -11.0396 H   0  0  0  0  0  0  0  0  0  0  0  0
   16.2493   42.1617   -9.5603 H   0  0  0  0  0  0  0  0  0  0  0  0
   16.5834   42.7514  -11.1459 H   0  0  0  0  0  0  0  0  0  0  0  0
   17.4900   43.3600   -6.4401 H   0  0  0  0  0  0  0  0  0  0  0  0
   17.2973   42.0010   -7.4832 H   0  0  0  0  0  0  0  0  0  0  0  0
   16.2322   43.4051   -7.6418 H   0  0  0  0  0  0  0  0  0  0  0  0
  1  9  1  0  0  0  0
  1  2  2  0  0  0  0
  1 46  1  0  0  0  0
  2  3  1  0  0  0  0
  2 47  1  0  0  0  0
  3  4  1  0  0  0  0
  3  7  2  0  0  0  0
  4  5  1  0  0  0  0
  4  6  1  0  0  0  0
  4 48  1  0  0  0  0
  5 49  1  0  0  0  0
  5 50  1  0  0  0  0
  5 51  1  0  0  0  0
  6 52  1  0  0  0  0
  6 53  1  0  0  0  0
  6 54  1  0  0  0  0
  7  8  1  0  0  0  0
  7 55  1  0  0  0  0
  8  9  2  0  0  0  0
  8 10  1  0  0  0  0
  9 13  1  0  0  0  0
 10 41  1  6  0  0  0
 10 11  1  0  0  0  0
 10 16  1  0  0  0  0
 11 12  1  0  0  0  0
 11 56  1  0  0  0  0
 11 57  1  0  0  0  0
 12 13  1  0  0  0  0
 12 14  1  0  0  0  0
 12 15  1  0  0  0  0
 14 58  1  0  0  0  0
 14 59  1  0  0  0  0
 14 60  1  0  0  0  0
 15 61  1  0  0  0  0
 15 62  1  0  0  0  0
 15 63  1  0  0  0  0
 16 17  1  0  0  0  0
 16 64  1  0  0  0  0
 17 18  1  0  0  0  0
 17 65  1  0  0  0  0
 17 66  1  0  0  0  0
 18 42  1  6  0  0  0
 18 19  1  0  0  0  0
 18 20  1  0  0  0  0
 19 67  1  0  0  0  0
 20 43  1  1  0  0  0
 20 21  1  0  0  0  0
 20 26  1  0  0  0  0
 21 22  1  0  0  0  0
 21 68  1  0  0  0  0
 22 23  2  0  0  0  0
 22 24  1  0  0  0  0
 24 44  1  6  0  0  0
 24 39  1  0  0  0  0
 24 25  1  0  0  0  0
 25 69  1  0  0  0  0
 25 70  1  0  0  0  0
 25 71  1  0  0  0  0
 26 27  1  0  0  0  0
 26 72  1  0  0  0  0
 26 73  1  0  0  0  0
 27 45  1  6  0  0  0
 27 28  1  0  0  0  0
 27 29  1  0  0  0  0
 28 74  1  0  0  0  0
 28 75  1  0  0  0  0
 28 76  1  0  0  0  0
 29 30  1  0  0  0  0
 29 77  1  0  0  0  0
 29 78  1  0  0  0  0
 30 31  1  0  0  0  0
 30 79  1  0  0  0  0
 30 80  1  0  0  0  0
 31 32  1  0  0  0  0
 31 81  1  0  0  0  0
 31 82  1  0  0  0  0
 32 33  1  0  0  0  0
 32 83  1  0  0  0  0
 32 84  1  0  0  0  0
 33 34  1  0  0  0  0
 33 85  1  0  0  0  0
 33 86  1  0  0  0  0
 34 35  1  0  0  0  0
 34 87  1  0  0  0  0
 34 88  1  0  0  0  0
 35 36  1  0  0  0  0
 35 89  1  0  0  0  0
 35 90  1  0  0  0  0
 36 37  1  0  0  0  0
 36 91  1  0  0  0  0
 36 92  1  0  0  0  0
 37 38  2  0  0  0  0
 37 39  1  0  0  0  0
 39 40  1  0  0  0  0
 40 93  1  0  0  0  0
 40 94  1  0  0  0  0
 40 95  1  0  0  0  0
M  END
