REMARK energy -3.84124
 OpenBabel10031817233D
Structure written by MMmdl.
 99103  0  0  1  0  0  0  0  0999 V2000
   18.2758   38.4111   -6.4257 C   0  0  0  0  0  0  0  0  0  0  0  0
   18.3305   38.7362   -7.9274 C   0  0  2  0  0  0  0  0  0  0  0  0
   17.3853   37.8213   -8.7422 C   0  0  0  0  0  0  0  0  0  0  0  0
   15.9253   38.3123   -8.7262 C   0  0  0  0  0  0  0  0  0  0  0  0
   15.6829   39.5303   -9.6399 C   0  0  0  0  0  0  0  0  0  0  0  0
   14.4484   40.3440   -9.2209 C   0  0  0  0  0  0  0  0  0  0  0  0
   14.1874   41.5846  -10.0959 C   0  0  0  0  0  0  0  0  0  0  0  0
   15.2680   42.5876   -9.9812 N   0  0  0  0  0  0  0  0  0  0  0  0
   15.2744   43.4367   -8.9278 C   0  0  0  0  0  0  0  0  0  0  0  0
   14.2416   43.8672   -8.4135 O   0  0  0  0  0  0  0  0  0  0  0  0
   16.6139   43.8548   -8.3956 C   0  0  0  0  0  0  0  0  0  0  0  0
   16.8766   45.2123   -8.1241 C   0  0  0  0  0  0  0  0  0  0  0  0
   18.1260   45.6066   -7.6063 C   0  0  0  0  0  0  0  0  0  0  0  0
   19.1269   44.6389   -7.3673 C   0  0  0  0  0  0  0  0  0  0  0  0
   18.8834   43.2766   -7.6383 C   0  0  0  0  0  0  0  0  0  0  0  0
   17.6069   42.8916   -8.1060 C   0  0  0  0  0  0  0  0  0  0  0  0
   19.9582   42.2494   -7.3883 C   0  0  0  0  0  0  0  0  0  0  0  0
   20.8198   42.4258   -6.5303 O   0  0  0  0  0  0  0  0  0  0  0  0
   19.9314   41.1800   -8.2009 N   0  0  0  0  0  0  0  0  0  0  0  0
   20.6684   39.9258   -8.0121 C   0  0  1  0  0  0  0  0  0  0  0  0
   19.7749   38.7498   -8.4917 C   0  0  0  0  0  0  0  0  0  0  0  0
   22.0669   39.9143   -8.7180 C   0  0  1  0  0  0  0  0  0  0  0  0
   22.2835   40.9867   -9.8209 C   0  0  0  0  0  0  0  0  0  0  0  0
   23.6303   40.9497  -10.4358 N   0  3  0  0  0  0  0  0  0  0  0  0
   24.6520   41.7404   -9.7155 C   0  0  0  0  0  0  0  0  0  0  0  0
   25.6417   42.3449  -10.6873 C   0  0  0  0  0  0  0  0  0  0  0  0
   25.2603   43.4680  -11.4522 C   0  0  0  0  0  0  0  0  0  0  0  0
   26.1726   44.0486  -12.3507 C   0  0  0  0  0  0  0  0  0  0  0  0
   27.4689   43.5180  -12.4781 C   0  0  0  0  0  0  0  0  0  0  0  0
   27.8601   42.3966  -11.7192 C   0  0  0  0  0  0  0  0  0  0  0  0
   26.9388   41.8091  -10.8243 C   0  0  0  0  0  0  0  0  0  0  0  0
   29.2671   41.8300  -11.8530 C   0  0  0  0  0  0  0  0  0  0  0  0
   30.3251   42.8228  -11.3550 C   0  0  0  0  0  0  0  0  0  0  0  0
   29.5543   41.3617  -13.2899 C   0  0  0  0  0  0  0  0  0  0  0  0
   23.0687   40.0101   -7.7231 O   0  0  0  0  0  0  0  0  0  0  0  0
   18.3671   47.0123   -7.3119 C   0  0  0  0  0  0  0  0  0  0  0  0
   17.6726   48.0718   -7.7246 N   0  0  0  0  0  0  0  0  0  0  0  0
   18.3327   49.1666   -7.1891 C   0  0  0  0  0  0  0  0  0  0  0  0
   19.3834   48.7051   -6.4402 C   0  0  0  0  0  0  0  0  0  0  0  0
   19.4185   47.3418   -6.5102 O   0  0  0  0  0  0  0  0  0  0  0  0
   15.9520   42.9529  -11.2466 C   0  0  2  0  0  0  0  0  0  0  0  0
   17.4804   42.7260  -11.2520 C   0  0  0  0  0  0  0  0  0  0  0  0
   15.4966   44.3180  -11.7890 C   0  0  0  0  0  0  0  0  0  0  0  0
   16.4054   45.3718  -12.0493 C   0  0  0  0  0  0  0  0  0  0  0  0
   15.9500   46.5984  -12.5690 C   0  0  0  0  0  0  0  0  0  0  0  0
   14.5835   46.7895  -12.8402 C   0  0  0  0  0  0  0  0  0  0  0  0
   13.6644   45.7586  -12.5675 C   0  0  0  0  0  0  0  0  0  0  0  0
   14.1202   44.5355  -12.0402 C   0  0  0  0  0  0  0  0  0  0  0  0
   17.9297   39.7380   -8.0120 H   0  0  0  0  0  0  0  0  0  0  0  0
   20.8158   39.7838   -6.9385 H   0  0  0  0  0  0  0  0  0  0  0  0
   22.2175   38.9318   -9.1713 H   0  0  0  0  0  0  0  0  0  0  0  0
   15.6218   42.2466  -12.0010 H   0  0  0  0  0  0  0  0  0  0  0  0
   18.5602   37.3802   -6.2206 H   0  0  0  0  0  0  0  0  0  0  0  0
   17.2668   38.5493   -6.0388 H   0  0  0  0  0  0  0  0  0  0  0  0
   18.9270   39.0644   -5.8455 H   0  0  0  0  0  0  0  0  0  0  0  0
   17.7079   37.7522   -9.7811 H   0  0  0  0  0  0  0  0  0  0  0  0
   17.4344   36.8065   -8.3447 H   0  0  0  0  0  0  0  0  0  0  0  0
   15.2603   37.5061   -9.0340 H   0  0  0  0  0  0  0  0  0  0  0  0
   15.6402   38.5437   -7.6986 H   0  0  0  0  0  0  0  0  0  0  0  0
   16.5489   40.1865   -9.6294 H   0  0  0  0  0  0  0  0  0  0  0  0
   15.5812   39.1981  -10.6734 H   0  0  0  0  0  0  0  0  0  0  0  0
   13.5711   39.6971   -9.2541 H   0  0  0  0  0  0  0  0  0  0  0  0
   14.5465   40.6473   -8.1780 H   0  0  0  0  0  0  0  0  0  0  0  0
   14.0228   41.2510  -11.1208 H   0  0  0  0  0  0  0  0  0  0  0  0
   13.2330   42.0254   -9.8012 H   0  0  0  0  0  0  0  0  0  0  0  0
   16.1090   45.9508   -8.3120 H   0  0  0  0  0  0  0  0  0  0  0  0
   20.0876   44.9431   -6.9803 H   0  0  0  0  0  0  0  0  0  0  0  0
   17.3769   41.8500   -8.2675 H   0  0  0  0  0  0  0  0  0  0  0  0
   19.1945   41.1619   -8.8897 H   0  0  0  0  0  0  0  0  0  0  0  0
   20.2577   37.8008   -8.2539 H   0  0  0  0  0  0  0  0  0  0  0  0
   19.7259   38.7933   -9.5810 H   0  0  0  0  0  0  0  0  0  0  0  0
   21.5514   40.8121  -10.6132 H   0  0  0  0  0  0  0  0  0  0  0  0
   22.0856   41.9933   -9.4442 H   0  0  0  0  0  0  0  0  0  0  0  0
   23.9529   39.9928  -10.4956 H   0  0  0  0  0  0  0  0  0  0  0  0
   24.1996   42.5526   -9.1439 H   0  0  0  0  0  0  0  0  0  0  0  0
   25.1658   41.1026   -9.0002 H   0  0  0  0  0  0  0  0  0  0  0  0
   24.2675   43.8859  -11.3543 H   0  0  0  0  0  0  0  0  0  0  0  0
   25.8780   44.9041  -12.9389 H   0  0  0  0  0  0  0  0  0  0  0  0
   28.1602   43.9816  -13.1612 H   0  0  0  0  0  0  0  0  0  0  0  0
   27.2364   40.9509  -10.2334 H   0  0  0  0  0  0  0  0  0  0  0  0
   29.3340   40.9496  -11.2142 H   0  0  0  0  0  0  0  0  0  0  0  0
   30.1362   43.1110  -10.3216 H   0  0  0  0  0  0  0  0  0  0  0  0
   30.3365   43.7318  -11.9558 H   0  0  0  0  0  0  0  0  0  0  0  0
   31.3243   42.3884  -11.3981 H   0  0  0  0  0  0  0  0  0  0  0  0
   28.8612   40.5760  -13.5930 H   0  0  0  0  0  0  0  0  0  0  0  0
   30.5583   40.9547  -13.3859 H   0  0  0  0  0  0  0  0  0  0  0  0
   29.4698   42.1796  -14.0104 H   0  0  0  0  0  0  0  0  0  0  0  0
   23.7819   39.4250   -7.9494 H   0  0  0  0  0  0  0  0  0  0  0  0
   17.9983   50.1774   -7.3664 H   0  0  0  0  0  0  0  0  0  0  0  0
   20.1465   49.1809   -5.8395 H   0  0  0  0  0  0  0  0  0  0  0  0
   17.8760   42.7929  -12.2659 H   0  0  0  0  0  0  0  0  0  0  0  0
   17.7351   41.7339  -10.8791 H   0  0  0  0  0  0  0  0  0  0  0  0
   18.0216   43.4583  -10.6542 H   0  0  0  0  0  0  0  0  0  0  0  0
   17.4627   45.2584  -11.8639 H   0  0  0  0  0  0  0  0  0  0  0  0
   16.6554   47.3928  -12.7709 H   0  0  0  0  0  0  0  0  0  0  0  0
   14.2423   47.7241  -13.2612 H   0  0  0  0  0  0  0  0  0  0  0  0
   12.6143   45.9002  -12.7827 H   0  0  0  0  0  0  0  0  0  0  0  0
   13.4049   43.7455  -11.8543 H   0  0  0  0  0  0  0  0  0  0  0  0
   23.5776   41.3116  -11.3801 H   0  0  0  0  0  0  0  0  0  0  0  0
  1  2  1  0  0  0  0
  1 53  1  0  0  0  0
  1 54  1  0  0  0  0
  1 55  1  0  0  0  0
  2 49  1  6  0  0  0
  2 21  1  0  0  0  0
  2  3  1  0  0  0  0
  3  4  1  0  0  0  0
  3 56  1  0  0  0  0
  3 57  1  0  0  0  0
  4  5  1  0  0  0  0
  4 58  1  0  0  0  0
  4 59  1  0  0  0  0
  5  6  1  0  0  0  0
  5 60  1  0  0  0  0
  5 61  1  0  0  0  0
  6  7  1  0  0  0  0
  6 62  1  0  0  0  0
  6 63  1  0  0  0  0
  7  8  1  0  0  0  0
  7 64  1  0  0  0  0
  7 65  1  0  0  0  0
  8  9  1  0  0  0  0
  8 41  1  0  0  0  0
  9 10  2  0  0  0  0
  9 11  1  0  0  0  0
 11 16  1  0  0  0  0
 11 12  2  0  0  0  0
 12 13  1  0  0  0  0
 12 66  1  0  0  0  0
 13 14  2  0  0  0  0
 13 36  1  0  0  0  0
 14 15  1  0  0  0  0
 14 67  1  0  0  0  0
 15 16  2  0  0  0  0
 15 17  1  0  0  0  0
 16 68  1  0  0  0  0
 17 18  2  0  0  0  0
 17 19  1  0  0  0  0
 19 20  1  0  0  0  0
 19 69  1  0  0  0  0
 20 50  1  1  0  0  0
 20 21  1  0  0  0  0
 20 22  1  0  0  0  0
 21 70  1  0  0  0  0
 21 71  1  0  0  0  0
 22 51  1  6  0  0  0
 22 23  1  0  0  0  0
 22 35  1  0  0  0  0
 23 24  1  0  0  0  0
 23 72  1  0  0  0  0
 23 73  1  0  0  0  0
 24 25  1  0  0  0  0
 24 74  1  0  0  0  0
 24 99  1  0  0  0  0
 25 26  1  0  0  0  0
 25 75  1  0  0  0  0
 25 76  1  0  0  0  0
 26 31  1  0  0  0  0
 26 27  2  0  0  0  0
 27 28  1  0  0  0  0
 27 77  1  0  0  0  0
 28 29  2  0  0  0  0
 28 78  1  0  0  0  0
 29 30  1  0  0  0  0
 29 79  1  0  0  0  0
 30 31  2  0  0  0  0
 30 32  1  0  0  0  0
 31 80  1  0  0  0  0
 32 33  1  0  0  0  0
 32 34  1  0  0  0  0
 32 81  1  0  0  0  0
 33 82  1  0  0  0  0
 33 83  1  0  0  0  0
 33 84  1  0  0  0  0
 34 85  1  0  0  0  0
 34 86  1  0  0  0  0
 34 87  1  0  0  0  0
 35 88  1  0  0  0  0
 36 40  1  0  0  0  0
 36 37  2  0  0  0  0
 37 38  1  0  0  0  0
 38 39  2  0  0  0  0
 38 89  1  0  0  0  0
 39 40  1  0  0  0  0
 39 90  1  0  0  0  0
 41 52  1  6  0  0  0
 41 42  1  0  0  0  0
 41 43  1  0  0  0  0
 42 91  1  0  0  0  0
 42 92  1  0  0  0  0
 42 93  1  0  0  0  0
 43 48  1  0  0  0  0
 43 44  2  0  0  0  0
 44 45  1  0  0  0  0
 44 94  1  0  0  0  0
 45 46  2  0  0  0  0
 45 95  1  0  0  0  0
 46 47  1  0  0  0  0
 46 96  1  0  0  0  0
 47 48  2  0  0  0  0
 47 97  1  0  0  0  0
 48 98  1  0  0  0  0
M  CHG  1  24   1
M  END
