REMARK energy -5.79178
 OpenBabel10031817233D
Structure written by MMmdl.
 86 87  0  0  1  0  0  0  0  0999 V2000
   27.0584   43.2825   -9.8404 C   0  0  0  0  0  0  0  0  0  0  0  0
   28.1609   44.1269  -10.0715 C   0  0  0  0  0  0  0  0  0  0  0  0
   29.1244   43.7770  -11.0370 C   0  0  0  0  0  0  0  0  0  0  0  0
   28.9888   42.5837  -11.7790 C   0  0  0  0  0  0  0  0  0  0  0  0
   30.0576   42.1593  -12.7746 C   0  0  0  0  0  0  0  0  0  0  0  0
   30.3312   43.2359  -13.8393 C   0  0  0  0  0  0  0  0  0  0  0  0
   31.3365   41.7535  -12.0339 C   0  0  0  0  0  0  0  0  0  0  0  0
   27.8739   41.7494  -11.5535 C   0  0  0  0  0  0  0  0  0  0  0  0
   26.9172   42.0871  -10.5786 C   0  0  0  0  0  0  0  0  0  0  0  0
   25.7481   41.1634  -10.3074 C   0  0  0  0  0  0  0  0  0  0  0  0
   24.5089   41.7519  -10.8401 N   0  3  0  0  0  0  0  0  0  0  0  0
   23.2641   41.2764  -10.2053 C   0  0  0  0  0  0  0  0  0  0  0  0
   22.0397   42.0943  -10.6850 C   0  0  0  0  0  0  0  0  0  0  0  0
   21.6634   41.6951  -11.9893 O   0  0  0  0  0  0  0  0  0  0  0  0
   22.4191   43.4563  -10.6442 O   0  0  0  0  0  0  0  0  0  0  0  0
   20.8256   41.9613   -9.7230 C   0  0  1  0  0  0  0  0  0  0  0  0
   19.6763   42.6924  -10.2528 N   0  0  0  0  0  0  0  0  0  0  0  0
   18.9010   43.5558   -9.5781 C   0  0  0  0  0  0  0  0  0  0  0  0
   19.1727   43.9503   -8.4427 O   0  0  0  0  0  0  0  0  0  0  0  0
   17.6334   44.0307  -10.3088 C   0  0  2  0  0  0  0  0  0  0  0  0
   17.5150   45.5690  -10.2928 C   0  0  0  0  0  0  0  0  0  0  0  0
   20.4053   40.5209   -9.3263 C   0  0  0  0  0  0  0  0  0  0  0  0
   20.0299   39.5217  -10.4528 C   0  0  2  0  0  0  0  0  0  0  0  0
   18.9213   40.0118  -11.4000 C   0  0  0  0  0  0  0  0  0  0  0  0
   19.7286   38.1103   -9.8894 C   0  0  0  0  0  0  0  0  0  0  0  0
   18.4793   37.9575   -8.9910 C   0  0  0  0  0  0  0  0  0  0  0  0
   17.1666   37.7969   -9.7702 C   0  0  0  0  0  0  0  0  0  0  0  0
   15.9285   37.5386   -8.9093 C   0  0  0  0  0  0  0  0  0  0  0  0
   15.6033   38.6157   -7.8557 C   0  0  0  0  0  0  0  0  0  0  0  0
   15.5652   40.0680   -8.3592 C   0  0  0  0  0  0  0  0  0  0  0  0
   14.6074   40.3228   -9.5385 C   0  0  0  0  0  0  0  0  0  0  0  0
   14.4462   41.8171   -9.9006 C   0  0  0  0  0  0  0  0  0  0  0  0
   15.7254   42.4665  -10.4718 C   0  0  0  0  0  0  0  0  0  0  0  0
   16.0709   42.1290  -11.6073 O   0  0  0  0  0  0  0  0  0  0  0  0
   16.4130   43.3948   -9.7535 N   0  0  0  0  0  0  0  0  0  0  0  0
   16.0469   43.7258   -8.3631 C   0  0  0  0  0  0  0  0  0  0  0  0
   21.1214   42.4270   -8.7795 H   0  0  0  0  0  0  0  0  0  0  0  0
   17.7625   43.7766  -11.3620 H   0  0  0  0  0  0  0  0  0  0  0  0
   20.9174   39.3877  -11.0693 H   0  0  0  0  0  0  0  0  0  0  0  0
   26.3301   43.5544   -9.0902 H   0  0  0  0  0  0  0  0  0  0  0  0
   28.2768   45.0385   -9.5038 H   0  0  0  0  0  0  0  0  0  0  0  0
   29.9774   44.4205  -11.1889 H   0  0  0  0  0  0  0  0  0  0  0  0
   29.7006   41.2750  -13.3044 H   0  0  0  0  0  0  0  0  0  0  0  0
   29.4335   43.4718  -14.4049 H   0  0  0  0  0  0  0  0  0  0  0  0
   31.0836   42.8918  -14.5433 H   0  0  0  0  0  0  0  0  0  0  0  0
   30.6985   44.1601  -13.3975 H   0  0  0  0  0  0  0  0  0  0  0  0
   31.1265   40.9558  -11.3186 H   0  0  0  0  0  0  0  0  0  0  0  0
   31.7682   42.5872  -11.4775 H   0  0  0  0  0  0  0  0  0  0  0  0
   32.0896   41.3944  -12.7338 H   0  0  0  0  0  0  0  0  0  0  0  0
   27.7820   40.8209  -12.1022 H   0  0  0  0  0  0  0  0  0  0  0  0
   25.6607   40.9997   -9.2401 H   0  0  0  0  0  0  0  0  0  0  0  0
   25.9163   40.1858  -10.7578 H   0  0  0  0  0  0  0  0  0  0  0  0
   24.4618   41.5455  -11.8319 H   0  0  0  0  0  0  0  0  0  0  0  0
   23.3733   41.4004   -9.1292 H   0  0  0  0  0  0  0  0  0  0  0  0
   23.1313   40.2068  -10.3828 H   0  0  0  0  0  0  0  0  0  0  0  0
   22.4388   41.4714  -12.4908 H   0  0  0  0  0  0  0  0  0  0  0  0
   21.7214   43.9442  -10.2130 H   0  0  0  0  0  0  0  0  0  0  0  0
   19.4173   42.4567  -11.2024 H   0  0  0  0  0  0  0  0  0  0  0  0
   18.3856   46.0208  -10.7717 H   0  0  0  0  0  0  0  0  0  0  0  0
   17.4471   45.9852   -9.2850 H   0  0  0  0  0  0  0  0  0  0  0  0
   16.6355   45.8983  -10.8469 H   0  0  0  0  0  0  0  0  0  0  0  0
   21.2035   40.0722   -8.7340 H   0  0  0  0  0  0  0  0  0  0  0  0
   19.5622   40.6113   -8.6391 H   0  0  0  0  0  0  0  0  0  0  0  0
   18.5583   39.2052  -12.0342 H   0  0  0  0  0  0  0  0  0  0  0  0
   19.2690   40.7969  -12.0684 H   0  0  0  0  0  0  0  0  0  0  0  0
   18.0752   40.4164  -10.8398 H   0  0  0  0  0  0  0  0  0  0  0  0
   19.6558   37.3989  -10.7139 H   0  0  0  0  0  0  0  0  0  0  0  0
   20.6006   37.7872   -9.3197 H   0  0  0  0  0  0  0  0  0  0  0  0
   18.4019   38.7756   -8.2789 H   0  0  0  0  0  0  0  0  0  0  0  0
   18.6083   37.0629   -8.3822 H   0  0  0  0  0  0  0  0  0  0  0  0
   16.9658   38.6555  -10.4006 H   0  0  0  0  0  0  0  0  0  0  0  0
   17.2839   36.9520  -10.4394 H   0  0  0  0  0  0  0  0  0  0  0  0
   16.0598   36.5748   -8.4195 H   0  0  0  0  0  0  0  0  0  0  0  0
   15.0669   37.4261   -9.5701 H   0  0  0  0  0  0  0  0  0  0  0  0
   14.6472   38.3675   -7.3914 H   0  0  0  0  0  0  0  0  0  0  0  0
   16.3294   38.5564   -7.0419 H   0  0  0  0  0  0  0  0  0  0  0  0
   16.5758   40.3883   -8.6211 H   0  0  0  0  0  0  0  0  0  0  0  0
   15.2650   40.6923   -7.5150 H   0  0  0  0  0  0  0  0  0  0  0  0
   14.9320   39.7706  -10.4214 H   0  0  0  0  0  0  0  0  0  0  0  0
   13.6278   39.9139   -9.2876 H   0  0  0  0  0  0  0  0  0  0  0  0
   14.0304   42.3590   -9.0527 H   0  0  0  0  0  0  0  0  0  0  0  0
   13.6829   41.8914  -10.6764 H   0  0  0  0  0  0  0  0  0  0  0  0
   16.7293   44.4271   -7.8855 H   0  0  0  0  0  0  0  0  0  0  0  0
   16.0518   42.8315   -7.7334 H   0  0  0  0  0  0  0  0  0  0  0  0
   15.0538   44.1786   -8.3141 H   0  0  0  0  0  0  0  0  0  0  0  0
   24.5292   42.7535  -10.7155 H   0  0  0  0  0  0  0  0  0  0  0  0
  1  9  1  0  0  0  0
  1  2  2  0  0  0  0
  1 40  1  0  0  0  0
  2  3  1  0  0  0  0
  2 41  1  0  0  0  0
  3  4  2  0  0  0  0
  3 42  1  0  0  0  0
  4  5  1  0  0  0  0
  4  8  1  0  0  0  0
  5  6  1  0  0  0  0
  5  7  1  0  0  0  0
  5 43  1  0  0  0  0
  6 44  1  0  0  0  0
  6 45  1  0  0  0  0
  6 46  1  0  0  0  0
  7 47  1  0  0  0  0
  7 48  1  0  0  0  0
  7 49  1  0  0  0  0
  8  9  2  0  0  0  0
  8 50  1  0  0  0  0
  9 10  1  0  0  0  0
 10 11  1  0  0  0  0
 10 51  1  0  0  0  0
 10 52  1  0  0  0  0
 11 12  1  0  0  0  0
 11 53  1  0  0  0  0
 11 86  1  0  0  0  0
 12 13  1  0  0  0  0
 12 54  1  0  0  0  0
 12 55  1  0  0  0  0
 13 14  1  0  0  0  0
 13 15  1  0  0  0  0
 13 16  1  0  0  0  0
 14 56  1  0  0  0  0
 15 57  1  0  0  0  0
 16 37  1  1  0  0  0
 16 17  1  0  0  0  0
 16 22  1  0  0  0  0
 17 18  1  0  0  0  0
 17 58  1  0  0  0  0
 18 19  2  0  0  0  0
 18 20  1  0  0  0  0
 20 38  1  6  0  0  0
 20 35  1  0  0  0  0
 20 21  1  0  0  0  0
 21 59  1  0  0  0  0
 21 60  1  0  0  0  0
 21 61  1  0  0  0  0
 22 23  1  0  0  0  0
 22 62  1  0  0  0  0
 22 63  1  0  0  0  0
 23 39  1  6  0  0  0
 23 24  1  0  0  0  0
 23 25  1  0  0  0  0
 24 64  1  0  0  0  0
 24 65  1  0  0  0  0
 24 66  1  0  0  0  0
 25 26  1  0  0  0  0
 25 67  1  0  0  0  0
 25 68  1  0  0  0  0
 26 27  1  0  0  0  0
 26 69  1  0  0  0  0
 26 70  1  0  0  0  0
 27 28  1  0  0  0  0
 27 71  1  0  0  0  0
 27 72  1  0  0  0  0
 28 29  1  0  0  0  0
 28 73  1  0  0  0  0
 28 74  1  0  0  0  0
 29 30  1  0  0  0  0
 29 75  1  0  0  0  0
 29 76  1  0  0  0  0
 30 31  1  0  0  0  0
 30 77  1  0  0  0  0
 30 78  1  0  0  0  0
 31 32  1  0  0  0  0
 31 79  1  0  0  0  0
 31 80  1  0  0  0  0
 32 33  1  0  0  0  0
 32 81  1  0  0  0  0
 32 82  1  0  0  0  0
 33 34  2  0  0  0  0
 33 35  1  0  0  0  0
 35 36  1  0  0  0  0
 36 83  1  0  0  0  0
 36 84  1  0  0  0  0
 36 85  1  0  0  0  0
M  CHG  1  11   1
M  END
