REMARK energy -4.04894
 OpenBabel10031817233D
Structure written by MMmdl.
 99103  0  0  1  0  0  0  0  0999 V2000
   17.8982   38.1534   -7.0044 C   0  0  0  0  0  0  0  0  0  0  0  0
   18.0493   38.6072   -8.4675 C   0  0  2  0  0  0  0  0  0  0  0  0
   17.0656   37.8731   -9.4073 C   0  0  0  0  0  0  0  0  0  0  0  0
   15.6375   38.4510   -9.3474 C   0  0  0  0  0  0  0  0  0  0  0  0
   15.4916   39.8044  -10.0750 C   0  0  0  0  0  0  0  0  0  0  0  0
   14.3406   40.6540   -9.5133 C   0  0  0  0  0  0  0  0  0  0  0  0
   14.1690   42.0289  -10.1847 C   0  0  0  0  0  0  0  0  0  0  0  0
   15.3528   42.9074  -10.0298 N   0  0  0  0  0  0  0  0  0  0  0  0
   15.4469   43.7084   -8.9379 C   0  0  0  0  0  0  0  0  0  0  0  0
   14.4692   44.2675   -8.4391 O   0  0  0  0  0  0  0  0  0  0  0  0
   16.8144   43.9038   -8.3353 C   0  0  0  0  0  0  0  0  0  0  0  0
   17.2280   45.1886   -7.9195 C   0  0  0  0  0  0  0  0  0  0  0  0
   18.5046   45.3756   -7.3468 C   0  0  0  0  0  0  0  0  0  0  0  0
   19.3771   44.2785   -7.2015 C   0  0  0  0  0  0  0  0  0  0  0  0
   18.9790   42.9883   -7.6055 C   0  0  0  0  0  0  0  0  0  0  0  0
   17.6815   42.8050   -8.1355 C   0  0  0  0  0  0  0  0  0  0  0  0
   19.9242   41.8344   -7.4239 C   0  0  0  0  0  0  0  0  0  0  0  0
   20.7371   41.8112   -6.5002 O   0  0  0  0  0  0  0  0  0  0  0  0
   19.8473   40.8854   -8.3663 N   0  0  0  0  0  0  0  0  0  0  0  0
   20.4752   39.5638   -8.3123 C   0  0  1  0  0  0  0  0  0  0  0  0
   19.5162   38.5433   -8.9751 C   0  0  0  0  0  0  0  0  0  0  0  0
   21.9005   39.5440   -8.9506 C   0  0  1  0  0  0  0  0  0  0  0  0
   22.1948   40.6515   -9.9975 C   0  0  0  0  0  0  0  0  0  0  0  0
   23.6074   40.6675  -10.4398 N   0  3  0  0  0  0  0  0  0  0  0  0
   24.4947   41.5881   -9.7022 C   0  0  0  0  0  0  0  0  0  0  0  0
   25.4886   42.2354  -10.6493 C   0  0  0  0  0  0  0  0  0  0  0  0
   25.0818   43.3238  -11.4481 C   0  0  0  0  0  0  0  0  0  0  0  0
   25.9920   43.9236  -12.3381 C   0  0  0  0  0  0  0  0  0  0  0  0
   27.3084   43.4336  -12.4352 C   0  0  0  0  0  0  0  0  0  0  0  0
   27.7264   42.3444  -11.6401 C   0  0  0  0  0  0  0  0  0  0  0  0
   26.8085   41.7502  -10.7474 C   0  0  0  0  0  0  0  0  0  0  0  0
   29.1550   41.8206  -11.7377 C   0  0  0  0  0  0  0  0  0  0  0  0
   30.1698   42.8537  -11.2233 C   0  0  0  0  0  0  0  0  0  0  0  0
   29.4960   41.3512  -13.1607 C   0  0  0  0  0  0  0  0  0  0  0  0
   22.8598   39.5792   -7.9122 O   0  0  0  0  0  0  0  0  0  0  0  0
   18.9467   46.6965   -6.9285 C   0  0  0  0  0  0  0  0  0  0  0  0
   18.2115   47.7742   -6.6494 N   0  0  0  0  0  0  0  0  0  0  0  0
   19.1370   48.7527   -6.3280 C   0  0  0  0  0  0  0  0  0  0  0  0
   20.3951   48.2157   -6.4158 C   0  0  0  0  0  0  0  0  0  0  0  0
   20.2872   46.9088   -6.7945 O   0  0  0  0  0  0  0  0  0  0  0  0
   16.0166   43.2882  -11.3033 C   0  0  2  0  0  0  0  0  0  0  0  0
   17.5567   43.1623  -11.2899 C   0  0  0  0  0  0  0  0  0  0  0  0
   15.4815   44.6114  -11.8802 C   0  0  0  0  0  0  0  0  0  0  0  0
   16.3385   45.6919  -12.2066 C   0  0  0  0  0  0  0  0  0  0  0  0
   15.8210   46.8720  -12.7743 C   0  0  0  0  0  0  0  0  0  0  0  0
   14.4432   46.9902  -13.0320 C   0  0  0  0  0  0  0  0  0  0  0  0
   13.5765   45.9349  -12.6968 C   0  0  0  0  0  0  0  0  0  0  0  0
   14.0941   44.7598  -12.1200 C   0  0  0  0  0  0  0  0  0  0  0  0
   17.7386   39.6438   -8.4727 H   0  0  0  0  0  0  0  0  0  0  0  0
   20.5625   39.2677   -7.2650 H   0  0  0  0  0  0  0  0  0  0  0  0
   22.0481   38.5759   -9.4320 H   0  0  0  0  0  0  0  0  0  0  0  0
   15.7370   42.5374  -12.0396 H   0  0  0  0  0  0  0  0  0  0  0  0
   18.0601   37.0809   -6.8954 H   0  0  0  0  0  0  0  0  0  0  0  0
   16.8932   38.3645   -6.6370 H   0  0  0  0  0  0  0  0  0  0  0  0
   18.5823   38.6683   -6.3328 H   0  0  0  0  0  0  0  0  0  0  0  0
   17.4102   37.9259  -10.4397 H   0  0  0  0  0  0  0  0  0  0  0  0
   17.0484   36.8119   -9.1561 H   0  0  0  0  0  0  0  0  0  0  0  0
   14.9371   37.7386   -9.7831 H   0  0  0  0  0  0  0  0  0  0  0  0
   15.3337   38.5459   -8.3033 H   0  0  0  0  0  0  0  0  0  0  0  0
   16.4128   40.3776  -10.0034 H   0  0  0  0  0  0  0  0  0  0  0  0
   15.3411   39.6281  -11.1396 H   0  0  0  0  0  0  0  0  0  0  0  0
   13.4100   40.0953   -9.6289 H   0  0  0  0  0  0  0  0  0  0  0  0
   14.4646   40.7946   -8.4381 H   0  0  0  0  0  0  0  0  0  0  0  0
   13.9158   41.8558  -11.2296 H   0  0  0  0  0  0  0  0  0  0  0  0
   13.2802   42.5062   -9.7667 H   0  0  0  0  0  0  0  0  0  0  0  0
   16.5664   46.0327   -8.0433 H   0  0  0  0  0  0  0  0  0  0  0  0
   20.3594   44.4202   -6.7727 H   0  0  0  0  0  0  0  0  0  0  0  0
   17.3383   41.8177   -8.4017 H   0  0  0  0  0  0  0  0  0  0  0  0
   19.1614   41.0261   -9.0934 H   0  0  0  0  0  0  0  0  0  0  0  0
   19.9020   37.5318   -8.8451 H   0  0  0  0  0  0  0  0  0  0  0  0
   19.5219   38.7277  -10.0507 H   0  0  0  0  0  0  0  0  0  0  0  0
   21.5697   40.4720  -10.8742 H   0  0  0  0  0  0  0  0  0  0  0  0
   21.9208   41.6468   -9.6414 H   0  0  0  0  0  0  0  0  0  0  0  0
   23.9935   39.7300  -10.3785 H   0  0  0  0  0  0  0  0  0  0  0  0
   23.9338   42.3834   -9.2081 H   0  0  0  0  0  0  0  0  0  0  0  0
   25.0109   41.0404   -8.9124 H   0  0  0  0  0  0  0  0  0  0  0  0
   24.0714   43.7020  -11.3838 H   0  0  0  0  0  0  0  0  0  0  0  0
   25.6797   44.7566  -12.9500 H   0  0  0  0  0  0  0  0  0  0  0  0
   27.9981   43.9046  -13.1192 H   0  0  0  0  0  0  0  0  0  0  0  0
   27.1214   40.9218  -10.1315 H   0  0  0  0  0  0  0  0  0  0  0  0
   29.2384   40.9506  -11.0870 H   0  0  0  0  0  0  0  0  0  0  0  0
   29.9519   43.1387  -10.1939 H   0  0  0  0  0  0  0  0  0  0  0  0
   30.1600   43.7591  -11.8300 H   0  0  0  0  0  0  0  0  0  0  0  0
   31.1820   42.4519  -11.2453 H   0  0  0  0  0  0  0  0  0  0  0  0
   28.8602   40.5207  -13.4614 H   0  0  0  0  0  0  0  0  0  0  0  0
   30.5246   41.0054  -13.2336 H   0  0  0  0  0  0  0  0  0  0  0  0
   29.3774   42.1484  -13.8946 H   0  0  0  0  0  0  0  0  0  0  0  0
   23.5464   38.9611   -8.1176 H   0  0  0  0  0  0  0  0  0  0  0  0
   18.8347   49.7504   -6.0407 H   0  0  0  0  0  0  0  0  0  0  0  0
   21.3921   48.5970   -6.2483 H   0  0  0  0  0  0  0  0  0  0  0  0
   17.9615   43.2457  -12.2982 H   0  0  0  0  0  0  0  0  0  0  0  0
   17.8697   42.1913  -10.9058 H   0  0  0  0  0  0  0  0  0  0  0  0
   18.0429   43.9294  -10.6891 H   0  0  0  0  0  0  0  0  0  0  0  0
   17.4034   45.6350  -12.0381 H   0  0  0  0  0  0  0  0  0  0  0  0
   16.4872   47.6840  -13.0286 H   0  0  0  0  0  0  0  0  0  0  0  0
   14.0529   47.8864  -13.4916 H   0  0  0  0  0  0  0  0  0  0  0  0
   12.5161   46.0186  -12.8971 H   0  0  0  0  0  0  0  0  0  0  0  0
   13.4086   43.9573  -11.8907 H   0  0  0  0  0  0  0  0  0  0  0  0
   23.6451   40.9474  -11.4165 H   0  0  0  0  0  0  0  0  0  0  0  0
  1  2  1  0  0  0  0
  1 53  1  0  0  0  0
  1 54  1  0  0  0  0
  1 55  1  0  0  0  0
  2 49  1  6  0  0  0
  2 21  1  0  0  0  0
  2  3  1  0  0  0  0
  3  4  1  0  0  0  0
  3 56  1  0  0  0  0
  3 57  1  0  0  0  0
  4  5  1  0  0  0  0
  4 58  1  0  0  0  0
  4 59  1  0  0  0  0
  5  6  1  0  0  0  0
  5 60  1  0  0  0  0
  5 61  1  0  0  0  0
  6  7  1  0  0  0  0
  6 62  1  0  0  0  0
  6 63  1  0  0  0  0
  7  8  1  0  0  0  0
  7 64  1  0  0  0  0
  7 65  1  0  0  0  0
  8  9  1  0  0  0  0
  8 41  1  0  0  0  0
  9 10  2  0  0  0  0
  9 11  1  0  0  0  0
 11 16  1  0  0  0  0
 11 12  2  0  0  0  0
 12 13  1  0  0  0  0
 12 66  1  0  0  0  0
 13 14  2  0  0  0  0
 13 36  1  0  0  0  0
 14 15  1  0  0  0  0
 14 67  1  0  0  0  0
 15 16  2  0  0  0  0
 15 17  1  0  0  0  0
 16 68  1  0  0  0  0
 17 18  2  0  0  0  0
 17 19  1  0  0  0  0
 19 20  1  0  0  0  0
 19 69  1  0  0  0  0
 20 50  1  1  0  0  0
 20 21  1  0  0  0  0
 20 22  1  0  0  0  0
 21 70  1  0  0  0  0
 21 71  1  0  0  0  0
 22 51  1  6  0  0  0
 22 23  1  0  0  0  0
 22 35  1  0  0  0  0
 23 24  1  0  0  0  0
 23 72  1  0  0  0  0
 23 73  1  0  0  0  0
 24 25  1  0  0  0  0
 24 74  1  0  0  0  0
 24 99  1  0  0  0  0
 25 26  1  0  0  0  0
 25 75  1  0  0  0  0
 25 76  1  0  0  0  0
 26 31  1  0  0  0  0
 26 27  2  0  0  0  0
 27 28  1  0  0  0  0
 27 77  1  0  0  0  0
 28 29  2  0  0  0  0
 28 78  1  0  0  0  0
 29 30  1  0  0  0  0
 29 79  1  0  0  0  0
 30 31  2  0  0  0  0
 30 32  1  0  0  0  0
 31 80  1  0  0  0  0
 32 33  1  0  0  0  0
 32 34  1  0  0  0  0
 32 81  1  0  0  0  0
 33 82  1  0  0  0  0
 33 83  1  0  0  0  0
 33 84  1  0  0  0  0
 34 85  1  0  0  0  0
 34 86  1  0  0  0  0
 34 87  1  0  0  0  0
 35 88  1  0  0  0  0
 36 40  1  0  0  0  0
 36 37  2  0  0  0  0
 37 38  1  0  0  0  0
 38 39  2  0  0  0  0
 38 89  1  0  0  0  0
 39 40  1  0  0  0  0
 39 90  1  0  0  0  0
 41 52  1  6  0  0  0
 41 42  1  0  0  0  0
 41 43  1  0  0  0  0
 42 91  1  0  0  0  0
 42 92  1  0  0  0  0
 42 93  1  0  0  0  0
 43 48  1  0  0  0  0
 43 44  2  0  0  0  0
 44 45  1  0  0  0  0
 44 94  1  0  0  0  0
 45 46  2  0  0  0  0
 45 95  1  0  0  0  0
 46 47  1  0  0  0  0
 46 96  1  0  0  0  0
 47 48  2  0  0  0  0
 47 97  1  0  0  0  0
 48 98  1  0  0  0  0
M  CHG  1  24   1
M  END
