REMARK energy -4.45366
 OpenBabel10031817233D
Structure written by MMmdl.
 90 92  0  0  1  0  0  0  0  0999 V2000
   19.1332   39.8872  -11.0263 C   0  0  0  0  0  0  0  0  0  0  0  0
   20.1612   39.4652   -9.9492 C   0  0  2  0  0  0  0  0  0  0  0  0
   19.7331   38.1948   -9.1694 C   0  0  0  0  0  0  0  0  0  0  0  0
   18.2218   37.9343   -8.9769 C   0  0  0  0  0  0  0  0  0  0  0  0
   17.4829   38.9529   -8.0944 C   0  0  0  0  0  0  0  0  0  0  0  0
   15.9596   38.7465   -8.1525 C   0  0  0  0  0  0  0  0  0  0  0  0
   15.1493   39.7681   -7.3397 C   0  0  0  0  0  0  0  0  0  0  0  0
   15.2719   41.2094   -7.8554 C   0  0  0  0  0  0  0  0  0  0  0  0
   14.8294   41.2886   -9.2051 O   0  0  0  0  0  0  0  0  0  0  0  0
   14.7480   42.6100   -9.7262 C   0  0  0  0  0  0  0  0  0  0  0  0
   16.1059   43.0470  -10.3083 C   0  0  0  0  0  0  0  0  0  0  0  0
   16.4402   42.5461  -11.3858 O   0  0  0  0  0  0  0  0  0  0  0  0
   16.8742   43.9659   -9.6640 N   0  0  0  0  0  0  0  0  0  0  0  0
   18.1741   44.3851  -10.2467 C   0  0  2  0  0  0  0  0  0  0  0  0
   19.3515   43.7634   -9.4763 C   0  0  0  0  0  0  0  0  0  0  0  0
   19.7012   44.2168   -8.3856 O   0  0  0  0  0  0  0  0  0  0  0  0
   19.9579   42.7221  -10.0667 N   0  0  0  0  0  0  0  0  0  0  0  0
   21.0911   41.9619   -9.5395 C   0  0  1  0  0  0  0  0  0  0  0  0
   20.6336   40.5857   -8.9792 C   0  0  0  0  0  0  0  0  0  0  0  0
   22.2793   42.0188  -10.5446 C   0  0  1  0  0  0  0  0  0  0  0  0
   23.6529   41.7048   -9.8950 C   0  0  0  0  0  0  0  0  0  0  0  0
   24.8023   41.7501  -10.8399 N   0  3  0  0  0  0  0  0  0  0  0  0
   25.4383   43.0398  -11.2543 C   0  0  0  0  0  0  0  0  0  0  0  0
   24.5785   43.7962  -12.2545 C   0  0  0  0  0  0  0  0  0  0  0  0
   24.7543   44.3360  -10.8485 C   0  0  0  0  0  0  0  0  0  0  0  0
   26.9333   42.9441  -11.5027 C   0  0  0  0  0  0  0  0  0  0  0  0
   27.6917   41.8074  -11.1360 C   0  0  0  0  0  0  0  0  0  0  0  0
   29.0706   41.7501  -11.4069 C   0  0  0  0  0  0  0  0  0  0  0  0
   29.7225   42.8123  -12.0496 C   0  0  0  0  0  0  0  0  0  0  0  0
   29.0014   43.9692  -12.4214 C   0  0  0  0  0  0  0  0  0  0  0  0
   27.6162   44.0130  -12.1326 C   0  0  0  0  0  0  0  0  0  0  0  0
   29.6691   45.1612  -13.1337 C   0  0  0  0  0  0  0  0  0  0  0  0
   29.4749   46.4453  -12.3019 C   0  0  0  0  0  0  0  0  0  0  0  0
   31.1886   44.9659  -13.3395 C   0  0  0  0  0  0  0  0  0  0  0  0
   29.0331   45.3504  -14.5247 C   0  0  0  0  0  0  0  0  0  0  0  0
   22.0599   41.1482  -11.6396 O   0  0  0  0  0  0  0  0  0  0  0  0
   18.2941   45.9261  -10.2891 C   0  0  0  0  0  0  0  0  0  0  0  0
   16.4759   44.5579   -8.3737 C   0  0  0  0  0  0  0  0  0  0  0  0
   21.0527   39.1535  -10.4935 H   0  0  0  0  0  0  0  0  0  0  0  0
   18.2621   44.0700  -11.2878 H   0  0  0  0  0  0  0  0  0  0  0  0
   21.4507   42.5074   -8.6646 H   0  0  0  0  0  0  0  0  0  0  0  0
   22.2824   43.0336  -10.9330 H   0  0  0  0  0  0  0  0  0  0  0  0
   18.8430   39.0331  -11.6391 H   0  0  0  0  0  0  0  0  0  0  0  0
   19.5353   40.6288  -11.7141 H   0  0  0  0  0  0  0  0  0  0  0  0
   18.2276   40.3077  -10.5905 H   0  0  0  0  0  0  0  0  0  0  0  0
   20.1283   37.3499   -9.7256 H   0  0  0  0  0  0  0  0  0  0  0  0
   20.2350   38.1509   -8.2026 H   0  0  0  0  0  0  0  0  0  0  0  0
   18.0952   36.9465   -8.5314 H   0  0  0  0  0  0  0  0  0  0  0  0
   17.7361   37.8668   -9.9497 H   0  0  0  0  0  0  0  0  0  0  0  0
   17.8349   38.8760   -7.0643 H   0  0  0  0  0  0  0  0  0  0  0  0
   17.7173   39.9609   -8.4265 H   0  0  0  0  0  0  0  0  0  0  0  0
   15.7206   37.7500   -7.7844 H   0  0  0  0  0  0  0  0  0  0  0  0
   15.6232   38.7693   -9.1894 H   0  0  0  0  0  0  0  0  0  0  0  0
   14.0975   39.4772   -7.3575 H   0  0  0  0  0  0  0  0  0  0  0  0
   15.4534   39.7271   -6.2915 H   0  0  0  0  0  0  0  0  0  0  0  0
   16.2988   41.5613   -7.7627 H   0  0  0  0  0  0  0  0  0  0  0  0
   14.6507   41.8571   -7.2403 H   0  0  0  0  0  0  0  0  0  0  0  0
   14.3172   43.3075   -9.0097 H   0  0  0  0  0  0  0  0  0  0  0  0
   14.0397   42.5780  -10.5542 H   0  0  0  0  0  0  0  0  0  0  0  0
   19.5867   42.4013  -10.9501 H   0  0  0  0  0  0  0  0  0  0  0  0
   21.4557   40.1840   -8.3844 H   0  0  0  0  0  0  0  0  0  0  0  0
   19.8405   40.7763   -8.2564 H   0  0  0  0  0  0  0  0  0  0  0  0
   23.6179   40.6905   -9.4938 H   0  0  0  0  0  0  0  0  0  0  0  0
   23.8497   42.3528   -9.0408 H   0  0  0  0  0  0  0  0  0  0  0  0
   24.5433   41.2477  -11.6875 H   0  0  0  0  0  0  0  0  0  0  0  0
   25.0578   44.3560  -13.0530 H   0  0  0  0  0  0  0  0  0  0  0  0
   23.6179   43.3799  -12.5429 H   0  0  0  0  0  0  0  0  0  0  0  0
   23.8832   44.3359  -10.2018 H   0  0  0  0  0  0  0  0  0  0  0  0
   25.3826   45.2161  -10.7333 H   0  0  0  0  0  0  0  0  0  0  0  0
   27.2472   40.9523  -10.6503 H   0  0  0  0  0  0  0  0  0  0  0  0
   29.6309   40.8662  -11.1369 H   0  0  0  0  0  0  0  0  0  0  0  0
   30.7788   42.7075  -12.2456 H   0  0  0  0  0  0  0  0  0  0  0  0
   27.0691   44.8978  -12.4148 H   0  0  0  0  0  0  0  0  0  0  0  0
   28.4243   46.7087  -12.1860 H   0  0  0  0  0  0  0  0  0  0  0  0
   29.9660   47.2986  -12.7710 H   0  0  0  0  0  0  0  0  0  0  0  0
   29.8969   46.3362  -11.3031 H   0  0  0  0  0  0  0  0  0  0  0  0
   31.4064   44.0963  -13.9599 H   0  0  0  0  0  0  0  0  0  0  0  0
   31.7113   44.8463  -12.3902 H   0  0  0  0  0  0  0  0  0  0  0  0
   31.6324   45.8288  -13.8369 H   0  0  0  0  0  0  0  0  0  0  0  0
   29.1582   44.4577  -15.1368 H   0  0  0  0  0  0  0  0  0  0  0  0
   29.4892   46.1832  -15.0606 H   0  0  0  0  0  0  0  0  0  0  0  0
   27.9641   45.5566  -14.4629 H   0  0  0  0  0  0  0  0  0  0  0  0
   22.7143   41.2614  -12.3176 H   0  0  0  0  0  0  0  0  0  0  0  0
   19.1929   46.2239  -10.8293 H   0  0  0  0  0  0  0  0  0  0  0  0
   18.3563   46.3837   -9.3024 H   0  0  0  0  0  0  0  0  0  0  0  0
   17.4451   46.3679  -10.8095 H   0  0  0  0  0  0  0  0  0  0  0  0
   17.2918   45.0819   -7.8789 H   0  0  0  0  0  0  0  0  0  0  0  0
   16.1426   43.8128   -7.6540 H   0  0  0  0  0  0  0  0  0  0  0  0
   15.6731   45.2790   -8.5190 H   0  0  0  0  0  0  0  0  0  0  0  0
   25.5326   41.2145  -10.3952 H   0  0  0  0  0  0  0  0  0  0  0  0
  1  2  1  0  0  0  0
  1 43  1  0  0  0  0
  1 44  1  0  0  0  0
  1 45  1  0  0  0  0
  2 39  1  6  0  0  0
  2 19  1  0  0  0  0
  2  3  1  0  0  0  0
  3  4  1  0  0  0  0
  3 46  1  0  0  0  0
  3 47  1  0  0  0  0
  4  5  1  0  0  0  0
  4 48  1  0  0  0  0
  4 49  1  0  0  0  0
  5  6  1  0  0  0  0
  5 50  1  0  0  0  0
  5 51  1  0  0  0  0
  6  7  1  0  0  0  0
  6 52  1  0  0  0  0
  6 53  1  0  0  0  0
  7  8  1  0  0  0  0
  7 54  1  0  0  0  0
  7 55  1  0  0  0  0
  8  9  1  0  0  0  0
  8 56  1  0  0  0  0
  8 57  1  0  0  0  0
  9 10  1  0  0  0  0
 10 11  1  0  0  0  0
 10 58  1  0  0  0  0
 10 59  1  0  0  0  0
 11 12  2  0  0  0  0
 11 13  1  0  0  0  0
 13 14  1  0  0  0  0
 13 38  1  0  0  0  0
 14 40  1  6  0  0  0
 14 15  1  0  0  0  0
 14 37  1  0  0  0  0
 15 16  2  0  0  0  0
 15 17  1  0  0  0  0
 17 18  1  0  0  0  0
 17 60  1  0  0  0  0
 18 41  1  1  0  0  0
 18 19  1  0  0  0  0
 18 20  1  0  0  0  0
 19 61  1  0  0  0  0
 19 62  1  0  0  0  0
 20 42  1  6  0  0  0
 20 21  1  0  0  0  0
 20 36  1  0  0  0  0
 21 22  1  0  0  0  0
 21 63  1  0  0  0  0
 21 64  1  0  0  0  0
 22 23  1  0  0  0  0
 22 65  1  0  0  0  0
 22 90  1  0  0  0  0
 23 25  1  0  0  0  0
 23 24  1  0  0  0  0
 23 26  1  0  0  0  0
 24 25  1  0  0  0  0
 24 66  1  0  0  0  0
 24 67  1  0  0  0  0
 25 68  1  0  0  0  0
 25 69  1  0  0  0  0
 26 31  1  0  0  0  0
 26 27  2  0  0  0  0
 27 28  1  0  0  0  0
 27 70  1  0  0  0  0
 28 29  2  0  0  0  0
 28 71  1  0  0  0  0
 29 30  1  0  0  0  0
 29 72  1  0  0  0  0
 30 31  2  0  0  0  0
 30 32  1  0  0  0  0
 31 73  1  0  0  0  0
 32 33  1  0  0  0  0
 32 34  1  0  0  0  0
 32 35  1  0  0  0  0
 33 74  1  0  0  0  0
 33 75  1  0  0  0  0
 33 76  1  0  0  0  0
 34 77  1  0  0  0  0
 34 78  1  0  0  0  0
 34 79  1  0  0  0  0
 35 80  1  0  0  0  0
 35 81  1  0  0  0  0
 35 82  1  0  0  0  0
 36 83  1  0  0  0  0
 37 84  1  0  0  0  0
 37 85  1  0  0  0  0
 37 86  1  0  0  0  0
 38 87  1  0  0  0  0
 38 88  1  0  0  0  0
 38 89  1  0  0  0  0
M  CHG  1  22   1
M  END
