REMARK energy -3.21918
 OpenBabel10031817233D
Structure written by MMmdl.
 89 91  0  0  1  0  0  0  0  0999 V2000
   21.2223   45.4610   -5.2401 C   0  0  0  0  0  0  0  0  0  0  0  0
   22.4370   44.5336   -5.0662 C   0  0  2  0  0  0  0  0  0  0  0  0
   23.5309   44.5895   -6.1810 C   0  0  0  0  0  0  0  0  0  0  0  0
   23.3389   45.5667   -7.3637 C   0  0  0  0  0  0  0  0  0  0  0  0
   23.5069   47.0617   -7.0246 C   0  0  0  0  0  0  0  0  0  0  0  0
   23.0861   48.0157   -8.1611 C   0  0  0  0  0  0  0  0  0  0  0  0
   21.5801   48.0350   -8.4989 C   0  0  0  0  0  0  0  0  0  0  0  0
   20.6725   48.5273   -7.3508 C   0  0  0  0  0  0  0  0  0  0  0  0
   19.3113   48.7541   -7.7272 O   0  0  0  0  0  0  0  0  0  0  0  0
   18.6060   47.7058   -8.4016 C   0  0  0  0  0  0  0  0  0  0  0  0
   18.4717   46.4122   -7.5614 C   0  0  0  0  0  0  0  0  0  0  0  0
   18.4606   46.5167   -6.3325 O   0  0  0  0  0  0  0  0  0  0  0  0
   18.3535   45.2126   -8.1964 N   0  0  0  0  0  0  0  0  0  0  0  0
   18.3648   43.9415   -7.4166 C   0  0  2  0  0  0  0  0  0  0  0  0
   19.7890   43.3590   -7.2582 C   0  0  0  0  0  0  0  0  0  0  0  0
   20.6276   43.5131   -8.1450 O   0  0  0  0  0  0  0  0  0  0  0  0
   20.0599   42.7216   -6.1040 N   0  0  0  0  0  0  0  0  0  0  0  0
   21.3460   42.1616   -5.6804 C   0  0  1  0  0  0  0  0  0  0  0  0
   22.0425   43.0903   -4.6392 C   0  0  0  0  0  0  0  0  0  0  0  0
   21.1207   40.7156   -5.1365 C   0  0  1  0  0  0  0  0  0  0  0  0
   20.7098   39.7152   -6.2340 C   0  0  0  0  0  0  0  0  0  0  0  0
   19.2611   39.6311   -6.4426 N   0  0  0  0  0  0  0  0  0  0  0  0
   18.7285   38.8820   -7.5880 C   0  0  0  0  0  0  0  0  0  0  0  0
   17.2204   38.7506   -7.6518 C   0  0  0  0  0  0  0  0  0  0  0  0
   18.0719   37.5494   -7.3282 C   0  0  0  0  0  0  0  0  0  0  0  0
   19.5256   39.1016   -8.8408 C   0  0  0  0  0  0  0  0  0  0  0  0
   20.7684   38.4615   -9.0018 C   0  0  0  0  0  0  0  0  0  0  0  0
   21.6292   38.8367  -10.0399 C   0  0  0  0  0  0  0  0  0  0  0  0
   21.2264   39.8054  -10.9718 C   0  0  0  0  0  0  0  0  0  0  0  0
   19.9450   40.4021  -10.8860 C   0  0  0  0  0  0  0  0  0  0  0  0
   19.1066   40.0323   -9.8099 C   0  0  0  0  0  0  0  0  0  0  0  0
   19.5230   41.4855  -11.8880 C   0  0  0  0  0  0  0  0  0  0  0  0
   20.0665   41.1628  -13.2855 C   0  0  0  0  0  0  0  0  0  0  0  0
   17.9877   41.6279  -12.0107 C   0  0  0  0  0  0  0  0  0  0  0  0
   20.1137   42.8239  -11.4256 C   0  0  0  0  0  0  0  0  0  0  0  0
   22.3396   40.2224   -4.6176 O   0  0  0  0  0  0  0  0  0  0  0  0
   17.4634   42.8492   -8.0212 C   0  0  0  0  0  0  0  0  0  0  0  0
   18.2374   45.1659   -9.6662 C   0  0  0  0  0  0  0  0  0  0  0  0
   22.9286   44.9309   -4.1794 H   0  0  0  0  0  0  0  0  0  0  0  0
   17.9454   44.1363   -6.4400 H   0  0  0  0  0  0  0  0  0  0  0  0
   22.0010   42.0809   -6.5480 H   0  0  0  0  0  0  0  0  0  0  0  0
   20.3974   40.7162   -4.3216 H   0  0  0  0  0  0  0  0  0  0  0  0
   21.4264   46.4552   -4.8519 H   0  0  0  0  0  0  0  0  0  0  0  0
   20.3574   45.0883   -4.6935 H   0  0  0  0  0  0  0  0  0  0  0  0
   20.9195   45.5694   -6.2735 H   0  0  0  0  0  0  0  0  0  0  0  0
   24.4983   44.7887   -5.7186 H   0  0  0  0  0  0  0  0  0  0  0  0
   23.6472   43.5954   -6.6122 H   0  0  0  0  0  0  0  0  0  0  0  0
   22.3824   45.3762   -7.8418 H   0  0  0  0  0  0  0  0  0  0  0  0
   24.0761   45.3172   -8.1279 H   0  0  0  0  0  0  0  0  0  0  0  0
   22.9749   47.3282   -6.1164 H   0  0  0  0  0  0  0  0  0  0  0  0
   24.5579   47.2395   -6.7917 H   0  0  0  0  0  0  0  0  0  0  0  0
   23.6422   47.7522   -9.0602 H   0  0  0  0  0  0  0  0  0  0  0  0
   23.3999   49.0266   -7.9024 H   0  0  0  0  0  0  0  0  0  0  0  0
   21.4301   48.6879   -9.3595 H   0  0  0  0  0  0  0  0  0  0  0  0
   21.2674   47.0453   -8.8260 H   0  0  0  0  0  0  0  0  0  0  0  0
   21.0555   49.4779   -6.9824 H   0  0  0  0  0  0  0  0  0  0  0  0
   20.7118   47.8504   -6.5031 H   0  0  0  0  0  0  0  0  0  0  0  0
   19.0852   47.5382   -9.3623 H   0  0  0  0  0  0  0  0  0  0  0  0
   17.6034   48.0691   -8.6179 H   0  0  0  0  0  0  0  0  0  0  0  0
   19.2928   42.5852   -5.4609 H   0  0  0  0  0  0  0  0  0  0  0  0
   21.4134   43.1471   -3.7482 H   0  0  0  0  0  0  0  0  0  0  0  0
   22.9626   42.6153   -4.2985 H   0  0  0  0  0  0  0  0  0  0  0  0
   21.0838   38.7108   -6.0248 H   0  0  0  0  0  0  0  0  0  0  0  0
   21.2142   40.0440   -7.1396 H   0  0  0  0  0  0  0  0  0  0  0  0
   18.7120   40.4428   -6.1544 H   0  0  0  0  0  0  0  0  0  0  0  0
   16.6239   39.1440   -6.8300 H   0  0  0  0  0  0  0  0  0  0  0  0
   16.7320   38.7518   -8.6250 H   0  0  0  0  0  0  0  0  0  0  0  0
   18.1267   36.7768   -8.0949 H   0  0  0  0  0  0  0  0  0  0  0  0
   18.0601   37.1937   -6.3001 H   0  0  0  0  0  0  0  0  0  0  0  0
   21.1020   37.7509   -8.2648 H   0  0  0  0  0  0  0  0  0  0  0  0
   22.5994   38.3721  -10.1187 H   0  0  0  0  0  0  0  0  0  0  0  0
   21.9265   40.0817  -11.7443 H   0  0  0  0  0  0  0  0  0  0  0  0
   18.1366   40.4760   -9.6792 H   0  0  0  0  0  0  0  0  0  0  0  0
   21.1498   41.2645  -13.3465 H   0  0  0  0  0  0  0  0  0  0  0  0
   19.6403   41.8172  -14.0393 H   0  0  0  0  0  0  0  0  0  0  0  0
   19.8128   40.1487  -13.5727 H   0  0  0  0  0  0  0  0  0  0  0  0
   17.5248   41.9885  -11.0959 H   0  0  0  0  0  0  0  0  0  0  0  0
   17.5242   40.6730  -12.2599 H   0  0  0  0  0  0  0  0  0  0  0  0
   17.7172   42.3482  -12.7832 H   0  0  0  0  0  0  0  0  0  0  0  0
   19.8016   43.0316  -10.4079 H   0  0  0  0  0  0  0  0  0  0  0  0
   19.7864   43.6611  -12.0397 H   0  0  0  0  0  0  0  0  0  0  0  0
   21.2032   42.8050  -11.4308 H   0  0  0  0  0  0  0  0  0  0  0  0
   22.9648   40.1800   -5.3233 H   0  0  0  0  0  0  0  0  0  0  0  0
   17.3369   42.0195   -7.3221 H   0  0  0  0  0  0  0  0  0  0  0  0
   17.8851   42.4387   -8.9331 H   0  0  0  0  0  0  0  0  0  0  0  0
   16.4661   43.2294   -8.2440 H   0  0  0  0  0  0  0  0  0  0  0  0
   17.9131   44.2162  -10.0750 H   0  0  0  0  0  0  0  0  0  0  0  0
   19.1971   45.3961  -10.1287 H   0  0  0  0  0  0  0  0  0  0  0  0
   17.5011   45.8855  -10.0229 H   0  0  0  0  0  0  0  0  0  0  0  0
  1  2  1  0  0  0  0
  1 43  1  0  0  0  0
  1 44  1  0  0  0  0
  1 45  1  0  0  0  0
  2 39  1  1  0  0  0
  2 19  1  0  0  0  0
  2  3  1  0  0  0  0
  3  4  1  0  0  0  0
  3 46  1  0  0  0  0
  3 47  1  0  0  0  0
  4  5  1  0  0  0  0
  4 48  1  0  0  0  0
  4 49  1  0  0  0  0
  5  6  1  0  0  0  0
  5 50  1  0  0  0  0
  5 51  1  0  0  0  0
  6  7  1  0  0  0  0
  6 52  1  0  0  0  0
  6 53  1  0  0  0  0
  7  8  1  0  0  0  0
  7 54  1  0  0  0  0
  7 55  1  0  0  0  0
  8  9  1  0  0  0  0
  8 56  1  0  0  0  0
  8 57  1  0  0  0  0
  9 10  1  0  0  0  0
 10 11  1  0  0  0  0
 10 58  1  0  0  0  0
 10 59  1  0  0  0  0
 11 12  2  0  0  0  0
 11 13  1  0  0  0  0
 13 14  1  0  0  0  0
 13 38  1  0  0  0  0
 14 40  1  1  0  0  0
 14 15  1  0  0  0  0
 14 37  1  0  0  0  0
 15 16  2  0  0  0  0
 15 17  1  0  0  0  0
 17 18  1  0  0  0  0
 17 60  1  0  0  0  0
 18 41  1  6  0  0  0
 18 19  1  0  0  0  0
 18 20  1  0  0  0  0
 19 61  1  0  0  0  0
 19 62  1  0  0  0  0
 20 42  1  1  0  0  0
 20 21  1  0  0  0  0
 20 36  1  0  0  0  0
 21 22  1  0  0  0  0
 21 63  1  0  0  0  0
 21 64  1  0  0  0  0
 22 23  1  0  0  0  0
 22 65  1  0  0  0  0
 23 25  1  0  0  0  0
 23 24  1  0  0  0  0
 23 26  1  0  0  0  0
 24 25  1  0  0  0  0
 24 66  1  0  0  0  0
 24 67  1  0  0  0  0
 25 68  1  0  0  0  0
 25 69  1  0  0  0  0
 26 31  1  0  0  0  0
 26 27  2  0  0  0  0
 27 28  1  0  0  0  0
 27 70  1  0  0  0  0
 28 29  2  0  0  0  0
 28 71  1  0  0  0  0
 29 30  1  0  0  0  0
 29 72  1  0  0  0  0
 30 31  2  0  0  0  0
 30 32  1  0  0  0  0
 31 73  1  0  0  0  0
 32 33  1  0  0  0  0
 32 34  1  0  0  0  0
 32 35  1  0  0  0  0
 33 74  1  0  0  0  0
 33 75  1  0  0  0  0
 33 76  1  0  0  0  0
 34 77  1  0  0  0  0
 34 78  1  0  0  0  0
 34 79  1  0  0  0  0
 35 80  1  0  0  0  0
 35 81  1  0  0  0  0
 35 82  1  0  0  0  0
 36 83  1  0  0  0  0
 37 84  1  0  0  0  0
 37 85  1  0  0  0  0
 37 86  1  0  0  0  0
 38 87  1  0  0  0  0
 38 88  1  0  0  0  0
 38 89  1  0  0  0  0
M  END
