REMARK energy -3.08499
 OpenBabel10031817233D
Structure written by MMmdl.
 87 89  0  0  1  0  0  0  0  0999 V2000
   18.9980   47.4889   -7.2421 C   0  0  0  0  0  0  0  0  0  0  0  0
   19.4800   46.3057   -8.0997 C   0  0  2  0  0  0  0  0  0  0  0  0
   20.9420   46.5338   -8.5574 C   0  0  0  0  0  0  0  0  0  0  0  0
   21.5807   45.3323   -9.2757 C   0  0  0  0  0  0  0  0  0  0  0  0
   23.0833   45.5192   -9.5669 C   0  0  0  0  0  0  0  0  0  0  0  0
   23.7052   44.3009  -10.2675 C   0  0  0  0  0  0  0  0  0  0  0  0
   23.9636   43.1036   -9.3259 C   0  0  0  0  0  0  0  0  0  0  0  0
   24.2411   41.7786  -10.0658 C   0  0  0  0  0  0  0  0  0  0  0  0
   22.9805   40.9254  -10.2994 C   0  0  0  0  0  0  0  0  0  0  0  0
   22.0636   41.5585  -11.2393 N   0  0  0  0  0  0  0  0  0  0  0  0
   20.6912   41.3194  -11.1412 C   0  0  0  0  0  0  0  0  0  0  0  0
   20.1575   40.0841  -10.7103 C   0  0  0  0  0  0  0  0  0  0  0  0
   18.7622   39.9126  -10.5952 C   0  0  0  0  0  0  0  0  0  0  0  0
   17.8968   40.9803  -10.9282 C   0  0  0  0  0  0  0  0  0  0  0  0
   18.4315   42.2249  -11.3366 C   0  0  0  0  0  0  0  0  0  0  0  0
   19.8240   42.3786  -11.4532 C   0  0  0  0  0  0  0  0  0  0  0  0
   17.5367   43.3793  -11.6692 C   0  0  0  0  0  0  0  0  0  0  0  0
   16.8602   43.3519  -12.6922 O   0  0  0  0  0  0  0  0  0  0  0  0
   17.5201   44.4435  -10.8472 N   0  0  0  0  0  0  0  0  0  0  0  0
   18.0938   44.5733   -9.5062 C   0  0  1  0  0  0  0  0  0  0  0  0
   18.5076   46.0520   -9.2804 C   0  0  0  0  0  0  0  0  0  0  0  0
   17.0853   43.9584   -8.4842 C   0  0  1  0  0  0  0  0  0  0  0  0
   17.6922   43.2308   -7.2652 C   0  0  0  0  0  0  0  0  0  0  0  0
   18.4709   42.0513   -7.6398 N   0  0  0  0  0  0  0  0  0  0  0  0
   19.9138   42.2609   -7.6771 C   0  0  0  0  0  0  0  0  0  0  0  0
   20.6443   41.4092   -6.6638 C   0  0  0  0  0  0  0  0  0  0  0  0
   21.1095   40.1250   -7.0009 C   0  0  0  0  0  0  0  0  0  0  0  0
   21.8148   39.3599   -6.0535 C   0  0  0  0  0  0  0  0  0  0  0  0
   22.0524   39.8773   -4.7642 C   0  0  0  0  0  0  0  0  0  0  0  0
   21.5562   41.1486   -4.4057 C   0  0  0  0  0  0  0  0  0  0  0  0
   20.8599   41.9118   -5.3669 C   0  0  0  0  0  0  0  0  0  0  0  0
   21.7815   41.6989   -3.0082 C   0  0  0  0  0  0  0  0  0  0  0  0
   20.4552   41.9424   -2.2722 C   0  0  0  0  0  0  0  0  0  0  0  0
   22.6551   42.9559   -3.0494 C   0  0  0  0  0  0  0  0  0  0  0  0
   16.2169   44.9467   -7.9647 O   0  0  0  0  0  0  0  0  0  0  0  0
   18.2149   38.5779  -10.1195 C   0  0  0  0  0  0  0  0  0  0  0  0
   18.7659   38.1843   -8.8718 O   0  0  0  0  0  0  0  0  0  0  0  0
   17.9754   38.5646   -7.7515 C   0  0  0  0  0  0  0  0  0  0  0  0
   19.4805   45.4389   -7.4435 H   0  0  0  0  0  0  0  0  0  0  0  0
   19.0145   43.9955   -9.4872 H   0  0  0  0  0  0  0  0  0  0  0  0
   16.4485   43.2255   -8.9858 H   0  0  0  0  0  0  0  0  0  0  0  0
   18.9911   48.4141   -7.8220 H   0  0  0  0  0  0  0  0  0  0  0  0
   19.6377   47.6376   -6.3683 H   0  0  0  0  0  0  0  0  0  0  0  0
   17.9846   47.3183   -6.8706 H   0  0  0  0  0  0  0  0  0  0  0  0
   20.9936   47.4145   -9.2021 H   0  0  0  0  0  0  0  0  0  0  0  0
   21.5442   46.7689   -7.6772 H   0  0  0  0  0  0  0  0  0  0  0  0
   21.4511   44.4448   -8.6632 H   0  0  0  0  0  0  0  0  0  0  0  0
   21.0565   45.1337  -10.2107 H   0  0  0  0  0  0  0  0  0  0  0  0
   23.2057   46.3962  -10.2027 H   0  0  0  0  0  0  0  0  0  0  0  0
   23.6313   45.7352   -8.6473 H   0  0  0  0  0  0  0  0  0  0  0  0
   23.0614   44.0127  -11.0960 H   0  0  0  0  0  0  0  0  0  0  0  0
   24.6568   44.5933  -10.7165 H   0  0  0  0  0  0  0  0  0  0  0  0
   24.8266   43.3468   -8.7030 H   0  0  0  0  0  0  0  0  0  0  0  0
   23.1321   42.9539   -8.6364 H   0  0  0  0  0  0  0  0  0  0  0  0
   24.7592   41.9605  -11.0072 H   0  0  0  0  0  0  0  0  0  0  0  0
   24.9328   41.1907   -9.4647 H   0  0  0  0  0  0  0  0  0  0  0  0
   23.2614   39.9563  -10.7003 H   0  0  0  0  0  0  0  0  0  0  0  0
   22.4921   40.7423   -9.3432 H   0  0  0  0  0  0  0  0  0  0  0  0
   22.3685   42.4379  -11.6322 H   0  0  0  0  0  0  0  0  0  0  0  0
   20.8112   39.2616  -10.4597 H   0  0  0  0  0  0  0  0  0  0  0  0
   16.8278   40.8548  -10.8364 H   0  0  0  0  0  0  0  0  0  0  0  0
   20.2332   43.3283  -11.7679 H   0  0  0  0  0  0  0  0  0  0  0  0
   16.9336   45.2105  -11.1391 H   0  0  0  0  0  0  0  0  0  0  0  0
   17.6118   46.6668   -9.1764 H   0  0  0  0  0  0  0  0  0  0  0  0
   18.9759   46.4251  -10.1936 H   0  0  0  0  0  0  0  0  0  0  0  0
   18.2584   43.9010   -6.6170 H   0  0  0  0  0  0  0  0  0  0  0  0
   16.8600   42.8838   -6.6483 H   0  0  0  0  0  0  0  0  0  0  0  0
   18.2998   41.3533   -6.9171 H   0  0  0  0  0  0  0  0  0  0  0  0
   20.3029   42.0583   -8.6731 H   0  0  0  0  0  0  0  0  0  0  0  0
   20.1620   43.2948   -7.4581 H   0  0  0  0  0  0  0  0  0  0  0  0
   20.9238   39.7175   -7.9817 H   0  0  0  0  0  0  0  0  0  0  0  0
   22.1709   38.3768   -6.3215 H   0  0  0  0  0  0  0  0  0  0  0  0
   22.5928   39.2830   -4.0421 H   0  0  0  0  0  0  0  0  0  0  0  0
   20.4792   42.8880   -5.1101 H   0  0  0  0  0  0  0  0  0  0  0  0
   22.3325   40.9523   -2.4401 H   0  0  0  0  0  0  0  0  0  0  0  0
   19.8813   41.0213   -2.1955 H   0  0  0  0  0  0  0  0  0  0  0  0
   19.8345   42.6804   -2.7814 H   0  0  0  0  0  0  0  0  0  0  0  0
   20.6385   42.3051   -1.2622 H   0  0  0  0  0  0  0  0  0  0  0  0
   23.6089   42.7486   -3.5344 H   0  0  0  0  0  0  0  0  0  0  0  0
   22.8596   43.3358   -2.0470 H   0  0  0  0  0  0  0  0  0  0  0  0
   22.1722   43.7549   -3.6063 H   0  0  0  0  0  0  0  0  0  0  0  0
   15.7346   44.5400   -7.2527 H   0  0  0  0  0  0  0  0  0  0  0  0
   17.1231   38.5706  -10.1098 H   0  0  0  0  0  0  0  0  0  0  0  0
   18.5196   37.8259  -10.8406 H   0  0  0  0  0  0  0  0  0  0  0  0
   17.2110   37.8105   -7.5437 H   0  0  0  0  0  0  0  0  0  0  0  0
   17.4813   39.5308   -7.9003 H   0  0  0  0  0  0  0  0  0  0  0  0
   18.6160   38.6479   -6.8690 H   0  0  0  0  0  0  0  0  0  0  0  0
  1  2  1  0  0  0  0
  1 42  1  0  0  0  0
  1 43  1  0  0  0  0
  1 44  1  0  0  0  0
  2 39  1  1  0  0  0
  2 21  1  0  0  0  0
  2  3  1  0  0  0  0
  3  4  1  0  0  0  0
  3 45  1  0  0  0  0
  3 46  1  0  0  0  0
  4  5  1  0  0  0  0
  4 47  1  0  0  0  0
  4 48  1  0  0  0  0
  5  6  1  0  0  0  0
  5 49  1  0  0  0  0
  5 50  1  0  0  0  0
  6  7  1  0  0  0  0
  6 51  1  0  0  0  0
  6 52  1  0  0  0  0
  7  8  1  0  0  0  0
  7 53  1  0  0  0  0
  7 54  1  0  0  0  0
  8  9  1  0  0  0  0
  8 55  1  0  0  0  0
  8 56  1  0  0  0  0
  9 10  1  0  0  0  0
  9 57  1  0  0  0  0
  9 58  1  0  0  0  0
 10 11  1  0  0  0  0
 10 59  1  0  0  0  0
 11 16  1  0  0  0  0
 11 12  2  0  0  0  0
 12 13  1  0  0  0  0
 12 60  1  0  0  0  0
 13 14  2  0  0  0  0
 13 36  1  0  0  0  0
 14 15  1  0  0  0  0
 14 61  1  0  0  0  0
 15 16  2  0  0  0  0
 15 17  1  0  0  0  0
 16 62  1  0  0  0  0
 17 18  2  0  0  0  0
 17 19  1  0  0  0  0
 19 20  1  0  0  0  0
 19 63  1  0  0  0  0
 20 40  1  1  0  0  0
 20 21  1  0  0  0  0
 20 22  1  0  0  0  0
 21 64  1  0  0  0  0
 21 65  1  0  0  0  0
 22 41  1  6  0  0  0
 22 23  1  0  0  0  0
 22 35  1  0  0  0  0
 23 24  1  0  0  0  0
 23 66  1  0  0  0  0
 23 67  1  0  0  0  0
 24 25  1  0  0  0  0
 24 68  1  0  0  0  0
 25 26  1  0  0  0  0
 25 69  1  0  0  0  0
 25 70  1  0  0  0  0
 26 31  1  0  0  0  0
 26 27  2  0  0  0  0
 27 28  1  0  0  0  0
 27 71  1  0  0  0  0
 28 29  2  0  0  0  0
 28 72  1  0  0  0  0
 29 30  1  0  0  0  0
 29 73  1  0  0  0  0
 30 31  2  0  0  0  0
 30 32  1  0  0  0  0
 31 74  1  0  0  0  0
 32 33  1  0  0  0  0
 32 34  1  0  0  0  0
 32 75  1  0  0  0  0
 33 76  1  0  0  0  0
 33 77  1  0  0  0  0
 33 78  1  0  0  0  0
 34 79  1  0  0  0  0
 34 80  1  0  0  0  0
 34 81  1  0  0  0  0
 35 82  1  0  0  0  0
 36 37  1  0  0  0  0
 36 83  1  0  0  0  0
 36 84  1  0  0  0  0
 37 38  1  0  0  0  0
 38 85  1  0  0  0  0
 38 86  1  0  0  0  0
 38 87  1  0  0  0  0
M  END
