REMARK energy -2.36507
 OpenBabel10031817233D
Structure written by MMmdl.
 88 90  0  0  1  0  0  0  0  0999 V2000
   21.8979   43.4457   -6.0635 C   0  0  0  0  0  0  0  0  0  0  0  0
   23.2552   43.7003   -6.7413 C   0  0  2  0  0  0  0  0  0  0  0  0
   23.9657   44.9082   -6.0914 C   0  0  0  0  0  0  0  0  0  0  0  0
   25.4163   45.0999   -6.5622 C   0  0  0  0  0  0  0  0  0  0  0  0
   26.1700   46.1713   -5.7554 C   0  0  0  0  0  0  0  0  0  0  0  0
   27.5542   46.5038   -6.3362 C   0  0  0  0  0  0  0  0  0  0  0  0
   28.6114   45.4032   -6.1165 C   0  0  0  0  0  0  0  0  0  0  0  0
   29.8841   45.5960   -6.9655 C   0  0  0  0  0  0  0  0  0  0  0  0
   29.8517   44.8567   -8.3133 C   0  0  0  0  0  0  0  0  0  0  0  0
   28.7944   45.3382   -9.1880 N   0  0  0  0  0  0  0  0  0  0  0  0
   28.2423   44.4298  -10.0968 C   0  0  0  0  0  0  0  0  0  0  0  0
   29.0231   43.4290  -10.7132 C   0  0  0  0  0  0  0  0  0  0  0  0
   28.4399   42.5228  -11.6169 C   0  0  0  0  0  0  0  0  0  0  0  0
   27.0559   42.5968  -11.8882 C   0  0  0  0  0  0  0  0  0  0  0  0
   26.2602   43.5821  -11.2624 C   0  0  0  0  0  0  0  0  0  0  0  0
   26.8677   44.5135  -10.3913 C   0  0  0  0  0  0  0  0  0  0  0  0
   24.7915   43.6696  -11.5637 C   0  0  0  0  0  0  0  0  0  0  0  0
   24.4070   43.8485  -12.7208 O   0  0  0  0  0  0  0  0  0  0  0  0
   23.9146   43.5546  -10.5515 N   0  0  0  0  0  0  0  0  0  0  0  0
   24.1197   43.0954   -9.1684 C   0  0  1  0  0  0  0  0  0  0  0  0
   23.0828   43.8385   -8.2781 C   0  0  0  0  0  0  0  0  0  0  0  0
   24.0433   41.5378   -9.1610 C   0  0  1  0  0  0  0  0  0  0  0  0
   22.8319   40.9055   -9.8953 C   0  0  0  0  0  0  0  0  0  0  0  0
   22.4177   39.6469   -9.2346 N   0  3  0  0  0  0  0  0  0  0  0  0
   21.4665   39.7642   -8.1119 C   0  0  0  0  0  0  0  0  0  0  0  0
   20.0392   39.4677   -8.5332 C   0  0  0  0  0  0  0  0  0  0  0  0
   19.7938   38.5578   -9.5826 C   0  0  0  0  0  0  0  0  0  0  0  0
   18.4734   38.2481   -9.9576 C   0  0  0  0  0  0  0  0  0  0  0  0
   17.3943   38.8605   -9.2937 C   0  0  0  0  0  0  0  0  0  0  0  0
   17.6278   39.7818   -8.2494 C   0  0  0  0  0  0  0  0  0  0  0  0
   18.9559   40.0751   -7.8677 C   0  0  0  0  0  0  0  0  0  0  0  0
   16.4563   40.4542   -7.5506 C   0  0  0  0  0  0  0  0  0  0  0  0
   15.6544   39.4442   -6.7149 C   0  0  0  0  0  0  0  0  0  0  0  0
   15.5539   41.2097   -8.5379 C   0  0  0  0  0  0  0  0  0  0  0  0
   25.2481   40.9977   -9.6748 O   0  0  0  0  0  0  0  0  0  0  0  0
   29.3039   41.4521  -12.2520 C   0  0  0  0  0  0  0  0  0  0  0  0
   30.5967   41.3896  -11.6600 O   0  0  0  0  0  0  0  0  0  0  0  0
   31.4207   42.4747  -12.0498 C   0  0  0  0  0  0  0  0  0  0  0  0
   23.8680   42.8409   -6.5152 H   0  0  0  0  0  0  0  0  0  0  0  0
   25.1135   43.3894   -8.8365 H   0  0  0  0  0  0  0  0  0  0  0  0
   23.9671   41.2097   -8.1237 H   0  0  0  0  0  0  0  0  0  0  0  0
   21.2137   44.2805   -6.2084 H   0  0  0  0  0  0  0  0  0  0  0  0
   22.0167   43.2943   -4.9897 H   0  0  0  0  0  0  0  0  0  0  0  0
   21.4203   42.5479   -6.4595 H   0  0  0  0  0  0  0  0  0  0  0  0
   23.3959   45.8206   -6.2673 H   0  0  0  0  0  0  0  0  0  0  0  0
   23.9732   44.7637   -5.0089 H   0  0  0  0  0  0  0  0  0  0  0  0
   25.9465   44.1515   -6.4928 H   0  0  0  0  0  0  0  0  0  0  0  0
   25.4150   45.3837   -7.6135 H   0  0  0  0  0  0  0  0  0  0  0  0
   25.5758   47.0853   -5.7447 H   0  0  0  0  0  0  0  0  0  0  0  0
   26.2675   45.8641   -4.7132 H   0  0  0  0  0  0  0  0  0  0  0  0
   27.4420   46.7365   -7.3936 H   0  0  0  0  0  0  0  0  0  0  0  0
   27.9196   47.4237   -5.8756 H   0  0  0  0  0  0  0  0  0  0  0  0
   28.8843   45.4051   -5.0611 H   0  0  0  0  0  0  0  0  0  0  0  0
   28.1993   44.4141   -6.3092 H   0  0  0  0  0  0  0  0  0  0  0  0
   30.0932   46.6575   -7.1113 H   0  0  0  0  0  0  0  0  0  0  0  0
   30.7322   45.2046   -6.4019 H   0  0  0  0  0  0  0  0  0  0  0  0
   30.8070   44.9816   -8.8238 H   0  0  0  0  0  0  0  0  0  0  0  0
   29.7234   43.7890   -8.1347 H   0  0  0  0  0  0  0  0  0  0  0  0
   28.1699   46.0233   -8.7880 H   0  0  0  0  0  0  0  0  0  0  0  0
   30.0798   43.3496  -10.5033 H   0  0  0  0  0  0  0  0  0  0  0  0
   26.6046   41.8938  -12.5717 H   0  0  0  0  0  0  0  0  0  0  0  0
   26.2696   45.2884   -9.9308 H   0  0  0  0  0  0  0  0  0  0  0  0
   22.9461   43.6403  -10.8244 H   0  0  0  0  0  0  0  0  0  0  0  0
   22.0797   43.5209   -8.5698 H   0  0  0  0  0  0  0  0  0  0  0  0
   23.1065   44.8993   -8.5275 H   0  0  0  0  0  0  0  0  0  0  0  0
   22.0021   41.6171   -9.8854 H   0  0  0  0  0  0  0  0  0  0  0  0
   23.0383   40.6615  -10.9332 H   0  0  0  0  0  0  0  0  0  0  0  0
   22.0461   39.0192   -9.9281 H   0  0  0  0  0  0  0  0  0  0  0  0
   21.7660   39.0512   -7.3444 H   0  0  0  0  0  0  0  0  0  0  0  0
   21.5275   40.7461   -7.6504 H   0  0  0  0  0  0  0  0  0  0  0  0
   20.6154   38.0868  -10.0983 H   0  0  0  0  0  0  0  0  0  0  0  0
   18.2839   37.5399  -10.7514 H   0  0  0  0  0  0  0  0  0  0  0  0
   16.3846   38.6194   -9.5910 H   0  0  0  0  0  0  0  0  0  0  0  0
   19.1408   40.7724   -7.0638 H   0  0  0  0  0  0  0  0  0  0  0  0
   16.8667   41.1961   -6.8626 H   0  0  0  0  0  0  0  0  0  0  0  0
   16.2924   38.9515   -5.9802 H   0  0  0  0  0  0  0  0  0  0  0  0
   15.2058   38.6701   -7.3400 H   0  0  0  0  0  0  0  0  0  0  0  0
   14.8496   39.9392   -6.1713 H   0  0  0  0  0  0  0  0  0  0  0  0
   16.1378   41.9055   -9.1419 H   0  0  0  0  0  0  0  0  0  0  0  0
   14.7944   41.7845   -8.0069 H   0  0  0  0  0  0  0  0  0  0  0  0
   15.0362   40.5306   -9.2168 H   0  0  0  0  0  0  0  0  0  0  0  0
   25.1391   40.0704   -9.8370 H   0  0  0  0  0  0  0  0  0  0  0  0
   28.7943   40.4935  -12.1319 H   0  0  0  0  0  0  0  0  0  0  0  0
   29.3937   41.6387  -13.3216 H   0  0  0  0  0  0  0  0  0  0  0  0
   32.3993   42.3892  -11.5760 H   0  0  0  0  0  0  0  0  0  0  0  0
   30.9857   43.4297  -11.7510 H   0  0  0  0  0  0  0  0  0  0  0  0
   31.5689   42.4790  -13.1282 H   0  0  0  0  0  0  0  0  0  0  0  0
   23.2679   39.2140   -8.8739 H   0  0  0  0  0  0  0  0  0  0  0  0
  1  2  1  0  0  0  0
  1 42  1  0  0  0  0
  1 43  1  0  0  0  0
  1 44  1  0  0  0  0
  2 39  1  1  0  0  0
  2 21  1  0  0  0  0
  2  3  1  0  0  0  0
  3  4  1  0  0  0  0
  3 45  1  0  0  0  0
  3 46  1  0  0  0  0
  4  5  1  0  0  0  0
  4 47  1  0  0  0  0
  4 48  1  0  0  0  0
  5  6  1  0  0  0  0
  5 49  1  0  0  0  0
  5 50  1  0  0  0  0
  6  7  1  0  0  0  0
  6 51  1  0  0  0  0
  6 52  1  0  0  0  0
  7  8  1  0  0  0  0
  7 53  1  0  0  0  0
  7 54  1  0  0  0  0
  8  9  1  0  0  0  0
  8 55  1  0  0  0  0
  8 56  1  0  0  0  0
  9 10  1  0  0  0  0
  9 57  1  0  0  0  0
  9 58  1  0  0  0  0
 10 11  1  0  0  0  0
 10 59  1  0  0  0  0
 11 16  1  0  0  0  0
 11 12  2  0  0  0  0
 12 13  1  0  0  0  0
 12 60  1  0  0  0  0
 13 14  2  0  0  0  0
 13 36  1  0  0  0  0
 14 15  1  0  0  0  0
 14 61  1  0  0  0  0
 15 16  2  0  0  0  0
 15 17  1  0  0  0  0
 16 62  1  0  0  0  0
 17 18  2  0  0  0  0
 17 19  1  0  0  0  0
 19 20  1  0  0  0  0
 19 63  1  0  0  0  0
 20 40  1  1  0  0  0
 20 21  1  0  0  0  0
 20 22  1  0  0  0  0
 21 64  1  0  0  0  0
 21 65  1  0  0  0  0
 22 41  1  1  0  0  0
 22 23  1  0  0  0  0
 22 35  1  0  0  0  0
 23 24  1  0  0  0  0
 23 66  1  0  0  0  0
 23 67  1  0  0  0  0
 24 25  1  0  0  0  0
 24 68  1  0  0  0  0
 24 88  1  0  0  0  0
 25 26  1  0  0  0  0
 25 69  1  0  0  0  0
 25 70  1  0  0  0  0
 26 31  1  0  0  0  0
 26 27  2  0  0  0  0
 27 28  1  0  0  0  0
 27 71  1  0  0  0  0
 28 29  2  0  0  0  0
 28 72  1  0  0  0  0
 29 30  1  0  0  0  0
 29 73  1  0  0  0  0
 30 31  2  0  0  0  0
 30 32  1  0  0  0  0
 31 74  1  0  0  0  0
 32 33  1  0  0  0  0
 32 34  1  0  0  0  0
 32 75  1  0  0  0  0
 33 76  1  0  0  0  0
 33 77  1  0  0  0  0
 33 78  1  0  0  0  0
 34 79  1  0  0  0  0
 34 80  1  0  0  0  0
 34 81  1  0  0  0  0
 35 82  1  0  0  0  0
 36 37  1  0  0  0  0
 36 83  1  0  0  0  0
 36 84  1  0  0  0  0
 37 38  1  0  0  0  0
 38 85  1  0  0  0  0
 38 86  1  0  0  0  0
 38 87  1  0  0  0  0
M  CHG  1  24   1
M  END
