REMARK energy -6.06025
 OpenBabel10031817233D
Structure written by MMmdl.
 80 81  0  0  1  0  0  0  0  0999 V2000
   15.6647   45.6938   -9.0747 C   0  0  0  0  0  0  0  0  0  0  0  0
   17.0835   45.1128   -9.1162 C   0  0  0  0  0  0  0  0  0  0  0  0
   17.1456   43.7381   -9.8037 C   0  0  0  0  0  0  0  0  0  0  0  0
   16.2939   42.7077   -9.1109 C   0  0  0  0  0  0  0  0  0  0  0  0
   16.6845   41.7846   -8.0953 C   0  0  0  0  0  0  0  0  0  0  0  0
   15.5456   41.0808   -7.8180 C   0  0  0  0  0  0  0  0  0  0  0  0
   14.5703   41.5919   -8.6438 N   0  0  0  0  0  0  0  0  0  0  0  0
   15.0144   42.5845   -9.4376 N   0  0  0  0  0  0  0  0  0  0  0  0
   15.2782   39.9737   -6.8521 C   0  0  0  0  0  0  0  0  0  0  0  0
   16.3816   38.9922   -6.8409 N   0  3  0  0  0  0  0  0  0  0  0  0
   16.7297   38.4491   -8.1715 C   0  0  0  0  0  0  0  0  0  0  0  0
   18.0563   37.6601   -8.1307 C   0  0  2  0  0  0  0  0  0  0  0  0
   19.2925   38.5548   -8.1319 C   0  0  2  0  0  0  0  0  0  0  0  0
   19.4616   39.1755   -6.7277 C   0  0  0  0  0  0  0  0  0  0  0  0
   20.6747   40.1190   -6.5859 C   0  0  1  0  0  0  0  0  0  0  0  0
   20.9145   40.6078   -5.1441 C   0  0  0  0  0  0  0  0  0  0  0  0
   22.0739   41.6193   -5.0396 C   0  0  0  0  0  0  0  0  0  0  0  0
   21.6990   43.0371   -5.5224 C   0  0  0  0  0  0  0  0  0  0  0  0
   22.8989   43.9939   -5.6887 C   0  0  0  0  0  0  0  0  0  0  0  0
   23.9136   43.6092   -6.7929 C   0  0  0  0  0  0  0  0  0  0  0  0
   23.3146   43.3287   -8.1889 C   0  0  0  0  0  0  0  0  0  0  0  0
   22.5860   44.5340   -8.8234 O   0  0  0  0  0  0  0  0  0  0  0  0
   21.9172   44.2196  -10.1859 C   0  0  0  0  0  0  0  0  0  0  0  0
   20.7122   43.2731  -10.1009 C   0  0  0  0  0  0  0  0  0  0  0  0
   19.8400   43.4752   -9.2721 O   0  0  0  0  0  0  0  0  0  0  0  0
   20.6853   42.2554  -10.9750 N   0  0  0  0  0  0  0  0  0  0  0  0
   19.6486   41.2004  -10.9274 C   0  0  2  0  0  0  0  0  0  0  0  0
   20.0668   40.0465   -9.9885 C   0  0  0  0  0  0  0  0  0  0  0  0
   21.1918   39.5760  -10.0272 O   0  0  0  0  0  0  0  0  0  0  0  0
   19.1184   39.5842   -9.1616 N   0  0  0  0  0  0  0  0  0  0  0  0
   19.4789   40.6134  -12.3257 C   0  0  0  0  0  0  0  0  0  0  0  0
   21.7923   42.1330  -11.9019 C   0  0  0  0  0  0  0  0  0  0  0  0
   21.9295   39.4125   -7.0909 C   0  0  0  0  0  0  0  0  0  0  0  0
   18.0808   36.7813   -9.2415 O   0  0  0  0  0  0  0  0  0  0  0  0
   13.6111   41.2771   -8.6756 H   0  0  0  0  0  0  0  0  0  0  0  0
   18.0549   37.0526   -7.2246 H   0  0  0  0  0  0  0  0  0  0  0  0
   20.1322   37.8949   -8.3500 H   0  0  0  0  0  0  0  0  0  0  0  0
   20.5323   40.9772   -7.2426 H   0  0  0  0  0  0  0  0  0  0  0  0
   18.6722   41.5987  -10.6516 H   0  0  0  0  0  0  0  0  0  0  0  0
   15.6594   46.6666   -8.5826 H   0  0  0  0  0  0  0  0  0  0  0  0
   14.9854   45.0415   -8.5252 H   0  0  0  0  0  0  0  0  0  0  0  0
   15.2623   45.8292  -10.0790 H   0  0  0  0  0  0  0  0  0  0  0  0
   17.4639   45.0356   -8.0969 H   0  0  0  0  0  0  0  0  0  0  0  0
   17.7376   45.8128   -9.6375 H   0  0  0  0  0  0  0  0  0  0  0  0
   18.1802   43.3941   -9.8334 H   0  0  0  0  0  0  0  0  0  0  0  0
   16.8341   43.8355  -10.8447 H   0  0  0  0  0  0  0  0  0  0  0  0
   17.6557   41.6592   -7.6395 H   0  0  0  0  0  0  0  0  0  0  0  0
   14.3458   39.4708   -7.1126 H   0  0  0  0  0  0  0  0  0  0  0  0
   15.1485   40.3844   -5.8500 H   0  0  0  0  0  0  0  0  0  0  0  0
   16.1182   38.2232   -6.2415 H   0  0  0  0  0  0  0  0  0  0  0  0
   16.8206   39.2895   -8.8610 H   0  0  0  0  0  0  0  0  0  0  0  0
   15.9131   37.8242   -8.5354 H   0  0  0  0  0  0  0  0  0  0  0  0
   18.5500   39.7063   -6.4531 H   0  0  0  0  0  0  0  0  0  0  0  0
   19.5543   38.3631   -6.0069 H   0  0  0  0  0  0  0  0  0  0  0  0
   20.0041   41.0447   -4.7336 H   0  0  0  0  0  0  0  0  0  0  0  0
   21.1394   39.7455   -4.5166 H   0  0  0  0  0  0  0  0  0  0  0  0
   22.9276   41.2346   -5.5975 H   0  0  0  0  0  0  0  0  0  0  0  0
   22.4065   41.6821   -4.0035 H   0  0  0  0  0  0  0  0  0  0  0  0
   21.1484   42.9926   -6.4620 H   0  0  0  0  0  0  0  0  0  0  0  0
   20.9978   43.4715   -4.8098 H   0  0  0  0  0  0  0  0  0  0  0  0
   23.4237   44.0822   -4.7374 H   0  0  0  0  0  0  0  0  0  0  0  0
   22.5174   44.9941   -5.8943 H   0  0  0  0  0  0  0  0  0  0  0  0
   24.6596   44.3997   -6.8762 H   0  0  0  0  0  0  0  0  0  0  0  0
   24.4710   42.7291   -6.4724 H   0  0  0  0  0  0  0  0  0  0  0  0
   22.6441   42.4717   -8.1258 H   0  0  0  0  0  0  0  0  0  0  0  0
   24.1167   43.0123   -8.8558 H   0  0  0  0  0  0  0  0  0  0  0  0
   22.6640   43.8299  -10.8777 H   0  0  0  0  0  0  0  0  0  0  0  0
   21.5558   45.1439  -10.6364 H   0  0  0  0  0  0  0  0  0  0  0  0
   18.2104   40.0230   -9.2174 H   0  0  0  0  0  0  0  0  0  0  0  0
   18.6998   39.8501  -12.3424 H   0  0  0  0  0  0  0  0  0  0  0  0
   20.3972   40.1530  -12.6917 H   0  0  0  0  0  0  0  0  0  0  0  0
   19.1892   41.3815  -13.0435 H   0  0  0  0  0  0  0  0  0  0  0  0
   21.6251   41.3920  -12.6812 H   0  0  0  0  0  0  0  0  0  0  0  0
   22.7107   41.8545  -11.3836 H   0  0  0  0  0  0  0  0  0  0  0  0
   21.9609   43.0673  -12.4389 H   0  0  0  0  0  0  0  0  0  0  0  0
   22.8102   40.0488   -7.0063 H   0  0  0  0  0  0  0  0  0  0  0  0
   21.8448   39.1372   -8.1416 H   0  0  0  0  0  0  0  0  0  0  0  0
   22.1303   38.5006   -6.5273 H   0  0  0  0  0  0  0  0  0  0  0  0
   17.9621   37.2900  -10.0289 H   0  0  0  0  0  0  0  0  0  0  0  0
   17.2011   39.4372   -6.4532 H   0  0  0  0  0  0  0  0  0  0  0  0
  1  2  1  0  0  0  0
  1 40  1  0  0  0  0
  1 41  1  0  0  0  0
  1 42  1  0  0  0  0
  2  3  1  0  0  0  0
  2 43  1  0  0  0  0
  2 44  1  0  0  0  0
  3 45  1  0  0  0  0
  3 46  1  0  0  0  0
  3  4  1  0  0  0  0
  4  8  2  0  0  0  0
  4  5  1  0  0  0  0
  5  6  2  0  0  0  0
  5 47  1  0  0  0  0
  6  7  1  0  0  0  0
  6  9  1  0  0  0  0
  7  8  1  0  0  0  0
  7 35  1  0  0  0  0
  9 10  1  0  0  0  0
  9 48  1  0  0  0  0
  9 49  1  0  0  0  0
 10 11  1  0  0  0  0
 10 50  1  0  0  0  0
 10 80  1  0  0  0  0
 11 12  1  0  0  0  0
 11 51  1  0  0  0  0
 11 52  1  0  0  0  0
 12 36  1  1  0  0  0
 12 13  1  0  0  0  0
 12 34  1  0  0  0  0
 13 37  1  6  0  0  0
 13 30  1  0  0  0  0
 13 14  1  0  0  0  0
 14 15  1  0  0  0  0
 14 53  1  0  0  0  0
 14 54  1  0  0  0  0
 15 38  1  6  0  0  0
 15 16  1  0  0  0  0
 15 33  1  0  0  0  0
 16 17  1  0  0  0  0
 16 55  1  0  0  0  0
 16 56  1  0  0  0  0
 17 18  1  0  0  0  0
 17 57  1  0  0  0  0
 17 58  1  0  0  0  0
 18 19  1  0  0  0  0
 18 59  1  0  0  0  0
 18 60  1  0  0  0  0
 19 20  1  0  0  0  0
 19 61  1  0  0  0  0
 19 62  1  0  0  0  0
 20 21  1  0  0  0  0
 20 63  1  0  0  0  0
 20 64  1  0  0  0  0
 21 22  1  0  0  0  0
 21 65  1  0  0  0  0
 21 66  1  0  0  0  0
 22 23  1  0  0  0  0
 23 24  1  0  0  0  0
 23 67  1  0  0  0  0
 23 68  1  0  0  0  0
 24 25  2  0  0  0  0
 24 26  1  0  0  0  0
 26 27  1  0  0  0  0
 26 32  1  0  0  0  0
 27 39  1  1  0  0  0
 27 28  1  0  0  0  0
 27 31  1  0  0  0  0
 28 29  2  0  0  0  0
 28 30  1  0  0  0  0
 30 69  1  0  0  0  0
 31 70  1  0  0  0  0
 31 71  1  0  0  0  0
 31 72  1  0  0  0  0
 32 73  1  0  0  0  0
 32 74  1  0  0  0  0
 32 75  1  0  0  0  0
 33 76  1  0  0  0  0
 33 77  1  0  0  0  0
 33 78  1  0  0  0  0
 34 79  1  0  0  0  0
M  CHG  1  10   1
M  END
