BACE_9.smi:1
 OpenBabel10031817133D
Structure written by MMmdl.
 88 90  0  0  1  0  0  0  0  0999 V2000
   20.7001   43.0071   -6.6159 C   0  0  0  0  0  0  0  0  0  0  0  0
   22.1253   43.4050   -7.0363 C   0  0  2  0  0  0  0  0  0  0  0  0
   22.5867   44.6597   -6.2623 C   0  0  0  0  0  0  0  0  0  0  0  0
   24.0724   44.9991   -6.4626 C   0  0  0  0  0  0  0  0  0  0  0  0
   24.5613   46.1184   -5.5273 C   0  0  0  0  0  0  0  0  0  0  0  0
   25.9879   46.5942   -5.8470 C   0  0  0  0  0  0  0  0  0  0  0  0
   27.0910   45.5943   -5.4460 C   0  0  0  0  0  0  0  0  0  0  0  0
   28.4701   45.9266   -6.0504 C   0  0  0  0  0  0  0  0  0  0  0  0
   28.7519   45.2186   -7.3859 C   0  0  0  0  0  0  0  0  0  0  0  0
   27.8265   45.6174   -8.4344 N   0  0  0  0  0  0  0  0  0  0  0  0
   27.5373   44.6816   -9.4328 C   0  0  0  0  0  0  0  0  0  0  0  0
   28.5097   43.7740   -9.9036 C   0  0  0  0  0  0  0  0  0  0  0  0
   28.1891   42.8373  -10.9026 C   0  0  0  0  0  0  0  0  0  0  0  0
   26.8755   42.7857  -11.4188 C   0  0  0  0  0  0  0  0  0  0  0  0
   25.8883   43.6763  -10.9415 C   0  0  0  0  0  0  0  0  0  0  0  0
   26.2362   44.6411   -9.9700 C   0  0  0  0  0  0  0  0  0  0  0  0
   24.4959   43.6308  -11.5024 C   0  0  0  0  0  0  0  0  0  0  0  0
   24.3091   43.7988  -12.7089 O   0  0  0  0  0  0  0  0  0  0  0  0
   23.4674   43.4099  -10.6657 N   0  0  0  0  0  0  0  0  0  0  0  0
   23.4653   42.9407   -9.2708 C   0  0  1  0  0  0  0  0  0  0  0  0
   22.2182   43.5613   -8.5782 C   0  0  0  0  0  0  0  0  0  0  0  0
   23.5412   41.3831   -9.2857 C   0  0  1  0  0  0  0  0  0  0  0  0
   22.4790   40.6514  -10.1475 C   0  0  0  0  0  0  0  0  0  0  0  0
   22.4335   39.2104   -9.8107 N   0  3  0  0  0  0  0  0  0  0  0  0
   21.2931   38.7518   -8.9932 C   0  0  0  0  0  0  0  0  0  0  0  0
   19.9691   39.2996   -9.4932 C   0  0  0  0  0  0  0  0  0  0  0  0
   19.9225   40.0200  -10.7048 C   0  0  0  0  0  0  0  0  0  0  0  0
   18.6950   40.5014  -11.1961 C   0  0  0  0  0  0  0  0  0  0  0  0
   17.5120   40.2768  -10.4679 C   0  0  0  0  0  0  0  0  0  0  0  0
   17.5480   39.5668   -9.2478 C   0  0  0  0  0  0  0  0  0  0  0  0
   18.7818   39.0724   -8.7694 C   0  0  0  0  0  0  0  0  0  0  0  0
   16.2678   39.3456   -8.4572 C   0  0  0  0  0  0  0  0  0  0  0  0
   16.4359   39.7849   -6.9942 C   0  0  0  0  0  0  0  0  0  0  0  0
   15.7741   37.8942   -8.5555 C   0  0  0  0  0  0  0  0  0  0  0  0
   24.8393   40.9715   -9.6766 O   0  0  0  0  0  0  0  0  0  0  0  0
   29.2531   41.8685  -11.3772 C   0  0  0  0  0  0  0  0  0  0  0  0
   30.1556   42.4754  -12.2952 O   0  0  0  0  0  0  0  0  0  0  0  0
   29.5666   42.6928  -13.5657 C   0  0  0  0  0  0  0  0  0  0  0  0
   22.7687   42.6027   -6.7080 H   0  0  0  0  0  0  0  0  0  0  0  0
   24.3501   43.3201   -8.7634 H   0  0  0  0  0  0  0  0  0  0  0  0
   23.3916   41.0293   -8.2650 H   0  0  0  0  0  0  0  0  0  0  0  0
   19.9747   43.7762   -6.8773 H   0  0  0  0  0  0  0  0  0  0  0  0
   20.6389   42.8431   -5.5391 H   0  0  0  0  0  0  0  0  0  0  0  0
   20.3910   42.0773   -7.0964 H   0  0  0  0  0  0  0  0  0  0  0  0
   21.9713   45.5176   -6.5332 H   0  0  0  0  0  0  0  0  0  0  0  0
   22.4143   44.4918   -5.1970 H   0  0  0  0  0  0  0  0  0  0  0  0
   24.6716   44.1040   -6.3038 H   0  0  0  0  0  0  0  0  0  0  0  0
   24.2317   45.3055   -7.4953 H   0  0  0  0  0  0  0  0  0  0  0  0
   23.8884   46.9714   -5.6190 H   0  0  0  0  0  0  0  0  0  0  0  0
   24.5000   45.7982   -4.4862 H   0  0  0  0  0  0  0  0  0  0  0  0
   26.0446   46.8394   -6.9059 H   0  0  0  0  0  0  0  0  0  0  0  0
   26.1734   47.5339   -5.3231 H   0  0  0  0  0  0  0  0  0  0  0  0
   27.1690   45.5979   -4.3588 H   0  0  0  0  0  0  0  0  0  0  0  0
   26.8186   44.5752   -5.7153 H   0  0  0  0  0  0  0  0  0  0  0  0
   28.5973   47.0062   -6.1504 H   0  0  0  0  0  0  0  0  0  0  0  0
   29.2377   45.6047   -5.3452 H   0  0  0  0  0  0  0  0  0  0  0  0
   29.7663   45.4453   -7.7150 H   0  0  0  0  0  0  0  0  0  0  0  0
   28.6984   44.1397   -7.2392 H   0  0  0  0  0  0  0  0  0  0  0  0
   27.0766   46.2307   -8.1499 H   0  0  0  0  0  0  0  0  0  0  0  0
   29.5144   43.7905   -9.5070 H   0  0  0  0  0  0  0  0  0  0  0  0
   26.6247   42.0589  -12.1762 H   0  0  0  0  0  0  0  0  0  0  0  0
   25.4925   45.3449   -9.6209 H   0  0  0  0  0  0  0  0  0  0  0  0
   22.5597   43.4094  -11.1084 H   0  0  0  0  0  0  0  0  0  0  0  0
   21.3195   43.1566   -9.0478 H   0  0  0  0  0  0  0  0  0  0  0  0
   22.1826   44.6250   -8.8135 H   0  0  0  0  0  0  0  0  0  0  0  0
   21.5012   41.1040   -9.9626 H   0  0  0  0  0  0  0  0  0  0  0  0
   22.6714   40.7180  -11.2144 H   0  0  0  0  0  0  0  0  0  0  0  0
   22.4774   38.6732  -10.6607 H   0  0  0  0  0  0  0  0  0  0  0  0
   21.2668   37.6635   -9.0369 H   0  0  0  0  0  0  0  0  0  0  0  0
   21.4360   39.0074   -7.9467 H   0  0  0  0  0  0  0  0  0  0  0  0
   20.8252   40.1991  -11.2670 H   0  0  0  0  0  0  0  0  0  0  0  0
   18.6559   41.0407  -12.1317 H   0  0  0  0  0  0  0  0  0  0  0  0
   16.5753   40.6533  -10.8511 H   0  0  0  0  0  0  0  0  0  0  0  0
   18.8144   38.5211   -7.8412 H   0  0  0  0  0  0  0  0  0  0  0  0
   15.4948   39.9756   -8.9017 H   0  0  0  0  0  0  0  0  0  0  0  0
   16.7344   40.8322   -6.9330 H   0  0  0  0  0  0  0  0  0  0  0  0
   17.1935   39.1912   -6.4797 H   0  0  0  0  0  0  0  0  0  0  0  0
   15.5007   39.6776   -6.4446 H   0  0  0  0  0  0  0  0  0  0  0  0
   15.6822   37.5861   -9.5979 H   0  0  0  0  0  0  0  0  0  0  0  0
   14.7952   37.7853   -8.0875 H   0  0  0  0  0  0  0  0  0  0  0  0
   16.4537   37.1993   -8.0601 H   0  0  0  0  0  0  0  0  0  0  0  0
   24.8975   40.0261   -9.6464 H   0  0  0  0  0  0  0  0  0  0  0  0
   29.7992   41.5126  -10.5006 H   0  0  0  0  0  0  0  0  0  0  0  0
   28.7815   41.0013  -11.8382 H   0  0  0  0  0  0  0  0  0  0  0  0
   30.2891   43.1577  -14.2374 H   0  0  0  0  0  0  0  0  0  0  0  0
   28.7019   43.3543  -13.4935 H   0  0  0  0  0  0  0  0  0  0  0  0
   29.2513   41.7510  -14.0113 H   0  0  0  0  0  0  0  0  0  0  0  0
   23.2869   39.0057   -9.2909 H   0  0  0  0  0  0  0  0  0  0  0  0
  1  2  1  0  0  0  0
  1 42  1  0  0  0  0
  1 43  1  0  0  0  0
  1 44  1  0  0  0  0
  2 39  1  1  0  0  0
  2 21  1  0  0  0  0
  2  3  1  0  0  0  0
  3  4  1  0  0  0  0
  3 45  1  0  0  0  0
  3 46  1  0  0  0  0
  4  5  1  0  0  0  0
  4 47  1  0  0  0  0
  4 48  1  0  0  0  0
  5  6  1  0  0  0  0
  5 49  1  0  0  0  0
  5 50  1  0  0  0  0
  6  7  1  0  0  0  0
  6 51  1  0  0  0  0
  6 52  1  0  0  0  0
  7  8  1  0  0  0  0
  7 53  1  0  0  0  0
  7 54  1  0  0  0  0
  8  9  1  0  0  0  0
  8 55  1  0  0  0  0
  8 56  1  0  0  0  0
  9 10  1  0  0  0  0
  9 57  1  0  0  0  0
  9 58  1  0  0  0  0
 10 11  1  0  0  0  0
 10 59  1  0  0  0  0
 11 16  1  0  0  0  0
 11 12  2  0  0  0  0
 12 13  1  0  0  0  0
 12 60  1  0  0  0  0
 13 14  2  0  0  0  0
 13 36  1  0  0  0  0
 14 15  1  0  0  0  0
 14 61  1  0  0  0  0
 15 16  2  0  0  0  0
 15 17  1  0  0  0  0
 16 62  1  0  0  0  0
 17 18  2  0  0  0  0
 17 19  1  0  0  0  0
 19 20  1  0  0  0  0
 19 63  1  0  0  0  0
 20 40  1  1  0  0  0
 20 21  1  0  0  0  0
 20 22  1  0  0  0  0
 21 64  1  0  0  0  0
 21 65  1  0  0  0  0
 22 41  1  1  0  0  0
 22 23  1  0  0  0  0
 22 35  1  0  0  0  0
 23 24  1  0  0  0  0
 23 66  1  0  0  0  0
 23 67  1  0  0  0  0
 24 25  1  0  0  0  0
 24 68  1  0  0  0  0
 24 88  1  0  0  0  0
 25 26  1  0  0  0  0
 25 69  1  0  0  0  0
 25 70  1  0  0  0  0
 26 31  1  0  0  0  0
 26 27  2  0  0  0  0
 27 28  1  0  0  0  0
 27 71  1  0  0  0  0
 28 29  2  0  0  0  0
 28 72  1  0  0  0  0
 29 30  1  0  0  0  0
 29 73  1  0  0  0  0
 30 31  2  0  0  0  0
 30 32  1  0  0  0  0
 31 74  1  0  0  0  0
 32 33  1  0  0  0  0
 32 34  1  0  0  0  0
 32 75  1  0  0  0  0
 33 76  1  0  0  0  0
 33 77  1  0  0  0  0
 33 78  1  0  0  0  0
 34 79  1  0  0  0  0
 34 80  1  0  0  0  0
 34 81  1  0  0  0  0
 35 82  1  0  0  0  0
 36 37  1  0  0  0  0
 36 83  1  0  0  0  0
 36 84  1  0  0  0  0
 37 38  1  0  0  0  0
 38 85  1  0  0  0  0
 38 86  1  0  0  0  0
 38 87  1  0  0  0  0
M  CHG  1  24   1
M  END
>  <s_m_source_file>
BACE_9.smi

>  <i_m_source_file_index>
1

>  <i_lp_mmshare_version>
42013

>  <i_f3d_flags>
0

>  <s_epik_input>
W05IXTFbQ0gyXVtDSDJdW0NIMl1bQ0gyXVtDSDJdW0NIMl1bQ0gyXVtDQEBIXShbQ0gzXSlbQ0gyXVtDQEhdKFtOSF1DKD1PKWMoW2NIXTIpW2NIXWMoW2NIXWMxMilbQ0gyXU9bQ0gzXSlbQ0BIXShbT0hdKVtDSDJdW05IXVtDSDJdYzNbY0hdW2NIXVtjSF1jKFtjSF0zKVtDSF0oW0NIM10pW0NIM10=

>  <s_epik_cmdline>
J2VwaWtfcHl0aG9uJywgJy1waCcsICc3LjAnLCAnLXRuJywgJzgnLCAnLW1hJywgJzIwMCcsICctaW1hZScsICc8aW5maWxlLm1hZT4nLCAnLW9tYWUnLCAnPG91dGZpbGUubWFlPic=

>  <r_epik_Ionization_Penalty>
0.0171

>  <r_epik_Ionization_Penalty_Charging>
0.0165

>  <r_epik_Ionization_Penalty_Neutral>
0.0006

>  <r_epik_State_Penalty>
0.013

>  <r_epik_Charging_Adjusted_Penalty>
0.0295552

>  <i_epik_Tot_Q>
1

>  <i_epik_Tot_abs_Q>
1

>  <s_lp_Force_Field>
OPLS_2005

>  <r_lp_Energy>
38.0252

>  <b_lp_Chiralities_Consistent>
1

>  <s_lp_Variant>
BACE_9.smi:1-1

>  <chiral flag>
1

>  <version>
0

>  <r_i_glide_lipo>
-0.710728

>  <r_i_glide_hbond>
-0.0540132

>  <r_i_glide_metal>
-0

>  <r_i_glide_rewards>
-0.0401973

>  <r_i_glide_erotb>
0.448381

>  <r_i_glide_esite>
-0.0114061

>  <s_i_glide_gridfile>
second_dock_grid_2

>  <i_i_glide_lignum>
18

>  <i_i_glide_rotatable_bonds>
9

>  <r_i_docking_score>
0.0990213

>  <r_i_glide_ligand_efficiency>
0.00260582

>  <r_i_glide_ligand_efficiency_sa>
0.00876071

>  <r_i_glide_ligand_efficiency_ln>
0.0213519

>  <r_glide_XP_GScore>
0.0860213

>  <r_i_glide_gscore>
0.0860213

>  <r_i_glide_evdw>
-34.9484

>  <r_i_glide_ecoul>
-9.00506

>  <r_i_glide_energy>
-43.9535

>  <r_i_glide_einternal>
3.44917

>  <r_i_glide_emodel>
-62.0015

>  <r_glide_XP_HBond>
-0.7

>  <i_i_glide_confnum>
1

>  <i_i_glide_posenum>
41

>  <r_i_glide_eff_state_penalty>
0.013

>  <i_glide_XP_PoseRank>
9

>  <chiral flag>
1

$$$$
