BACE_13.smi:1
 OpenBabel10031817133D
Structure written by MMmdl.
 76 79  0  0  1  0  0  0  0  0999 V2000
   18.1231   43.4112  -13.1084 C   0  0  0  0  0  0  0  0  0  0  0  0
   16.8306   43.7830  -12.6660 O   0  0  0  0  0  0  0  0  0  0  0  0
   16.8537   44.5842  -11.4928 C   0  0  0  0  0  0  0  0  0  0  0  0
   17.3622   43.8218  -10.2832 C   0  0  0  0  0  0  0  0  0  0  0  0
   18.7374   43.8064   -9.9768 C   0  0  0  0  0  0  0  0  0  0  0  0
   19.2213   43.0270   -8.9030 C   0  0  0  0  0  0  0  0  0  0  0  0
   18.3024   42.3261   -8.0895 C   0  0  0  0  0  0  0  0  0  0  0  0
   16.9276   42.3311   -8.4010 C   0  0  0  0  0  0  0  0  0  0  0  0
   16.4627   43.0759   -9.5029 C   0  0  0  0  0  0  0  0  0  0  0  0
   16.0432   41.5696   -7.6379 N   0  0  0  0  0  0  0  0  0  0  0  0
   15.1869   40.6060   -8.3176 C   0  0  0  0  0  0  0  0  0  0  0  0
   15.9891   39.4948   -9.0237 C   0  0  0  0  0  0  0  0  0  0  0  0
   16.8046   38.6326   -8.0461 C   0  0  0  0  0  0  0  0  0  0  0  0
   17.6561   37.5619   -8.7495 C   0  0  0  0  0  0  0  0  0  0  0  0
   18.6812   38.1403   -9.5544 O   0  0  0  0  0  0  0  0  0  0  0  0
   19.8192   38.6495   -8.9548 C   0  0  0  0  0  0  0  0  0  0  0  0
   20.1069   38.5497   -7.5725 C   0  0  0  0  0  0  0  0  0  0  0  0
   21.3081   39.0730   -7.0514 C   0  0  0  0  0  0  0  0  0  0  0  0
   22.2200   39.7259   -7.8971 C   0  0  0  0  0  0  0  0  0  0  0  0
   21.9282   39.8729   -9.2676 C   0  0  0  0  0  0  0  0  0  0  0  0
   20.7434   39.3143   -9.7919 C   0  0  0  0  0  0  0  0  0  0  0  0
   22.8585   40.6886  -10.1508 C   0  0  0  0  0  0  0  0  0  0  0  0
   22.7978   42.2166   -9.8724 C   0  0  2  0  0  0  0  0  0  0  0  0
   21.4104   42.6771   -9.7816 N   0  0  0  0  0  0  0  0  0  0  0  0
   20.6950   42.8918   -8.6659 C   0  0  0  0  0  0  0  0  0  0  0  0
   21.1626   42.8754   -7.5276 O   0  0  0  0  0  0  0  0  0  0  0  0
   23.5451   43.0837  -10.9203 C   0  0  1  0  0  0  0  0  0  0  0  0
   25.0310   42.7165  -11.1561 C   0  0  1  0  0  0  0  0  0  0  0  0
   25.7510   43.6985  -12.1039 C   0  0  0  0  0  0  0  0  0  0  0  0
   27.0603   43.2100  -12.3817 O   0  0  0  0  0  0  0  0  0  0  0  0
   27.8706   43.0460  -11.2176 C   0  0  2  0  0  0  0  0  0  0  0  0
   27.1581   42.1669  -10.1646 C   0  0  0  0  0  0  0  0  0  0  0  0
   25.7906   42.6305   -9.9117 N   0  0  0  0  0  0  0  0  0  0  0  0
   28.3611   44.3949  -10.6553 C   0  0  0  0  0  0  0  0  0  0  0  0
   29.4147   44.2230   -9.7131 O   0  0  0  0  0  0  0  0  0  0  0  0
   30.6859   43.9797  -10.2961 C   0  0  0  0  0  0  0  0  0  0  0  0
   22.8720   42.9503  -12.1594 O   0  0  0  0  0  0  0  0  0  0  0  0
   23.2688   42.3916   -8.9039 H   0  0  0  0  0  0  0  0  0  0  0  0
   23.4834   44.1279  -10.6114 H   0  0  0  0  0  0  0  0  0  0  0  0
   25.0577   41.7425  -11.6311 H   0  0  0  0  0  0  0  0  0  0  0  0
   28.7398   42.4926  -11.5671 H   0  0  0  0  0  0  0  0  0  0  0  0
   18.0419   42.9451  -14.0813 H   0  0  0  0  0  0  0  0  0  0  0  0
   18.5948   42.6890  -12.4402 H   0  0  0  0  0  0  0  0  0  0  0  0
   18.7786   44.2778  -13.2088 H   0  0  0  0  0  0  0  0  0  0  0  0
   15.8385   44.9283  -11.2958 H   0  0  0  0  0  0  0  0  0  0  0  0
   17.4530   45.4821  -11.6492 H   0  0  0  0  0  0  0  0  0  0  0  0
   19.4266   44.3633  -10.5966 H   0  0  0  0  0  0  0  0  0  0  0  0
   18.6599   41.7323   -7.2586 H   0  0  0  0  0  0  0  0  0  0  0  0
   15.4107   43.0749   -9.7507 H   0  0  0  0  0  0  0  0  0  0  0  0
   16.3628   41.2786   -6.7202 H   0  0  0  0  0  0  0  0  0  0  0  0
   14.5397   41.1155   -9.0346 H   0  0  0  0  0  0  0  0  0  0  0  0
   14.5201   40.1586   -7.5774 H   0  0  0  0  0  0  0  0  0  0  0  0
   16.6439   39.9288   -9.7778 H   0  0  0  0  0  0  0  0  0  0  0  0
   15.2945   38.8521   -9.5670 H   0  0  0  0  0  0  0  0  0  0  0  0
   16.1193   38.1501   -7.3494 H   0  0  0  0  0  0  0  0  0  0  0  0
   17.4420   39.2684   -7.4328 H   0  0  0  0  0  0  0  0  0  0  0  0
   17.0129   36.9751   -9.4061 H   0  0  0  0  0  0  0  0  0  0  0  0
   18.0605   36.8442   -8.0370 H   0  0  0  0  0  0  0  0  0  0  0  0
   19.4325   38.0686   -6.8834 H   0  0  0  0  0  0  0  0  0  0  0  0
   21.5192   38.9790   -5.9958 H   0  0  0  0  0  0  0  0  0  0  0  0
   23.1252   40.1467   -7.4837 H   0  0  0  0  0  0  0  0  0  0  0  0
   20.5148   39.4176  -10.8433 H   0  0  0  0  0  0  0  0  0  0  0  0
   22.6112   40.4824  -11.1930 H   0  0  0  0  0  0  0  0  0  0  0  0
   23.8766   40.3278  -10.0094 H   0  0  0  0  0  0  0  0  0  0  0  0
   20.9152   42.7204  -10.6610 H   0  0  0  0  0  0  0  0  0  0  0  0
   25.7890   44.7037  -11.6846 H   0  0  0  0  0  0  0  0  0  0  0  0
   25.2171   43.7705  -13.0534 H   0  0  0  0  0  0  0  0  0  0  0  0
   27.7350   42.1529   -9.2402 H   0  0  0  0  0  0  0  0  0  0  0  0
   27.1316   41.1355  -10.5249 H   0  0  0  0  0  0  0  0  0  0  0  0
   25.3369   41.9840   -9.2741 H   0  0  0  0  0  0  0  0  0  0  0  0
   28.6774   45.0567  -11.4613 H   0  0  0  0  0  0  0  0  0  0  0  0
   27.5442   44.9042  -10.1446 H   0  0  0  0  0  0  0  0  0  0  0  0
   31.4395   43.9236   -9.5084 H   0  0  0  0  0  0  0  0  0  0  0  0
   30.9765   44.7856  -10.9718 H   0  0  0  0  0  0  0  0  0  0  0  0
   30.7169   43.0363  -10.8422 H   0  0  0  0  0  0  0  0  0  0  0  0
   23.1271   42.1186  -12.5419 H   0  0  0  0  0  0  0  0  0  0  0  0
  1  2  1  0  0  0  0
  1 42  1  0  0  0  0
  1 43  1  0  0  0  0
  1 44  1  0  0  0  0
  2  3  1  0  0  0  0
  3  4  1  0  0  0  0
  3 45  1  0  0  0  0
  3 46  1  0  0  0  0
  4  9  1  0  0  0  0
  4  5  2  0  0  0  0
  5  6  1  0  0  0  0
  5 47  1  0  0  0  0
  6 25  1  0  0  0  0
  6  7  2  0  0  0  0
  7  8  1  0  0  0  0
  7 48  1  0  0  0  0
  8  9  2  0  0  0  0
  8 10  1  0  0  0  0
  9 49  1  0  0  0  0
 10 11  1  0  0  0  0
 10 50  1  0  0  0  0
 11 12  1  0  0  0  0
 11 51  1  0  0  0  0
 11 52  1  0  0  0  0
 12 13  1  0  0  0  0
 12 53  1  0  0  0  0
 12 54  1  0  0  0  0
 13 14  1  0  0  0  0
 13 55  1  0  0  0  0
 13 56  1  0  0  0  0
 14 15  1  0  0  0  0
 14 57  1  0  0  0  0
 14 58  1  0  0  0  0
 15 16  1  0  0  0  0
 16 21  1  0  0  0  0
 16 17  2  0  0  0  0
 17 18  1  0  0  0  0
 17 59  1  0  0  0  0
 18 19  2  0  0  0  0
 18 60  1  0  0  0  0
 19 20  1  0  0  0  0
 19 61  1  0  0  0  0
 20 21  2  0  0  0  0
 20 22  1  0  0  0  0
 21 62  1  0  0  0  0
 22 23  1  0  0  0  0
 22 63  1  0  0  0  0
 22 64  1  0  0  0  0
 23 38  1  1  0  0  0
 23 24  1  0  0  0  0
 23 27  1  0  0  0  0
 24 25  1  0  0  0  0
 24 65  1  0  0  0  0
 25 26  2  0  0  0  0
 27 39  1  1  0  0  0
 27 28  1  0  0  0  0
 27 37  1  0  0  0  0
 28 40  1  6  0  0  0
 28 33  1  0  0  0  0
 28 29  1  0  0  0  0
 29 30  1  0  0  0  0
 29 66  1  0  0  0  0
 29 67  1  0  0  0  0
 30 31  1  0  0  0  0
 31 41  1  6  0  0  0
 31 32  1  0  0  0  0
 31 34  1  0  0  0  0
 32 33  1  0  0  0  0
 32 68  1  0  0  0  0
 32 69  1  0  0  0  0
 33 70  1  0  0  0  0
 34 35  1  0  0  0  0
 34 71  1  0  0  0  0
 34 72  1  0  0  0  0
 35 36  1  0  0  0  0
 36 73  1  0  0  0  0
 36 74  1  0  0  0  0
 36 75  1  0  0  0  0
 37 76  1  0  0  0  0
M  END
>  <s_m_source_file>
BACE_13.smi

>  <i_m_source_file_index>
1

>  <i_lp_mmshare_version>
42013

>  <i_f3d_flags>
0

>  <s_epik_input>
W0NIM11PW0NIMl1jKFtjSF1jMTIpW2NIXWMoW2NIXTEpW05IXVtDSDJdW0NIMl1bQ0gyXVtDSDJdT2MzW2NIXVtjSF1bY0hdYyhbY0hdMylbQ0gyXVtDQEhdKFtOSF1DMj1PKVtDQEhdKFtPSF0pW0NASF00W0NIMl1PW0NASF0oW0NIMl1bTkhdNClbQ0gyXU9bQ0gzXQ==

>  <s_epik_cmdline>
J2VwaWtfcHl0aG9uJywgJy1waCcsICc3LjAnLCAnLXRuJywgJzgnLCAnLW1hJywgJzIwMCcsICctaW1hZScsICc8aW5maWxlLm1hZT4nLCAnLW9tYWUnLCAnPG91dGZpbGUubWFlPic=

>  <r_lp_tautomer_probability>
1

>  <r_epik_Ionization_Penalty>
1.0247

>  <r_epik_Ionization_Penalty_Charging>
0

>  <r_epik_Ionization_Penalty_Neutral>
1.0247

>  <r_epik_State_Penalty>
1.0749

>  <r_epik_Charging_Adjusted_Penalty>
1.07494

>  <i_epik_Tot_Q>
0

>  <i_epik_Tot_abs_Q>
0

>  <s_lp_Force_Field>
OPLS_2005

>  <r_lp_Energy>
44.7965

>  <b_lp_Chiralities_Consistent>
1

>  <s_lp_Variant>
BACE_13.smi:1-2

>  <chiral flag>
1

>  <version>
0

>  <r_i_glide_lipo>
-0.805819

>  <r_i_glide_hbond>
-0.734486

>  <r_i_glide_metal>
-0

>  <r_i_glide_rewards>
0

>  <r_i_glide_erotb>
0.310939

>  <r_i_glide_esite>
-0.00333392

>  <s_i_glide_gridfile>
second_dock_grid_2

>  <i_i_glide_lignum>
27

>  <i_i_glide_rotatable_bonds>
7

>  <r_i_docking_score>
-3.34507

>  <r_i_glide_ligand_efficiency>
-0.0904073

>  <r_i_glide_ligand_efficiency_sa>
-0.301257

>  <r_i_glide_ligand_efficiency_ln>
-0.725467

>  <r_glide_XP_GScore>
-4.41997

>  <r_i_glide_gscore>
-4.41997

>  <r_i_glide_evdw>
-37.0707

>  <r_i_glide_ecoul>
-8.99603

>  <r_i_glide_energy>
-46.0668

>  <r_i_glide_einternal>
2.44221

>  <r_i_glide_emodel>
-62.2134

>  <r_glide_XP_HBond>
-1.52948

>  <i_i_glide_confnum>
1

>  <i_i_glide_posenum>
2

>  <r_i_glide_eff_state_penalty>
1.0749

>  <i_glide_XP_PoseRank>
2

>  <chiral flag>
1

$$$$
