BACE_12.smi:1
 OpenBabel10031817133D
Structure written by MMmdl.
 78 81  0  0  1  0  0  0  0  0999 V2000
   31.4851   42.3165  -12.4317 C   0  0  0  0  0  0  0  0  0  0  0  0
   30.1341   42.0188  -13.1030 C   0  0  0  0  0  0  0  0  0  0  0  0
   30.1842   42.3067  -14.6120 C   0  0  0  0  0  0  0  0  0  0  0  0
   28.9953   42.7527  -12.4101 C   0  0  0  0  0  0  0  0  0  0  0  0
   28.9147   44.1628  -12.4485 C   0  0  0  0  0  0  0  0  0  0  0  0
   27.8593   44.8309  -11.7962 C   0  0  0  0  0  0  0  0  0  0  0  0
   26.8828   44.0954  -11.0954 C   0  0  0  0  0  0  0  0  0  0  0  0
   26.9528   42.6869  -11.0475 C   0  0  0  0  0  0  0  0  0  0  0  0
   28.0122   42.0265  -11.7042 C   0  0  0  0  0  0  0  0  0  0  0  0
   25.8952   41.8890  -10.3057 C   0  0  0  0  0  0  0  0  0  0  0  0
   24.5649   42.1524  -10.8399 N   0  0  0  0  0  0  0  0  0  0  0  0
   23.5111   41.3443  -10.2397 C   0  0  0  0  0  0  0  0  0  0  0  0
   22.1160   41.8225  -10.6966 C   0  0  2  0  0  0  0  0  0  0  0  0
   20.9919   41.2786   -9.7836 C   0  0  2  0  0  0  0  0  0  0  0  0
   20.9033   39.7318   -9.7839 C   0  0  0  0  0  0  0  0  0  0  0  0
   19.7876   39.2122   -8.9026 C   0  0  0  0  0  0  0  0  0  0  0  0
   19.8980   39.3509   -7.5037 C   0  0  0  0  0  0  0  0  0  0  0  0
   18.8385   38.9505   -6.6733 C   0  0  0  0  0  0  0  0  0  0  0  0
   17.6704   38.4198   -7.2414 C   0  0  0  0  0  0  0  0  0  0  0  0
   17.5654   38.2275   -8.6329 C   0  0  0  0  0  0  0  0  0  0  0  0
   18.6304   38.6324   -9.4667 C   0  0  0  0  0  0  0  0  0  0  0  0
   16.3088   37.5925   -9.2096 C   0  0  0  0  0  0  0  0  0  0  0  0
   15.0968   38.5406   -9.2165 C   0  0  0  0  0  0  0  0  0  0  0  0
   15.1950   39.6706  -10.2538 C   0  0  0  0  0  0  0  0  0  0  0  0
   14.4493   40.9314   -9.7925 C   0  0  0  0  0  0  0  0  0  0  0  0
   14.5082   42.0169  -10.7617 N   0  0  0  0  0  0  0  0  0  0  0  0
   15.6176   42.8642  -10.8407 C   0  0  0  0  0  0  0  0  0  0  0  0
   16.8706   42.5623  -10.2638 C   0  0  0  0  0  0  0  0  0  0  0  0
   17.9457   43.4486  -10.4743 C   0  0  0  0  0  0  0  0  0  0  0  0
   17.7098   44.6361  -11.1923 C   0  0  0  0  0  0  0  0  0  0  0  0
   16.4180   44.8671  -11.7157 C   0  0  0  0  0  0  0  0  0  0  0  0
   15.4070   43.9887  -11.5542 N   0  0  0  0  0  0  0  0  0  0  0  0
   16.0547   45.9731  -12.4533 O   0  0  0  0  0  0  0  0  0  0  0  0
   17.0671   46.9255  -12.7538 C   0  0  0  0  0  0  0  0  0  0  0  0
   19.3119   43.1369   -9.9450 C   0  0  0  0  0  0  0  0  0  0  0  0
   20.0305   44.0173   -9.4701 O   0  0  0  0  0  0  0  0  0  0  0  0
   19.6928   41.8622  -10.1185 N   0  0  0  0  0  0  0  0  0  0  0  0
   21.8587   41.3909  -12.0208 O   0  0  0  0  0  0  0  0  0  0  0  0
   22.1074   42.9126  -10.6815 H   0  0  0  0  0  0  0  0  0  0  0  0
   21.2194   41.5963   -8.7647 H   0  0  0  0  0  0  0  0  0  0  0  0
   31.4602   42.0565  -11.3734 H   0  0  0  0  0  0  0  0  0  0  0  0
   31.7450   43.3719  -12.5130 H   0  0  0  0  0  0  0  0  0  0  0  0
   32.2907   41.7482  -12.8945 H   0  0  0  0  0  0  0  0  0  0  0  0
   29.9498   40.9496  -12.9974 H   0  0  0  0  0  0  0  0  0  0  0  0
   29.2592   42.0025  -15.0982 H   0  0  0  0  0  0  0  0  0  0  0  0
   30.9910   41.7475  -15.0901 H   0  0  0  0  0  0  0  0  0  0  0  0
   30.3463   43.3655  -14.8213 H   0  0  0  0  0  0  0  0  0  0  0  0
   29.6624   44.7350  -12.9769 H   0  0  0  0  0  0  0  0  0  0  0  0
   27.8017   45.9086  -11.8303 H   0  0  0  0  0  0  0  0  0  0  0  0
   26.0746   44.6105  -10.5976 H   0  0  0  0  0  0  0  0  0  0  0  0
   28.0702   40.9488  -11.6683 H   0  0  0  0  0  0  0  0  0  0  0  0
   26.1297   40.8250  -10.3729 H   0  0  0  0  0  0  0  0  0  0  0  0
   25.9322   42.1546   -9.2455 H   0  0  0  0  0  0  0  0  0  0  0  0
   24.5788   41.9559  -11.8391 H   0  0  0  0  0  0  0  0  0  0  0  0
   23.6578   40.2886  -10.4695 H   0  0  0  0  0  0  0  0  0  0  0  0
   23.5701   41.4352   -9.1552 H   0  0  0  0  0  0  0  0  0  0  0  0
   20.7561   39.3564  -10.7971 H   0  0  0  0  0  0  0  0  0  0  0  0
   21.8372   39.2921   -9.4325 H   0  0  0  0  0  0  0  0  0  0  0  0
   20.7784   39.7946   -7.0614 H   0  0  0  0  0  0  0  0  0  0  0  0
   18.9025   39.0825   -5.6050 H   0  0  0  0  0  0  0  0  0  0  0  0
   16.8534   38.1510   -6.5910 H   0  0  0  0  0  0  0  0  0  0  0  0
   18.5466   38.5135  -10.5372 H   0  0  0  0  0  0  0  0  0  0  0  0
   16.5085   37.2106  -10.2113 H   0  0  0  0  0  0  0  0  0  0  0  0
   16.0717   36.7227   -8.5958 H   0  0  0  0  0  0  0  0  0  0  0  0
   14.1856   37.9705   -9.4050 H   0  0  0  0  0  0  0  0  0  0  0  0
   14.9752   38.9534   -8.2125 H   0  0  0  0  0  0  0  0  0  0  0  0
   16.2398   39.8946  -10.4458 H   0  0  0  0  0  0  0  0  0  0  0  0
   14.7944   39.3452  -11.2125 H   0  0  0  0  0  0  0  0  0  0  0  0
   13.3965   40.6878   -9.6406 H   0  0  0  0  0  0  0  0  0  0  0  0
   14.8291   41.2757   -8.8287 H   0  0  0  0  0  0  0  0  0  0  0  0
   13.6216   42.4041  -11.0468 H   0  0  0  0  0  0  0  0  0  0  0  0
   17.0250   41.6777   -9.6697 H   0  0  0  0  0  0  0  0  0  0  0  0
   18.5257   45.3314  -11.3360 H   0  0  0  0  0  0  0  0  0  0  0  0
   16.6450   47.7157  -13.3763 H   0  0  0  0  0  0  0  0  0  0  0  0
   17.8921   46.4721  -13.3098 H   0  0  0  0  0  0  0  0  0  0  0  0
   17.4553   47.3893  -11.8436 H   0  0  0  0  0  0  0  0  0  0  0  0
   19.0230   41.2366  -10.5398 H   0  0  0  0  0  0  0  0  0  0  0  0
   22.6902   41.1905  -12.4423 H   0  0  0  0  0  0  0  0  0  0  0  0
  1  2  1  0  0  0  0
  1 41  1  0  0  0  0
  1 42  1  0  0  0  0
  1 43  1  0  0  0  0
  2  3  1  0  0  0  0
  2  4  1  0  0  0  0
  2 44  1  0  0  0  0
  3 45  1  0  0  0  0
  3 46  1  0  0  0  0
  3 47  1  0  0  0  0
  4  9  1  0  0  0  0
  4  5  2  0  0  0  0
  5  6  1  0  0  0  0
  5 48  1  0  0  0  0
  6  7  2  0  0  0  0
  6 49  1  0  0  0  0
  7  8  1  0  0  0  0
  7 50  1  0  0  0  0
  8  9  2  0  0  0  0
  8 10  1  0  0  0  0
  9 51  1  0  0  0  0
 10 11  1  0  0  0  0
 10 52  1  0  0  0  0
 10 53  1  0  0  0  0
 11 12  1  0  0  0  0
 11 54  1  0  0  0  0
 12 13  1  0  0  0  0
 12 55  1  0  0  0  0
 12 56  1  0  0  0  0
 13 39  1  1  0  0  0
 13 14  1  0  0  0  0
 13 38  1  0  0  0  0
 14 40  1  1  0  0  0
 14 37  1  0  0  0  0
 14 15  1  0  0  0  0
 15 16  1  0  0  0  0
 15 57  1  0  0  0  0
 15 58  1  0  0  0  0
 16 21  1  0  0  0  0
 16 17  2  0  0  0  0
 17 18  1  0  0  0  0
 17 59  1  0  0  0  0
 18 19  2  0  0  0  0
 18 60  1  0  0  0  0
 19 20  1  0  0  0  0
 19 61  1  0  0  0  0
 20 21  2  0  0  0  0
 20 22  1  0  0  0  0
 21 62  1  0  0  0  0
 22 23  1  0  0  0  0
 22 63  1  0  0  0  0
 22 64  1  0  0  0  0
 23 24  1  0  0  0  0
 23 65  1  0  0  0  0
 23 66  1  0  0  0  0
 24 25  1  0  0  0  0
 24 67  1  0  0  0  0
 24 68  1  0  0  0  0
 25 26  1  0  0  0  0
 25 69  1  0  0  0  0
 25 70  1  0  0  0  0
 26 27  1  0  0  0  0
 26 71  1  0  0  0  0
 27 32  1  0  0  0  0
 27 28  2  0  0  0  0
 28 29  1  0  0  0  0
 28 72  1  0  0  0  0
 29 30  2  0  0  0  0
 29 35  1  0  0  0  0
 30 31  1  0  0  0  0
 30 73  1  0  0  0  0
 31 32  2  0  0  0  0
 31 33  1  0  0  0  0
 33 34  1  0  0  0  0
 34 74  1  0  0  0  0
 34 75  1  0  0  0  0
 34 76  1  0  0  0  0
 35 36  2  0  0  0  0
 35 37  1  0  0  0  0
 37 77  1  0  0  0  0
 38 78  1  0  0  0  0
M  END
>  <s_m_source_file>
BACE_12.smi

>  <i_m_source_file_index>
1

>  <i_lp_mmshare_version>
42013

>  <i_f3d_flags>
0

>  <s_epik_input>
W0NIM11bQ0hdKFtDSDNdKWMxW2NIXVtjSF1bY0hdYyhbY0hdMSlbQ0gyXVtOSF1bQ0gyXVtDQEBIXShbT0hdKVtDQEhdKFtDSDJdMilbTkhdQyg9TyljKFtjSF1jKG4zKU9bQ0gzXSlbY0hdYzNbTkhdW0NIMl1bQ0gyXVtDSDJdW0NIMl1jKFtjSF00KVtjSF1bY0hdW2NIXWMyNA==

>  <s_epik_cmdline>
J2VwaWtfcHl0aG9uJywgJy1waCcsICc3LjAnLCAnLXRuJywgJzgnLCAnLW1hJywgJzIwMCcsICctaW1hZScsICc8aW5maWxlLm1hZT4nLCAnLW9tYWUnLCAnPG91dGZpbGUubWFlPic=

>  <r_lp_tautomer_probability>
1

>  <r_epik_Ionization_Penalty>
2.0161

>  <r_epik_Ionization_Penalty_Charging>
0

>  <r_epik_Ionization_Penalty_Neutral>
2.0161

>  <r_epik_State_Penalty>
2.146

>  <r_epik_Charging_Adjusted_Penalty>
2.14597

>  <i_epik_Tot_Q>
0

>  <i_epik_Tot_abs_Q>
0

>  <s_lp_Force_Field>
OPLS_2005

>  <r_lp_Energy>
24.9256

>  <b_lp_Chiralities_Consistent>
1

>  <s_lp_Variant>
BACE_12.smi:1-2

>  <chiral flag>
1

>  <version>
0

>  <r_i_glide_lipo>
-0.570191

>  <r_i_glide_hbond>
-0.212313

>  <r_i_glide_metal>
-0

>  <r_i_glide_rewards>
0

>  <r_i_glide_erotb>
0.384471

>  <r_i_glide_esite>
-0.149714

>  <s_i_glide_gridfile>
second_dock_grid_2

>  <i_i_glide_lignum>
25

>  <i_i_glide_rotatable_bonds>
8

>  <r_i_docking_score>
-0.678812

>  <r_i_glide_ligand_efficiency>
-0.0178635

>  <r_i_glide_ligand_efficiency_sa>
-0.0600565

>  <r_i_glide_ligand_efficiency_ln>
-0.146372

>  <r_glide_XP_GScore>
-2.82481

>  <r_i_glide_gscore>
-2.82481

>  <r_i_glide_evdw>
-38.8787

>  <r_i_glide_ecoul>
-12.5546

>  <r_i_glide_energy>
-51.4333

>  <r_i_glide_einternal>
7.82794

>  <r_i_glide_emodel>
-70.6

>  <r_glide_XP_HBond>
-1.26699

>  <i_i_glide_confnum>
1

>  <i_i_glide_posenum>
1

>  <r_i_glide_eff_state_penalty>
2.146

>  <i_glide_XP_PoseRank>
4

>  <chiral flag>
1

$$$$
