BACE_20.smi:1
 OpenBabel10031817133D
Structure written by MMmdl.
 78 79  0  0  1  0  0  0  0  0999 V2000
   23.1102   46.5020  -16.2907 C   0  0  0  0  0  0  0  0  0  0  0  0
   23.4762   46.7836  -14.8288 C   0  0  0  0  0  0  0  0  0  0  0  0
   24.6835   45.9651  -14.3540 C   0  0  0  0  0  0  0  0  0  0  0  0
   25.0985   46.3095  -12.9180 C   0  0  0  0  0  0  0  0  0  0  0  0
   26.2474   45.5272  -12.4849 N   0  0  0  0  0  0  0  0  0  0  0  0
   26.1149   44.2413  -11.9475 C   0  0  0  0  0  0  0  0  0  0  0  0
   24.9443   43.7803  -11.3105 C   0  0  0  0  0  0  0  0  0  0  0  0
   24.9358   42.4902  -10.7338 C   0  0  0  0  0  0  0  0  0  0  0  0
   26.1080   41.7062  -10.8399 C   0  0  0  0  0  0  0  0  0  0  0  0
   27.2211   42.2410  -11.5181 C   0  0  0  0  0  0  0  0  0  0  0  0
   27.2220   43.4852  -12.0541 N   0  0  0  0  0  0  0  0  0  0  0  0
   28.3633   41.4793  -11.6392 O   0  0  0  0  0  0  0  0  0  0  0  0
   29.4630   42.0255  -12.3597 C   0  0  0  0  0  0  0  0  0  0  0  0
   23.7012   41.9927  -10.0339 C   0  0  0  0  0  0  0  0  0  0  0  0
   22.5996   42.4738  -10.3000 O   0  0  0  0  0  0  0  0  0  0  0  0
   23.9054   41.1170   -9.0322 N   0  0  0  0  0  0  0  0  0  0  0  0
   22.9488   40.7517   -7.9731 C   0  0  1  0  0  0  0  0  0  0  0  0
   22.6549   42.0430   -7.1465 C   0  0  0  0  0  0  0  0  0  0  0  0
   22.0229   41.9172   -5.7652 C   0  0  0  0  0  0  0  0  0  0  0  0
   22.4614   40.9535   -4.8297 C   0  0  0  0  0  0  0  0  0  0  0  0
   21.8916   40.8951   -3.5454 C   0  0  0  0  0  0  0  0  0  0  0  0
   20.8876   41.8082   -3.1715 C   0  0  0  0  0  0  0  0  0  0  0  0
   20.4602   42.7841   -4.0883 C   0  0  0  0  0  0  0  0  0  0  0  0
   21.0239   42.8379   -5.3782 C   0  0  0  0  0  0  0  0  0  0  0  0
   21.6861   40.0207   -8.5398 C   0  0  2  0  0  0  0  0  0  0  0  0
   20.9026   39.1921   -7.4836 C   0  0  0  0  0  0  0  0  0  0  0  0
   19.3543   39.2598   -7.5046 C   0  0  1  0  0  0  0  0  0  0  0  0
   18.7961   40.6928   -7.5715 C   0  0  0  0  0  0  0  0  0  0  0  0
   18.6958   38.4020   -8.5903 C   0  0  0  0  0  0  0  0  0  0  0  0
   19.1013   38.4252   -9.7511 O   0  0  0  0  0  0  0  0  0  0  0  0
   17.6180   37.7016   -8.2051 N   0  0  0  0  0  0  0  0  0  0  0  0
   16.6659   37.0666   -9.1055 C   0  0  0  0  0  0  0  0  0  0  0  0
   15.4471   37.9730   -9.3735 C   0  0  0  0  0  0  0  0  0  0  0  0
   15.7934   39.3488   -9.9756 C   0  0  0  0  0  0  0  0  0  0  0  0
   14.5639   40.1731  -10.3717 C   0  0  0  0  0  0  0  0  0  0  0  0
   22.0598   39.1407   -9.5867 O   0  0  0  0  0  0  0  0  0  0  0  0
   23.4987   40.0455   -7.3517 H   0  0  0  0  0  0  0  0  0  0  0  0
   21.0371   40.7661   -8.9927 H   0  0  0  0  0  0  0  0  0  0  0  0
   19.0353   38.8457   -6.5454 H   0  0  0  0  0  0  0  0  0  0  0  0
   22.2424   47.0867  -16.5928 H   0  0  0  0  0  0  0  0  0  0  0  0
   22.8668   45.4497  -16.4402 H   0  0  0  0  0  0  0  0  0  0  0  0
   23.9310   46.7529  -16.9618 H   0  0  0  0  0  0  0  0  0  0  0  0
   22.6168   46.5656  -14.1918 H   0  0  0  0  0  0  0  0  0  0  0  0
   23.6833   47.8484  -14.7116 H   0  0  0  0  0  0  0  0  0  0  0  0
   25.5262   46.1535  -15.0178 H   0  0  0  0  0  0  0  0  0  0  0  0
   24.4607   44.9000  -14.4277 H   0  0  0  0  0  0  0  0  0  0  0  0
   24.2585   46.2021  -12.2341 H   0  0  0  0  0  0  0  0  0  0  0  0
   25.3827   47.3617  -12.8720 H   0  0  0  0  0  0  0  0  0  0  0  0
   27.1366   45.7325  -12.9147 H   0  0  0  0  0  0  0  0  0  0  0  0
   24.0640   44.3986  -11.2279 H   0  0  0  0  0  0  0  0  0  0  0  0
   26.1600   40.7020  -10.4448 H   0  0  0  0  0  0  0  0  0  0  0  0
   30.3036   41.3341  -12.3331 H   0  0  0  0  0  0  0  0  0  0  0  0
   29.8054   42.9643  -11.9212 H   0  0  0  0  0  0  0  0  0  0  0  0
   29.2014   42.1937  -13.4051 H   0  0  0  0  0  0  0  0  0  0  0  0
   24.8465   40.7656   -8.9307 H   0  0  0  0  0  0  0  0  0  0  0  0
   23.5897   42.5816   -6.9875 H   0  0  0  0  0  0  0  0  0  0  0  0
   22.0308   42.7099   -7.7434 H   0  0  0  0  0  0  0  0  0  0  0  0
   23.2413   40.2528   -5.0856 H   0  0  0  0  0  0  0  0  0  0  0  0
   22.2310   40.1510   -2.8407 H   0  0  0  0  0  0  0  0  0  0  0  0
   20.4496   41.7645   -2.1849 H   0  0  0  0  0  0  0  0  0  0  0  0
   19.6960   43.4907   -3.8032 H   0  0  0  0  0  0  0  0  0  0  0  0
   20.6869   43.5952   -6.0694 H   0  0  0  0  0  0  0  0  0  0  0  0
   21.2036   39.4944   -6.4891 H   0  0  0  0  0  0  0  0  0  0  0  0
   21.2181   38.1501   -7.5263 H   0  0  0  0  0  0  0  0  0  0  0  0
   19.2964   41.3409   -6.8567 H   0  0  0  0  0  0  0  0  0  0  0  0
   17.7358   40.7059   -7.3155 H   0  0  0  0  0  0  0  0  0  0  0  0
   18.8943   41.1367   -8.5627 H   0  0  0  0  0  0  0  0  0  0  0  0
   17.3550   37.6982   -7.2268 H   0  0  0  0  0  0  0  0  0  0  0  0
   16.3320   36.1410   -8.6357 H   0  0  0  0  0  0  0  0  0  0  0  0
   17.1463   36.7814  -10.0402 H   0  0  0  0  0  0  0  0  0  0  0  0
   14.8952   38.1222   -8.4436 H   0  0  0  0  0  0  0  0  0  0  0  0
   14.7738   37.4399  -10.0400 H   0  0  0  0  0  0  0  0  0  0  0  0
   16.4453   39.2271  -10.8403 H   0  0  0  0  0  0  0  0  0  0  0  0
   16.3590   39.9253   -9.2467 H   0  0  0  0  0  0  0  0  0  0  0  0
   14.8512   41.1926  -10.6269 H   0  0  0  0  0  0  0  0  0  0  0  0
   13.8432   40.2260   -9.5540 H   0  0  0  0  0  0  0  0  0  0  0  0
   14.0599   39.7497  -11.2375 H   0  0  0  0  0  0  0  0  0  0  0  0
   22.8152   38.6352   -9.3193 H   0  0  0  0  0  0  0  0  0  0  0  0
  1  2  1  0  0  0  0
  1 40  1  0  0  0  0
  1 41  1  0  0  0  0
  1 42  1  0  0  0  0
  2  3  1  0  0  0  0
  2 43  1  0  0  0  0
  2 44  1  0  0  0  0
  3  4  1  0  0  0  0
  3 45  1  0  0  0  0
  3 46  1  0  0  0  0
  4  5  1  0  0  0  0
  4 47  1  0  0  0  0
  4 48  1  0  0  0  0
  5  6  1  0  0  0  0
  5 49  1  0  0  0  0
  6 11  1  0  0  0  0
  6  7  2  0  0  0  0
  7  8  1  0  0  0  0
  7 50  1  0  0  0  0
  8  9  2  0  0  0  0
  8 14  1  0  0  0  0
  9 10  1  0  0  0  0
  9 51  1  0  0  0  0
 10 11  2  0  0  0  0
 10 12  1  0  0  0  0
 12 13  1  0  0  0  0
 13 52  1  0  0  0  0
 13 53  1  0  0  0  0
 13 54  1  0  0  0  0
 14 15  2  0  0  0  0
 14 16  1  0  0  0  0
 16 17  1  0  0  0  0
 16 55  1  0  0  0  0
 17 37  1  1  0  0  0
 17 18  1  0  0  0  0
 17 25  1  0  0  0  0
 18 19  1  0  0  0  0
 18 56  1  0  0  0  0
 18 57  1  0  0  0  0
 19 24  1  0  0  0  0
 19 20  2  0  0  0  0
 20 21  1  0  0  0  0
 20 58  1  0  0  0  0
 21 22  2  0  0  0  0
 21 59  1  0  0  0  0
 22 23  1  0  0  0  0
 22 60  1  0  0  0  0
 23 24  2  0  0  0  0
 23 61  1  0  0  0  0
 24 62  1  0  0  0  0
 25 38  1  6  0  0  0
 25 26  1  0  0  0  0
 25 36  1  0  0  0  0
 26 27  1  0  0  0  0
 26 63  1  0  0  0  0
 26 64  1  0  0  0  0
 27 39  1  1  0  0  0
 27 28  1  0  0  0  0
 27 29  1  0  0  0  0
 28 65  1  0  0  0  0
 28 66  1  0  0  0  0
 28 67  1  0  0  0  0
 29 30  2  0  0  0  0
 29 31  1  0  0  0  0
 31 32  1  0  0  0  0
 31 68  1  0  0  0  0
 32 33  1  0  0  0  0
 32 69  1  0  0  0  0
 32 70  1  0  0  0  0
 33 34  1  0  0  0  0
 33 71  1  0  0  0  0
 33 72  1  0  0  0  0
 34 35  1  0  0  0  0
 34 73  1  0  0  0  0
 34 74  1  0  0  0  0
 35 75  1  0  0  0  0
 35 76  1  0  0  0  0
 35 77  1  0  0  0  0
 36 78  1  0  0  0  0
M  END
>  <s_m_source_file>
BACE_20.smi

>  <i_m_source_file_index>
1

>  <i_lp_mmshare_version>
42013

>  <i_f3d_flags>
0

>  <s_epik_input>
W0NIM11bQ0gyXVtDSDJdW0NIMl1bTkhdYzFbY0hdYyhbY0hdYyhuMSlPW0NIM10pQyg9TylbTkhdW0NAQEhdKFtDSDJdYzJbY0hdW2NIXVtjSF1bY0hdW2NIXTIpW0NAQEhdKFtPSF0pW0NIMl1bQ0BASF0oW0NIM10pQyg9TylbTkhdW0NIMl1bQ0gyXVtDSDJdW0NIM10=

>  <s_epik_cmdline>
J2VwaWtfcHl0aG9uJywgJy1waCcsICc3LjAnLCAnLXRuJywgJzgnLCAnLW1hJywgJzIwMCcsICctaW1hZScsICc8aW5maWxlLm1hZT4nLCAnLW9tYWUnLCAnPG91dGZpbGUubWFlPic=

>  <r_lp_tautomer_probability>
1

>  <r_epik_Ionization_Penalty>
0

>  <r_epik_Ionization_Penalty_Charging>
0

>  <r_epik_Ionization_Penalty_Neutral>
0

>  <r_epik_State_Penalty>
-0

>  <r_epik_Charging_Adjusted_Penalty>
0

>  <i_epik_Tot_Q>
0

>  <i_epik_Tot_abs_Q>
0

>  <s_lp_Force_Field>
OPLS_2005

>  <r_lp_Energy>
20.6133

>  <b_lp_Chiralities_Consistent>
1

>  <s_lp_Variant>
BACE_20.smi:1-1

>  <chiral flag>
1

>  <version>
0

>  <r_i_glide_lipo>
-0.356177

>  <r_i_glide_hbond>
-0.618841

>  <r_i_glide_metal>
-0

>  <r_i_glide_rewards>
-0.170657

>  <r_i_glide_erotb>
1.14898

>  <r_i_glide_esite>
-0.0668184

>  <s_i_glide_gridfile>
second_dock_grid_2

>  <i_i_glide_lignum>
37

>  <i_i_glide_rotatable_bonds>
19

>  <r_i_docking_score>
-3.7218

>  <r_i_glide_ligand_efficiency>
-0.103383

>  <r_i_glide_ligand_efficiency_sa>
-0.341364

>  <r_i_glide_ligand_efficiency_ln>
-0.811996

>  <r_glide_XP_GScore>
-3.7218

>  <r_i_glide_gscore>
-3.7218

>  <r_i_glide_evdw>
-47.3894

>  <r_i_glide_ecoul>
-3.00585

>  <r_i_glide_energy>
-50.3952

>  <r_i_glide_einternal>
9.10273

>  <r_i_glide_emodel>
-69.0142

>  <r_glide_XP_HBond>
-1.25393

>  <i_i_glide_confnum>
1

>  <i_i_glide_posenum>
14

>  <r_i_glide_eff_state_penalty>
-0

>  <i_glide_XP_PoseRank>
9

>  <chiral flag>
1

$$$$
