BACE_9.smi:1
 OpenBabel10031817133D
Structure written by MMmdl.
 87 89  0  0  1  0  0  0  0  0999 V2000
   26.4903   42.4838  -11.7785 C   0  0  0  0  0  0  0  0  0  0  0  0
   25.6040   42.7613  -10.5543 C   0  0  2  0  0  0  0  0  0  0  0  0
   26.4553   43.4149   -9.4467 C   0  0  0  0  0  0  0  0  0  0  0  0
   25.6535   43.8298   -8.2026 C   0  0  0  0  0  0  0  0  0  0  0  0
   26.5024   44.5578   -7.1483 C   0  0  0  0  0  0  0  0  0  0  0  0
   25.6780   44.9916   -5.9258 C   0  0  0  0  0  0  0  0  0  0  0  0
   24.8057   46.2356   -6.1878 C   0  0  0  0  0  0  0  0  0  0  0  0
   23.6983   46.4710   -5.1419 C   0  0  0  0  0  0  0  0  0  0  0  0
   22.3780   45.7494   -5.4692 C   0  0  0  0  0  0  0  0  0  0  0  0
   22.4729   44.3154   -5.2516 N   0  0  0  0  0  0  0  0  0  0  0  0
   21.6699   43.4968   -6.0551 C   0  0  0  0  0  0  0  0  0  0  0  0
   20.3194   43.8122   -6.3205 C   0  0  0  0  0  0  0  0  0  0  0  0
   19.5323   42.9597   -7.1214 C   0  0  0  0  0  0  0  0  0  0  0  0
   20.0975   41.7869   -7.6631 C   0  0  0  0  0  0  0  0  0  0  0  0
   21.4573   41.4852   -7.4391 C   0  0  0  0  0  0  0  0  0  0  0  0
   22.2294   42.3308   -6.6150 C   0  0  0  0  0  0  0  0  0  0  0  0
   22.0666   40.2611   -8.0534 C   0  0  0  0  0  0  0  0  0  0  0  0
   21.7521   39.1455   -7.6501 O   0  0  0  0  0  0  0  0  0  0  0  0
   22.9276   40.4197   -9.0752 N   0  0  0  0  0  0  0  0  0  0  0  0
   23.3695   41.6504   -9.7455 C   0  0  1  0  0  0  0  0  0  0  0  0
   24.8692   41.4704  -10.0936 C   0  0  0  0  0  0  0  0  0  0  0  0
   22.5127   42.0090  -11.0095 C   0  0  1  0  0  0  0  0  0  0  0  0
   21.6641   40.9057  -11.6783 C   0  0  0  0  0  0  0  0  0  0  0  0
   20.4595   40.6108  -10.9126 N   0  0  0  0  0  0  0  0  0  0  0  0
   19.6803   39.4984  -11.4286 C   0  0  0  0  0  0  0  0  0  0  0  0
   18.6338   39.0997  -10.4169 C   0  0  0  0  0  0  0  0  0  0  0  0
   18.8181   37.9515   -9.6225 C   0  0  0  0  0  0  0  0  0  0  0  0
   17.8596   37.6054   -8.6518 C   0  0  0  0  0  0  0  0  0  0  0  0
   16.7286   38.4192   -8.4553 C   0  0  0  0  0  0  0  0  0  0  0  0
   16.5535   39.5887   -9.2272 C   0  0  0  0  0  0  0  0  0  0  0  0
   17.5026   39.9143  -10.2183 C   0  0  0  0  0  0  0  0  0  0  0  0
   15.3665   40.5098   -8.9999 C   0  0  0  0  0  0  0  0  0  0  0  0
   15.1496   40.8110   -7.5069 C   0  0  0  0  0  0  0  0  0  0  0  0
   14.1094   39.9493   -9.6827 C   0  0  0  0  0  0  0  0  0  0  0  0
   21.6792   43.1190  -10.7507 O   0  0  0  0  0  0  0  0  0  0  0  0
   18.0770   43.2982   -7.3783 C   0  0  0  0  0  0  0  0  0  0  0  0
   17.9306   44.6347   -7.8390 O   0  0  0  0  0  0  0  0  0  0  0  0
   16.5857   44.9676   -8.1372 C   0  0  0  0  0  0  0  0  0  0  0  0
   24.8675   43.5035  -10.8657 H   0  0  0  0  0  0  0  0  0  0  0  0
   23.3180   42.4842   -9.0464 H   0  0  0  0  0  0  0  0  0  0  0  0
   23.1933   42.3609  -11.7832 H   0  0  0  0  0  0  0  0  0  0  0  0
   27.2314   41.7111  -11.5678 H   0  0  0  0  0  0  0  0  0  0  0  0
   27.0221   43.3804  -12.0982 H   0  0  0  0  0  0  0  0  0  0  0  0
   25.8909   42.1500  -12.6224 H   0  0  0  0  0  0  0  0  0  0  0  0
   27.2737   42.7474   -9.1780 H   0  0  0  0  0  0  0  0  0  0  0  0
   26.9323   44.3079   -9.8550 H   0  0  0  0  0  0  0  0  0  0  0  0
   24.8243   44.4630   -8.5192 H   0  0  0  0  0  0  0  0  0  0  0  0
   25.2080   42.9501   -7.7387 H   0  0  0  0  0  0  0  0  0  0  0  0
   27.2956   43.8863   -6.8173 H   0  0  0  0  0  0  0  0  0  0  0  0
   26.9980   45.4240   -7.5880 H   0  0  0  0  0  0  0  0  0  0  0  0
   25.0764   44.1469   -5.5948 H   0  0  0  0  0  0  0  0  0  0  0  0
   26.3504   45.2104   -5.0952 H   0  0  0  0  0  0  0  0  0  0  0  0
   25.4634   47.1052   -6.2119 H   0  0  0  0  0  0  0  0  0  0  0  0
   24.3510   46.1922   -7.1776 H   0  0  0  0  0  0  0  0  0  0  0  0
   24.0505   46.2180   -4.1402 H   0  0  0  0  0  0  0  0  0  0  0  0
   23.4865   47.5399   -5.1210 H   0  0  0  0  0  0  0  0  0  0  0  0
   21.5790   46.1388   -4.8403 H   0  0  0  0  0  0  0  0  0  0  0  0
   22.0893   45.9590   -6.5005 H   0  0  0  0  0  0  0  0  0  0  0  0
   23.3987   43.9716   -5.0378 H   0  0  0  0  0  0  0  0  0  0  0  0
   19.8720   44.7002   -5.8991 H   0  0  0  0  0  0  0  0  0  0  0  0
   19.4895   41.1244   -8.2629 H   0  0  0  0  0  0  0  0  0  0  0  0
   23.2601   42.0855   -6.4197 H   0  0  0  0  0  0  0  0  0  0  0  0
   23.3526   39.5683   -9.4226 H   0  0  0  0  0  0  0  0  0  0  0  0
   24.9457   40.6984  -10.8588 H   0  0  0  0  0  0  0  0  0  0  0  0
   25.4008   41.0476   -9.2405 H   0  0  0  0  0  0  0  0  0  0  0  0
   21.3897   41.2205  -12.6862 H   0  0  0  0  0  0  0  0  0  0  0  0
   22.2698   40.0080  -11.7908 H   0  0  0  0  0  0  0  0  0  0  0  0
   20.7167   40.3994   -9.9526 H   0  0  0  0  0  0  0  0  0  0  0  0
   19.2053   39.7604  -12.3737 H   0  0  0  0  0  0  0  0  0  0  0  0
   20.3221   38.6397  -11.6243 H   0  0  0  0  0  0  0  0  0  0  0  0
   19.7060   37.3498   -9.7419 H   0  0  0  0  0  0  0  0  0  0  0  0
   17.9948   36.7281   -8.0372 H   0  0  0  0  0  0  0  0  0  0  0  0
   16.0115   38.1485   -7.6920 H   0  0  0  0  0  0  0  0  0  0  0  0
   17.3819   40.8074  -10.8146 H   0  0  0  0  0  0  0  0  0  0  0  0
   15.6011   41.4611   -9.4781 H   0  0  0  0  0  0  0  0  0  0  0  0
   16.0788   41.1012   -7.0159 H   0  0  0  0  0  0  0  0  0  0  0  0
   14.7495   39.9532   -6.9668 H   0  0  0  0  0  0  0  0  0  0  0  0
   14.4592   41.6394   -7.3704 H   0  0  0  0  0  0  0  0  0  0  0  0
   14.2962   39.7484  -10.7378 H   0  0  0  0  0  0  0  0  0  0  0  0
   13.2729   40.6482   -9.6401 H   0  0  0  0  0  0  0  0  0  0  0  0
   13.7860   39.0160   -9.2185 H   0  0  0  0  0  0  0  0  0  0  0  0
   20.8784   42.7772  -10.3780 H   0  0  0  0  0  0  0  0  0  0  0  0
   17.6728   42.6092   -8.1214 H   0  0  0  0  0  0  0  0  0  0  0  0
   17.5147   43.1520   -6.4537 H   0  0  0  0  0  0  0  0  0  0  0  0
   16.5428   45.9767   -8.5477 H   0  0  0  0  0  0  0  0  0  0  0  0
   15.9672   44.9492   -7.2401 H   0  0  0  0  0  0  0  0  0  0  0  0
   16.1579   44.2850   -8.8738 H   0  0  0  0  0  0  0  0  0  0  0  0
  1  2  1  0  0  0  0
  1 42  1  0  0  0  0
  1 43  1  0  0  0  0
  1 44  1  0  0  0  0
  2 39  1  6  0  0  0
  2 21  1  0  0  0  0
  2  3  1  0  0  0  0
  3  4  1  0  0  0  0
  3 45  1  0  0  0  0
  3 46  1  0  0  0  0
  4  5  1  0  0  0  0
  4 47  1  0  0  0  0
  4 48  1  0  0  0  0
  5  6  1  0  0  0  0
  5 49  1  0  0  0  0
  5 50  1  0  0  0  0
  6  7  1  0  0  0  0
  6 51  1  0  0  0  0
  6 52  1  0  0  0  0
  7  8  1  0  0  0  0
  7 53  1  0  0  0  0
  7 54  1  0  0  0  0
  8  9  1  0  0  0  0
  8 55  1  0  0  0  0
  8 56  1  0  0  0  0
  9 10  1  0  0  0  0
  9 57  1  0  0  0  0
  9 58  1  0  0  0  0
 10 11  1  0  0  0  0
 10 59  1  0  0  0  0
 11 16  1  0  0  0  0
 11 12  2  0  0  0  0
 12 13  1  0  0  0  0
 12 60  1  0  0  0  0
 13 14  2  0  0  0  0
 13 36  1  0  0  0  0
 14 15  1  0  0  0  0
 14 61  1  0  0  0  0
 15 16  2  0  0  0  0
 15 17  1  0  0  0  0
 16 62  1  0  0  0  0
 17 18  2  0  0  0  0
 17 19  1  0  0  0  0
 19 20  1  0  0  0  0
 19 63  1  0  0  0  0
 20 40  1  1  0  0  0
 20 21  1  0  0  0  0
 20 22  1  0  0  0  0
 21 64  1  0  0  0  0
 21 65  1  0  0  0  0
 22 41  1  6  0  0  0
 22 23  1  0  0  0  0
 22 35  1  0  0  0  0
 23 24  1  0  0  0  0
 23 66  1  0  0  0  0
 23 67  1  0  0  0  0
 24 25  1  0  0  0  0
 24 68  1  0  0  0  0
 25 26  1  0  0  0  0
 25 69  1  0  0  0  0
 25 70  1  0  0  0  0
 26 31  1  0  0  0  0
 26 27  2  0  0  0  0
 27 28  1  0  0  0  0
 27 71  1  0  0  0  0
 28 29  2  0  0  0  0
 28 72  1  0  0  0  0
 29 30  1  0  0  0  0
 29 73  1  0  0  0  0
 30 31  2  0  0  0  0
 30 32  1  0  0  0  0
 31 74  1  0  0  0  0
 32 33  1  0  0  0  0
 32 34  1  0  0  0  0
 32 75  1  0  0  0  0
 33 76  1  0  0  0  0
 33 77  1  0  0  0  0
 33 78  1  0  0  0  0
 34 79  1  0  0  0  0
 34 80  1  0  0  0  0
 34 81  1  0  0  0  0
 35 82  1  0  0  0  0
 36 37  1  0  0  0  0
 36 83  1  0  0  0  0
 36 84  1  0  0  0  0
 37 38  1  0  0  0  0
 38 85  1  0  0  0  0
 38 86  1  0  0  0  0
 38 87  1  0  0  0  0
M  END
>  <s_m_source_file>
BACE_9.smi

>  <i_m_source_file_index>
1

>  <i_lp_mmshare_version>
42013

>  <i_f3d_flags>
0

>  <s_epik_input>
W05IXTFbQ0gyXVtDSDJdW0NIMl1bQ0gyXVtDSDJdW0NIMl1bQ0gyXVtDQEBIXShbQ0gzXSlbQ0gyXVtDQEhdKFtOSF1DKD1PKWMoW2NIXTIpW2NIXWMoW2NIXWMxMilbQ0gyXU9bQ0gzXSlbQ0BIXShbT0hdKVtDSDJdW05IXVtDSDJdYzNbY0hdW2NIXVtjSF1jKFtjSF0zKVtDSF0oW0NIM10pW0NIM10=

>  <s_epik_cmdline>
J2VwaWtfcHl0aG9uJywgJy1waCcsICc3LjAnLCAnLXRuJywgJzgnLCAnLW1hJywgJzIwMCcsICctaW1hZScsICc8aW5maWxlLm1hZT4nLCAnLW9tYWUnLCAnPG91dGZpbGUubWFlPic=

>  <r_epik_Ionization_Penalty>
2.13

>  <r_epik_Ionization_Penalty_Charging>
0

>  <r_epik_Ionization_Penalty_Neutral>
2.13

>  <r_epik_State_Penalty>
2.2676

>  <r_epik_Charging_Adjusted_Penalty>
2.26762

>  <i_epik_Tot_Q>
0

>  <i_epik_Tot_abs_Q>
0

>  <s_lp_Force_Field>
OPLS_2005

>  <r_lp_Energy>
47.2954

>  <b_lp_Chiralities_Consistent>
1

>  <s_lp_Variant>
BACE_9.smi:1-2

>  <chiral flag>
1

>  <version>
0

>  <r_i_glide_lipo>
-0.947222

>  <r_i_glide_hbond>
-0.319819

>  <r_i_glide_metal>
-0

>  <r_i_glide_rewards>
0

>  <r_i_glide_erotb>
0.44997

>  <r_i_glide_esite>
-0.00440583

>  <s_i_glide_gridfile>
second_dock_grid_2

>  <i_i_glide_lignum>
19

>  <i_i_glide_rotatable_bonds>
9

>  <r_i_docking_score>
0.280038

>  <r_i_glide_ligand_efficiency>
0.00736943

>  <r_i_glide_ligand_efficiency_sa>
0.0247759

>  <r_i_glide_ligand_efficiency_ln>
0.0603845

>  <r_glide_XP_GScore>
-1.98756

>  <r_i_glide_gscore>
-1.98756

>  <r_i_glide_evdw>
-42.6542

>  <r_i_glide_ecoul>
-4.50592

>  <r_i_glide_energy>
-47.1602

>  <r_i_glide_einternal>
3.91708

>  <r_i_glide_emodel>
-58.7124

>  <r_glide_XP_HBond>
-1.62339

>  <i_i_glide_confnum>
1

>  <i_i_glide_posenum>
41

>  <r_i_glide_eff_state_penalty>
2.2676

>  <i_glide_XP_PoseRank>
8

>  <chiral flag>
1

$$$$
