BACE_12.smi:1
 OpenBabel10031817133D
Structure written by MMmdl.
 78 81  0  0  1  0  0  0  0  0999 V2000
   22.4483   42.3778   -3.2384 C   0  0  0  0  0  0  0  0  0  0  0  0
   21.6906   42.7871   -4.5110 C   0  0  0  0  0  0  0  0  0  0  0  0
   20.1997   43.0126   -4.2189 C   0  0  0  0  0  0  0  0  0  0  0  0
   21.9233   41.7855   -5.6388 C   0  0  0  0  0  0  0  0  0  0  0  0
   21.2923   40.5215   -5.6263 C   0  0  0  0  0  0  0  0  0  0  0  0
   21.5350   39.5963   -6.6590 C   0  0  0  0  0  0  0  0  0  0  0  0
   22.4073   39.9227   -7.7126 C   0  0  0  0  0  0  0  0  0  0  0  0
   23.0450   41.1800   -7.7386 C   0  0  0  0  0  0  0  0  0  0  0  0
   22.7940   42.1100   -6.7049 C   0  0  0  0  0  0  0  0  0  0  0  0
   24.0144   41.5145   -8.8588 C   0  0  0  0  0  0  0  0  0  0  0  0
   23.4960   41.0903  -10.1577 N   0  0  0  0  0  0  0  0  0  0  0  0
   23.0277   42.1940  -10.9956 C   0  0  0  0  0  0  0  0  0  0  0  0
   21.6045   41.9263  -11.5389 C   0  0  2  0  0  0  0  0  0  0  0  0
   20.5218   41.5291  -10.4907 C   0  0  2  0  0  0  0  0  0  0  0  0
   20.3942   39.9919  -10.3631 C   0  0  0  0  0  0  0  0  0  0  0  0
   19.3225   39.5463   -9.3840 C   0  0  0  0  0  0  0  0  0  0  0  0
   19.5314   39.7063   -7.9988 C   0  0  0  0  0  0  0  0  0  0  0  0
   18.5437   39.2973   -7.0851 C   0  0  0  0  0  0  0  0  0  0  0  0
   17.3466   38.7241   -7.5521 C   0  0  0  0  0  0  0  0  0  0  0  0
   17.1290   38.5575   -8.9358 C   0  0  0  0  0  0  0  0  0  0  0  0
   18.1205   38.9696   -9.8512 C   0  0  0  0  0  0  0  0  0  0  0  0
   15.8304   37.9346   -9.4237 C   0  0  0  0  0  0  0  0  0  0  0  0
   14.6397   38.9039   -9.3285 C   0  0  0  0  0  0  0  0  0  0  0  0
   14.6154   39.9688  -10.4373 C   0  0  0  0  0  0  0  0  0  0  0  0
   14.0139   41.2973   -9.9495 C   0  0  0  0  0  0  0  0  0  0  0  0
   13.9909   42.3244  -10.9809 N   0  0  0  0  0  0  0  0  0  0  0  0
   15.0896   43.1727  -11.1872 C   0  0  0  0  0  0  0  0  0  0  0  0
   16.3898   42.8378  -10.7514 C   0  0  0  0  0  0  0  0  0  0  0  0
   17.4522   43.7256  -11.0129 C   0  0  0  0  0  0  0  0  0  0  0  0
   17.1635   44.9422  -11.6580 C   0  0  0  0  0  0  0  0  0  0  0  0
   15.8386   45.2042  -12.0515 C   0  0  0  0  0  0  0  0  0  0  0  0
   14.8258   44.3278  -11.8342 N   0  0  0  0  0  0  0  0  0  0  0  0
   15.5741   46.3991  -12.6879 O   0  0  0  0  0  0  0  0  0  0  0  0
   16.6631   47.2668  -12.9771 C   0  0  0  0  0  0  0  0  0  0  0  0
   18.8500   43.3922  -10.5906 C   0  0  0  0  0  0  0  0  0  0  0  0
   19.6055   44.2593  -10.1584 O   0  0  0  0  0  0  0  0  0  0  0  0
   19.2067   42.1126  -10.7719 N   0  0  0  0  0  0  0  0  0  0  0  0
   21.6587   40.9203  -12.5373 O   0  0  0  0  0  0  0  0  0  0  0  0
   21.2694   42.8149  -12.0766 H   0  0  0  0  0  0  0  0  0  0  0  0
   20.8393   41.8860   -9.5114 H   0  0  0  0  0  0  0  0  0  0  0  0
   23.5205   42.3058   -3.4234 H   0  0  0  0  0  0  0  0  0  0  0  0
   22.1075   41.4116   -2.8672 H   0  0  0  0  0  0  0  0  0  0  0  0
   22.2990   43.1067   -2.4418 H   0  0  0  0  0  0  0  0  0  0  0  0
   22.0972   43.7460   -4.8370 H   0  0  0  0  0  0  0  0  0  0  0  0
   19.6654   43.3238   -5.1156 H   0  0  0  0  0  0  0  0  0  0  0  0
   20.0636   43.7928   -3.4714 H   0  0  0  0  0  0  0  0  0  0  0  0
   19.7129   42.1161   -3.8356 H   0  0  0  0  0  0  0  0  0  0  0  0
   20.6206   40.2531   -4.8242 H   0  0  0  0  0  0  0  0  0  0  0  0
   21.0467   38.6318   -6.6486 H   0  0  0  0  0  0  0  0  0  0  0  0
   22.5912   39.2029   -8.4976 H   0  0  0  0  0  0  0  0  0  0  0  0
   23.2844   43.0723   -6.7284 H   0  0  0  0  0  0  0  0  0  0  0  0
   24.1887   42.5920   -8.8511 H   0  0  0  0  0  0  0  0  0  0  0  0
   24.9792   41.0485   -8.6639 H   0  0  0  0  0  0  0  0  0  0  0  0
   24.2481   40.6177  -10.6467 H   0  0  0  0  0  0  0  0  0  0  0  0
   23.0098   43.1013  -10.3911 H   0  0  0  0  0  0  0  0  0  0  0  0
   23.7247   42.3950  -11.8100 H   0  0  0  0  0  0  0  0  0  0  0  0
   20.1778   39.5445  -11.3319 H   0  0  0  0  0  0  0  0  0  0  0  0
   21.3475   39.5669  -10.0457 H   0  0  0  0  0  0  0  0  0  0  0  0
   20.4503   40.1398   -7.6337 H   0  0  0  0  0  0  0  0  0  0  0  0
   18.7055   39.4191   -6.0244 H   0  0  0  0  0  0  0  0  0  0  0  0
   16.5923   38.4121   -6.8444 H   0  0  0  0  0  0  0  0  0  0  0  0
   17.9563   38.8418  -10.9117 H   0  0  0  0  0  0  0  0  0  0  0  0
   15.9441   37.5638  -10.4429 H   0  0  0  0  0  0  0  0  0  0  0  0
   15.6311   37.0588   -8.8054 H   0  0  0  0  0  0  0  0  0  0  0  0
   13.7086   38.3389   -9.3796 H   0  0  0  0  0  0  0  0  0  0  0  0
   14.6429   39.3735   -8.3448 H   0  0  0  0  0  0  0  0  0  0  0  0
   15.6222   40.1312  -10.8145 H   0  0  0  0  0  0  0  0  0  0  0  0
   14.0483   39.5927  -11.2896 H   0  0  0  0  0  0  0  0  0  0  0  0
   12.9841   41.1352   -9.6306 H   0  0  0  0  0  0  0  0  0  0  0  0
   14.5479   41.6689   -9.0759 H   0  0  0  0  0  0  0  0  0  0  0  0
   13.0619   42.7069  -11.1688 H   0  0  0  0  0  0  0  0  0  0  0  0
   16.5849   41.9256  -10.2123 H   0  0  0  0  0  0  0  0  0  0  0  0
   17.9400   45.6674  -11.8575 H   0  0  0  0  0  0  0  0  0  0  0  0
   16.2863   48.1348  -13.5154 H   0  0  0  0  0  0  0  0  0  0  0  0
   17.4046   46.7831  -13.6138 H   0  0  0  0  0  0  0  0  0  0  0  0
   17.1501   47.6230  -12.0685 H   0  0  0  0  0  0  0  0  0  0  0  0
   18.4886   41.4852  -11.1097 H   0  0  0  0  0  0  0  0  0  0  0  0
   22.5555   40.8483  -12.8311 H   0  0  0  0  0  0  0  0  0  0  0  0
  1  2  1  0  0  0  0
  1 41  1  0  0  0  0
  1 42  1  0  0  0  0
  1 43  1  0  0  0  0
  2  3  1  0  0  0  0
  2  4  1  0  0  0  0
  2 44  1  0  0  0  0
  3 45  1  0  0  0  0
  3 46  1  0  0  0  0
  3 47  1  0  0  0  0
  4  9  1  0  0  0  0
  4  5  2  0  0  0  0
  5  6  1  0  0  0  0
  5 48  1  0  0  0  0
  6  7  2  0  0  0  0
  6 49  1  0  0  0  0
  7  8  1  0  0  0  0
  7 50  1  0  0  0  0
  8  9  2  0  0  0  0
  8 10  1  0  0  0  0
  9 51  1  0  0  0  0
 10 11  1  0  0  0  0
 10 52  1  0  0  0  0
 10 53  1  0  0  0  0
 11 12  1  0  0  0  0
 11 54  1  0  0  0  0
 12 13  1  0  0  0  0
 12 55  1  0  0  0  0
 12 56  1  0  0  0  0
 13 39  1  6  0  0  0
 13 14  1  0  0  0  0
 13 38  1  0  0  0  0
 14 40  1  1  0  0  0
 14 37  1  0  0  0  0
 14 15  1  0  0  0  0
 15 16  1  0  0  0  0
 15 57  1  0  0  0  0
 15 58  1  0  0  0  0
 16 21  1  0  0  0  0
 16 17  2  0  0  0  0
 17 18  1  0  0  0  0
 17 59  1  0  0  0  0
 18 19  2  0  0  0  0
 18 60  1  0  0  0  0
 19 20  1  0  0  0  0
 19 61  1  0  0  0  0
 20 21  2  0  0  0  0
 20 22  1  0  0  0  0
 21 62  1  0  0  0  0
 22 23  1  0  0  0  0
 22 63  1  0  0  0  0
 22 64  1  0  0  0  0
 23 24  1  0  0  0  0
 23 65  1  0  0  0  0
 23 66  1  0  0  0  0
 24 25  1  0  0  0  0
 24 67  1  0  0  0  0
 24 68  1  0  0  0  0
 25 26  1  0  0  0  0
 25 69  1  0  0  0  0
 25 70  1  0  0  0  0
 26 27  1  0  0  0  0
 26 71  1  0  0  0  0
 27 32  1  0  0  0  0
 27 28  2  0  0  0  0
 28 29  1  0  0  0  0
 28 72  1  0  0  0  0
 29 30  2  0  0  0  0
 29 35  1  0  0  0  0
 30 31  1  0  0  0  0
 30 73  1  0  0  0  0
 31 32  2  0  0  0  0
 31 33  1  0  0  0  0
 33 34  1  0  0  0  0
 34 74  1  0  0  0  0
 34 75  1  0  0  0  0
 34 76  1  0  0  0  0
 35 36  2  0  0  0  0
 35 37  1  0  0  0  0
 37 77  1  0  0  0  0
 38 78  1  0  0  0  0
M  END
>  <s_m_source_file>
BACE_12.smi

>  <i_m_source_file_index>
1

>  <i_lp_mmshare_version>
42013

>  <i_f3d_flags>
0

>  <s_epik_input>
W0NIM11bQ0hdKFtDSDNdKWMxW2NIXVtjSF1bY0hdYyhbY0hdMSlbQ0gyXVtOSF1bQ0gyXVtDQEBIXShbT0hdKVtDQEhdKFtDSDJdMilbTkhdQyg9TyljKFtjSF1jKG4zKU9bQ0gzXSlbY0hdYzNbTkhdW0NIMl1bQ0gyXVtDSDJdW0NIMl1jKFtjSF00KVtjSF1bY0hdW2NIXWMyNA==

>  <s_epik_cmdline>
J2VwaWtfcHl0aG9uJywgJy1waCcsICc3LjAnLCAnLXRuJywgJzgnLCAnLW1hJywgJzIwMCcsICctaW1hZScsICc8aW5maWxlLm1hZT4nLCAnLW9tYWUnLCAnPG91dGZpbGUubWFlPic=

>  <r_lp_tautomer_probability>
1

>  <r_epik_Ionization_Penalty>
2.0161

>  <r_epik_Ionization_Penalty_Charging>
0

>  <r_epik_Ionization_Penalty_Neutral>
2.0161

>  <r_epik_State_Penalty>
2.146

>  <r_epik_Charging_Adjusted_Penalty>
2.14597

>  <i_epik_Tot_Q>
0

>  <i_epik_Tot_abs_Q>
0

>  <s_lp_Force_Field>
OPLS_2005

>  <r_lp_Energy>
24.9256

>  <b_lp_Chiralities_Consistent>
1

>  <s_lp_Variant>
BACE_12.smi:1-2

>  <chiral flag>
1

>  <version>
0

>  <r_i_glide_lipo>
-0.570191

>  <r_i_glide_hbond>
-0.212313

>  <r_i_glide_metal>
-0

>  <r_i_glide_rewards>
0

>  <r_i_glide_erotb>
0.384471

>  <r_i_glide_esite>
-0.149714

>  <s_i_glide_gridfile>
second_dock_grid_2

>  <i_i_glide_lignum>
25

>  <i_i_glide_rotatable_bonds>
8

>  <r_i_docking_score>
-1.17088

>  <r_i_glide_ligand_efficiency>
-0.0308125

>  <r_i_glide_ligand_efficiency_sa>
-0.103591

>  <r_i_glide_ligand_efficiency_ln>
-0.252475

>  <r_glide_XP_GScore>
-3.31688

>  <r_i_glide_gscore>
-3.31688

>  <r_i_glide_evdw>
-38.574

>  <r_i_glide_ecoul>
-11.6484

>  <r_i_glide_energy>
-50.2224

>  <r_i_glide_einternal>
15.5213

>  <r_i_glide_emodel>
-68.6204

>  <r_glide_XP_HBond>
-1.26699

>  <i_i_glide_confnum>
1

>  <i_i_glide_posenum>
2

>  <r_i_glide_eff_state_penalty>
2.146

>  <i_glide_XP_PoseRank>
3

>  <chiral flag>
1

$$$$
