BACE_9.smi:1
 OpenBabel10031817133D
Structure written by MMmdl.
 87 89  0  0  1  0  0  0  0  0999 V2000
   20.3914   45.5191   -6.5001 C   0  0  0  0  0  0  0  0  0  0  0  0
   20.3538   44.3444   -7.4917 C   0  0  2  0  0  0  0  0  0  0  0  0
   21.7713   43.7884   -7.6995 C   0  0  0  0  0  0  0  0  0  0  0  0
   21.7290   42.3861   -8.3091 C   0  0  0  0  0  0  0  0  0  0  0  0
   23.1126   41.8227   -8.6425 C   0  0  0  0  0  0  0  0  0  0  0  0
   22.9947   40.5305   -9.4525 C   0  0  0  0  0  0  0  0  0  0  0  0
   22.4754   39.3371   -8.6272 C   0  0  0  0  0  0  0  0  0  0  0  0
   21.8871   38.2079   -9.4869 C   0  0  0  0  0  0  0  0  0  0  0  0
   20.3657   38.3140   -9.7078 C   0  0  0  0  0  0  0  0  0  0  0  0
   20.0314   39.3731  -10.6477 N   0  0  0  0  0  0  0  0  0  0  0  0
   18.7703   39.9789  -10.5781 C   0  0  0  0  0  0  0  0  0  0  0  0
   17.6213   39.3105  -10.0934 C   0  0  0  0  0  0  0  0  0  0  0  0
   16.3774   39.9760  -10.0372 C   0  0  0  0  0  0  0  0  0  0  0  0
   16.2793   41.3122  -10.4742 C   0  0  0  0  0  0  0  0  0  0  0  0
   17.4241   41.9906  -10.9373 C   0  0  0  0  0  0  0  0  0  0  0  0
   18.6607   41.3165  -11.0036 C   0  0  0  0  0  0  0  0  0  0  0  0
   17.3389   43.4368  -11.3116 C   0  0  0  0  0  0  0  0  0  0  0  0
   16.8601   43.7557  -12.4013 O   0  0  0  0  0  0  0  0  0  0  0  0
   17.8125   44.3380  -10.4272 N   0  0  0  0  0  0  0  0  0  0  0  0
   18.2683   44.0925   -9.0464 C   0  0  1  0  0  0  0  0  0  0  0  0
   19.6787   44.7045   -8.8472 C   0  0  0  0  0  0  0  0  0  0  0  0
   17.2157   44.5832   -8.0136 C   0  0  1  0  0  0  0  0  0  0  0  0
   16.6802   46.0212   -8.1864 C   0  0  0  0  0  0  0  0  0  0  0  0
   17.7268   47.0307   -7.9966 N   0  0  0  0  0  0  0  0  0  0  0  0
   17.2576   48.4053   -7.8843 C   0  0  0  0  0  0  0  0  0  0  0  0
   18.3200   49.4596   -8.1421 C   0  0  0  0  0  0  0  0  0  0  0  0
   17.9625   50.6530   -8.8026 C   0  0  0  0  0  0  0  0  0  0  0  0
   18.9301   51.6446   -9.0446 C   0  0  0  0  0  0  0  0  0  0  0  0
   20.2598   51.4491   -8.6283 C   0  0  0  0  0  0  0  0  0  0  0  0
   20.6290   50.2637   -7.9569 C   0  0  0  0  0  0  0  0  0  0  0  0
   19.6509   49.2765   -7.7103 C   0  0  0  0  0  0  0  0  0  0  0  0
   22.0713   50.0493   -7.5175 C   0  0  0  0  0  0  0  0  0  0  0  0
   22.7294   48.8908   -8.2825 C   0  0  0  0  0  0  0  0  0  0  0  0
   22.1794   49.8600   -5.9942 C   0  0  0  0  0  0  0  0  0  0  0  0
   16.1155   43.6958   -8.0400 O   0  0  0  0  0  0  0  0  0  0  0  0
   15.1452   39.2574   -9.5103 C   0  0  0  0  0  0  0  0  0  0  0  0
   15.3738   38.6113   -8.2685 O   0  0  0  0  0  0  0  0  0  0  0  0
   15.4214   39.5034   -7.1631 C   0  0  0  0  0  0  0  0  0  0  0  0
   19.7797   43.5534   -7.0077 H   0  0  0  0  0  0  0  0  0  0  0  0
   18.4000   43.0255   -8.8692 H   0  0  0  0  0  0  0  0  0  0  0  0
   17.6286   44.4807   -7.0099 H   0  0  0  0  0  0  0  0  0  0  0  0
   20.9607   46.3531   -6.9033 H   0  0  0  0  0  0  0  0  0  0  0  0
   20.8643   45.2227   -5.5633 H   0  0  0  0  0  0  0  0  0  0  0  0
   19.3957   45.8706   -6.2437 H   0  0  0  0  0  0  0  0  0  0  0  0
   22.3510   44.4661   -8.3271 H   0  0  0  0  0  0  0  0  0  0  0  0
   22.2967   43.7304   -6.7453 H   0  0  0  0  0  0  0  0  0  0  0  0
   21.2112   41.7258   -7.6137 H   0  0  0  0  0  0  0  0  0  0  0  0
   21.1292   42.3858   -9.2191 H   0  0  0  0  0  0  0  0  0  0  0  0
   23.6642   42.5542   -9.2329 H   0  0  0  0  0  0  0  0  0  0  0  0
   23.6907   41.6542   -7.7338 H   0  0  0  0  0  0  0  0  0  0  0  0
   22.3542   40.7131  -10.3135 H   0  0  0  0  0  0  0  0  0  0  0  0
   23.9697   40.2816   -9.8688 H   0  0  0  0  0  0  0  0  0  0  0  0
   23.3095   38.9508   -8.0403 H   0  0  0  0  0  0  0  0  0  0  0  0
   21.7299   39.6353   -7.8927 H   0  0  0  0  0  0  0  0  0  0  0  0
   22.4188   38.1500  -10.4372 H   0  0  0  0  0  0  0  0  0  0  0  0
   22.0846   37.2684   -8.9751 H   0  0  0  0  0  0  0  0  0  0  0  0
   19.9832   37.3741  -10.1062 H   0  0  0  0  0  0  0  0  0  0  0  0
   19.8644   38.4757   -8.7523 H   0  0  0  0  0  0  0  0  0  0  0  0
   20.7997   39.9499  -10.9559 H   0  0  0  0  0  0  0  0  0  0  0  0
   17.6783   38.2833   -9.7656 H   0  0  0  0  0  0  0  0  0  0  0  0
   15.3328   41.8304  -10.4132 H   0  0  0  0  0  0  0  0  0  0  0  0
   19.5357   41.8416  -11.3599 H   0  0  0  0  0  0  0  0  0  0  0  0
   17.7754   45.3055  -10.7108 H   0  0  0  0  0  0  0  0  0  0  0  0
   19.6762   45.7819   -8.9956 H   0  0  0  0  0  0  0  0  0  0  0  0
   20.2984   44.3500   -9.6707 H   0  0  0  0  0  0  0  0  0  0  0  0
   16.2081   46.1412   -9.1627 H   0  0  0  0  0  0  0  0  0  0  0  0
   15.8916   46.1502   -7.4477 H   0  0  0  0  0  0  0  0  0  0  0  0
   18.2570   46.7913   -7.1653 H   0  0  0  0  0  0  0  0  0  0  0  0
   16.4596   48.5750   -8.6038 H   0  0  0  0  0  0  0  0  0  0  0  0
   16.8601   48.5800   -6.8862 H   0  0  0  0  0  0  0  0  0  0  0  0
   16.9484   50.8082   -9.1389 H   0  0  0  0  0  0  0  0  0  0  0  0
   18.6543   52.5502   -9.5628 H   0  0  0  0  0  0  0  0  0  0  0  0
   20.9927   52.2121   -8.8407 H   0  0  0  0  0  0  0  0  0  0  0  0
   19.9268   48.3709   -7.1951 H   0  0  0  0  0  0  0  0  0  0  0  0
   22.6274   50.9485   -7.7782 H   0  0  0  0  0  0  0  0  0  0  0  0
   22.7033   49.0714   -9.3592 H   0  0  0  0  0  0  0  0  0  0  0  0
   22.2264   47.9424   -8.0947 H   0  0  0  0  0  0  0  0  0  0  0  0
   23.7752   48.7722   -7.9948 H   0  0  0  0  0  0  0  0  0  0  0  0
   21.7269   50.6906   -5.4520 H   0  0  0  0  0  0  0  0  0  0  0  0
   23.2198   49.7807   -5.6782 H   0  0  0  0  0  0  0  0  0  0  0  0
   21.6769   48.9484   -5.6676 H   0  0  0  0  0  0  0  0  0  0  0  0
   15.8000   43.5650   -7.1487 H   0  0  0  0  0  0  0  0  0  0  0  0
   14.2961   39.9397   -9.4350 H   0  0  0  0  0  0  0  0  0  0  0  0
   14.8621   38.4967  -10.2375 H   0  0  0  0  0  0  0  0  0  0  0  0
   15.6503   38.9496   -6.2549 H   0  0  0  0  0  0  0  0  0  0  0  0
   14.4619   39.9997   -7.0152 H   0  0  0  0  0  0  0  0  0  0  0  0
   16.1920   40.2651   -7.2892 H   0  0  0  0  0  0  0  0  0  0  0  0
  1  2  1  0  0  0  0
  1 42  1  0  0  0  0
  1 43  1  0  0  0  0
  1 44  1  0  0  0  0
  2 39  1  1  0  0  0
  2 21  1  0  0  0  0
  2  3  1  0  0  0  0
  3  4  1  0  0  0  0
  3 45  1  0  0  0  0
  3 46  1  0  0  0  0
  4  5  1  0  0  0  0
  4 47  1  0  0  0  0
  4 48  1  0  0  0  0
  5  6  1  0  0  0  0
  5 49  1  0  0  0  0
  5 50  1  0  0  0  0
  6  7  1  0  0  0  0
  6 51  1  0  0  0  0
  6 52  1  0  0  0  0
  7  8  1  0  0  0  0
  7 53  1  0  0  0  0
  7 54  1  0  0  0  0
  8  9  1  0  0  0  0
  8 55  1  0  0  0  0
  8 56  1  0  0  0  0
  9 10  1  0  0  0  0
  9 57  1  0  0  0  0
  9 58  1  0  0  0  0
 10 11  1  0  0  0  0
 10 59  1  0  0  0  0
 11 16  1  0  0  0  0
 11 12  2  0  0  0  0
 12 13  1  0  0  0  0
 12 60  1  0  0  0  0
 13 14  2  0  0  0  0
 13 36  1  0  0  0  0
 14 15  1  0  0  0  0
 14 61  1  0  0  0  0
 15 16  2  0  0  0  0
 15 17  1  0  0  0  0
 16 62  1  0  0  0  0
 17 18  2  0  0  0  0
 17 19  1  0  0  0  0
 19 20  1  0  0  0  0
 19 63  1  0  0  0  0
 20 40  1  1  0  0  0
 20 21  1  0  0  0  0
 20 22  1  0  0  0  0
 21 64  1  0  0  0  0
 21 65  1  0  0  0  0
 22 41  1  1  0  0  0
 22 23  1  0  0  0  0
 22 35  1  0  0  0  0
 23 24  1  0  0  0  0
 23 66  1  0  0  0  0
 23 67  1  0  0  0  0
 24 25  1  0  0  0  0
 24 68  1  0  0  0  0
 25 26  1  0  0  0  0
 25 69  1  0  0  0  0
 25 70  1  0  0  0  0
 26 31  1  0  0  0  0
 26 27  2  0  0  0  0
 27 28  1  0  0  0  0
 27 71  1  0  0  0  0
 28 29  2  0  0  0  0
 28 72  1  0  0  0  0
 29 30  1  0  0  0  0
 29 73  1  0  0  0  0
 30 31  2  0  0  0  0
 30 32  1  0  0  0  0
 31 74  1  0  0  0  0
 32 33  1  0  0  0  0
 32 34  1  0  0  0  0
 32 75  1  0  0  0  0
 33 76  1  0  0  0  0
 33 77  1  0  0  0  0
 33 78  1  0  0  0  0
 34 79  1  0  0  0  0
 34 80  1  0  0  0  0
 34 81  1  0  0  0  0
 35 82  1  0  0  0  0
 36 37  1  0  0  0  0
 36 83  1  0  0  0  0
 36 84  1  0  0  0  0
 37 38  1  0  0  0  0
 38 85  1  0  0  0  0
 38 86  1  0  0  0  0
 38 87  1  0  0  0  0
M  END
>  <s_m_source_file>
BACE_9.smi

>  <i_m_source_file_index>
1

>  <i_lp_mmshare_version>
42013

>  <i_f3d_flags>
0

>  <s_epik_input>
W05IXTFbQ0gyXVtDSDJdW0NIMl1bQ0gyXVtDSDJdW0NIMl1bQ0gyXVtDQEBIXShbQ0gzXSlbQ0gyXVtDQEhdKFtOSF1DKD1PKWMoW2NIXTIpW2NIXWMoW2NIXWMxMilbQ0gyXU9bQ0gzXSlbQ0BIXShbT0hdKVtDSDJdW05IXVtDSDJdYzNbY0hdW2NIXVtjSF1jKFtjSF0zKVtDSF0oW0NIM10pW0NIM10=

>  <s_epik_cmdline>
J2VwaWtfcHl0aG9uJywgJy1waCcsICc3LjAnLCAnLXRuJywgJzgnLCAnLW1hJywgJzIwMCcsICctaW1hZScsICc8aW5maWxlLm1hZT4nLCAnLW9tYWUnLCAnPG91dGZpbGUubWFlPic=

>  <r_epik_Ionization_Penalty>
2.13

>  <r_epik_Ionization_Penalty_Charging>
0

>  <r_epik_Ionization_Penalty_Neutral>
2.13

>  <r_epik_State_Penalty>
2.2676

>  <r_epik_Charging_Adjusted_Penalty>
2.26762

>  <i_epik_Tot_Q>
0

>  <i_epik_Tot_abs_Q>
0

>  <s_lp_Force_Field>
OPLS_2005

>  <r_lp_Energy>
47.2954

>  <b_lp_Chiralities_Consistent>
1

>  <s_lp_Variant>
BACE_9.smi:1-2

>  <chiral flag>
1

>  <version>
0

>  <r_i_glide_lipo>
-0.947222

>  <r_i_glide_hbond>
-0.319819

>  <r_i_glide_metal>
-0

>  <r_i_glide_rewards>
0

>  <r_i_glide_erotb>
0.44997

>  <r_i_glide_esite>
-0.00440583

>  <s_i_glide_gridfile>
second_dock_grid_2

>  <i_i_glide_lignum>
19

>  <i_i_glide_rotatable_bonds>
9

>  <r_i_docking_score>
0.431064

>  <r_i_glide_ligand_efficiency>
0.0113438

>  <r_i_glide_ligand_efficiency_sa>
0.0381375

>  <r_i_glide_ligand_efficiency_ln>
0.09295

>  <r_glide_XP_GScore>
-1.83654

>  <r_i_glide_gscore>
-1.83654

>  <r_i_glide_evdw>
-37.1557

>  <r_i_glide_ecoul>
-7.61064

>  <r_i_glide_energy>
-44.7664

>  <r_i_glide_einternal>
3.12897

>  <r_i_glide_emodel>
-59.5148

>  <r_glide_XP_HBond>
-1.62339

>  <i_i_glide_confnum>
1

>  <i_i_glide_posenum>
39

>  <r_i_glide_eff_state_penalty>
2.2676

>  <i_glide_XP_PoseRank>
10

>  <chiral flag>
1

$$$$
