BACE_5.smi:1
 OpenBabel10031817133D
Structure written by MMmdl.
 79 80  0  0  1  0  0  0  0  0999 V2000
   29.5369   42.0691  -13.3946 C   0  0  0  0  0  0  0  0  0  0  0  0
   30.1648   42.5963  -12.0959 C   0  0  0  0  0  0  0  0  0  0  0  0
   29.5404   41.9981  -10.8248 C   0  0  0  0  0  0  0  0  0  0  0  0
   28.1061   42.4118  -10.6235 C   0  0  0  0  0  0  0  0  0  0  0  0
   26.9280   41.7501  -11.0774 C   0  0  0  0  0  0  0  0  0  0  0  0
   25.9015   42.5448  -10.6563 C   0  0  0  0  0  0  0  0  0  0  0  0
   26.4860   43.5882   -9.9790 N   0  0  0  0  0  0  0  0  0  0  0  0
   27.8301   43.5240   -9.9573 N   0  0  0  0  0  0  0  0  0  0  0  0
   24.4203   42.4333  -10.8410 C   0  0  0  0  0  0  0  0  0  0  0  0
   23.6616   42.7341   -9.6247 N   0  0  0  0  0  0  0  0  0  0  0  0
   23.6885   41.6872   -8.6006 C   0  0  0  0  0  0  0  0  0  0  0  0
   22.8284   40.4450   -8.9399 C   0  0  2  0  0  0  0  0  0  0  0  0
   21.2936   40.6569   -8.7963 C   0  0  2  0  0  0  0  0  0  0  0  0
   20.4889   39.3273   -8.8493 C   0  0  0  0  0  0  0  0  0  0  0  0
   18.9898   39.4422   -8.4771 C   0  0  1  0  0  0  0  0  0  0  0  0
   18.0938   39.6222   -9.7206 C   0  0  0  0  0  0  0  0  0  0  0  0
   16.6614   40.0825   -9.3956 C   0  0  0  0  0  0  0  0  0  0  0  0
   15.8689   40.3942  -10.6756 C   0  0  0  0  0  0  0  0  0  0  0  0
   14.4551   40.9618  -10.4537 C   0  0  0  0  0  0  0  0  0  0  0  0
   14.3635   42.2588   -9.6269 C   0  0  0  0  0  0  0  0  0  0  0  0
   15.3691   43.3564  -10.0074 C   0  0  0  0  0  0  0  0  0  0  0  0
   15.2482   43.7338  -11.3788 O   0  0  0  0  0  0  0  0  0  0  0  0
   16.2122   44.6939  -11.8187 C   0  0  0  0  0  0  0  0  0  0  0  0
   17.6104   44.0578  -11.9429 C   0  0  0  0  0  0  0  0  0  0  0  0
   17.8074   43.3495  -12.9333 O   0  0  0  0  0  0  0  0  0  0  0  0
   18.5373   44.2500  -10.9669 N   0  0  0  0  0  0  0  0  0  0  0  0
   19.8249   43.5067  -10.9647 C   0  0  2  0  0  0  0  0  0  0  0  0
   20.0839   42.6692   -9.6904 C   0  0  0  0  0  0  0  0  0  0  0  0
   19.6575   43.0169   -8.5948 O   0  0  0  0  0  0  0  0  0  0  0  0
   20.8338   41.5642   -9.8555 N   0  0  0  0  0  0  0  0  0  0  0  0
   20.9857   44.4775  -11.2478 C   0  0  0  0  0  0  0  0  0  0  0  0
   18.3409   45.2606   -9.9197 C   0  0  0  0  0  0  0  0  0  0  0  0
   18.5371   38.2219   -7.6548 C   0  0  0  0  0  0  0  0  0  0  0  0
   23.2593   39.4435   -8.0400 O   0  0  0  0  0  0  0  0  0  0  0  0
   25.9757   44.3336   -9.5270 H   0  0  0  0  0  0  0  0  0  0  0  0
   23.0519   40.0757   -9.9401 H   0  0  0  0  0  0  0  0  0  0  0  0
   21.1206   41.1072   -7.8153 H   0  0  0  0  0  0  0  0  0  0  0  0
   18.8739   40.3143   -7.8311 H   0  0  0  0  0  0  0  0  0  0  0  0
   19.8315   42.7863  -11.7822 H   0  0  0  0  0  0  0  0  0  0  0  0
   30.0609   42.4615  -14.2668 H   0  0  0  0  0  0  0  0  0  0  0  0
   28.4915   42.3634  -13.4793 H   0  0  0  0  0  0  0  0  0  0  0  0
   29.5835   40.9803  -13.4434 H   0  0  0  0  0  0  0  0  0  0  0  0
   30.0902   43.6839  -12.0654 H   0  0  0  0  0  0  0  0  0  0  0  0
   31.2303   42.3640  -12.1067 H   0  0  0  0  0  0  0  0  0  0  0  0
   30.1314   42.3080   -9.9625 H   0  0  0  0  0  0  0  0  0  0  0  0
   29.6193   40.9120  -10.8613 H   0  0  0  0  0  0  0  0  0  0  0  0
   26.8595   40.8313  -11.6398 H   0  0  0  0  0  0  0  0  0  0  0  0
   24.1628   41.4521  -11.2323 H   0  0  0  0  0  0  0  0  0  0  0  0
   24.1298   43.1369  -11.6206 H   0  0  0  0  0  0  0  0  0  0  0  0
   22.6946   42.9436   -9.8591 H   0  0  0  0  0  0  0  0  0  0  0  0
   23.3529   42.1003   -7.6476 H   0  0  0  0  0  0  0  0  0  0  0  0
   24.7225   41.3858   -8.4389 H   0  0  0  0  0  0  0  0  0  0  0  0
   20.6053   38.8491   -9.8238 H   0  0  0  0  0  0  0  0  0  0  0  0
   20.9453   38.6306   -8.1439 H   0  0  0  0  0  0  0  0  0  0  0  0
   18.5394   40.3560  -10.3892 H   0  0  0  0  0  0  0  0  0  0  0  0
   18.0651   38.6937  -10.2904 H   0  0  0  0  0  0  0  0  0  0  0  0
   16.7108   40.9632   -8.7563 H   0  0  0  0  0  0  0  0  0  0  0  0
   16.1356   39.3177   -8.8235 H   0  0  0  0  0  0  0  0  0  0  0  0
   16.4396   41.0763  -11.3072 H   0  0  0  0  0  0  0  0  0  0  0  0
   15.7764   39.4672  -11.2396 H   0  0  0  0  0  0  0  0  0  0  0  0
   13.8310   40.2033   -9.9776 H   0  0  0  0  0  0  0  0  0  0  0  0
   14.0017   41.1383  -11.4298 H   0  0  0  0  0  0  0  0  0  0  0  0
   13.3502   42.6551   -9.7013 H   0  0  0  0  0  0  0  0  0  0  0  0
   14.5036   42.0155   -8.5718 H   0  0  0  0  0  0  0  0  0  0  0  0
   16.3733   43.0019   -9.7817 H   0  0  0  0  0  0  0  0  0  0  0  0
   15.2025   44.2294   -9.3772 H   0  0  0  0  0  0  0  0  0  0  0  0
   16.1805   45.5819  -11.1919 H   0  0  0  0  0  0  0  0  0  0  0  0
   15.9156   45.0315  -12.8132 H   0  0  0  0  0  0  0  0  0  0  0  0
   21.1255   41.3338  -10.7935 H   0  0  0  0  0  0  0  0  0  0  0  0
   21.8807   43.9397  -11.5594 H   0  0  0  0  0  0  0  0  0  0  0  0
   21.2489   45.0648  -10.3682 H   0  0  0  0  0  0  0  0  0  0  0  0
   20.7350   45.1806  -12.0405 H   0  0  0  0  0  0  0  0  0  0  0  0
   19.2499   45.4462   -9.3440 H   0  0  0  0  0  0  0  0  0  0  0  0
   17.5780   44.9524   -9.2047 H   0  0  0  0  0  0  0  0  0  0  0  0
   18.0574   46.2248  -10.3413 H   0  0  0  0  0  0  0  0  0  0  0  0
   17.5121   38.3259   -7.3005 H   0  0  0  0  0  0  0  0  0  0  0  0
   19.1592   38.0911   -6.7693 H   0  0  0  0  0  0  0  0  0  0  0  0
   18.5930   37.3070   -8.2427 H   0  0  0  0  0  0  0  0  0  0  0  0
   23.9375   38.9505   -8.4899 H   0  0  0  0  0  0  0  0  0  0  0  0
  1  2  1  0  0  0  0
  1 40  1  0  0  0  0
  1 41  1  0  0  0  0
  1 42  1  0  0  0  0
  2  3  1  0  0  0  0
  2 43  1  0  0  0  0
  2 44  1  0  0  0  0
  3 45  1  0  0  0  0
  3 46  1  0  0  0  0
  3  4  1  0  0  0  0
  4  8  2  0  0  0  0
  4  5  1  0  0  0  0
  5  6  2  0  0  0  0
  5 47  1  0  0  0  0
  6  7  1  0  0  0  0
  6  9  1  0  0  0  0
  7  8  1  0  0  0  0
  7 35  1  0  0  0  0
  9 10  1  0  0  0  0
  9 48  1  0  0  0  0
  9 49  1  0  0  0  0
 10 11  1  0  0  0  0
 10 50  1  0  0  0  0
 11 12  1  0  0  0  0
 11 51  1  0  0  0  0
 11 52  1  0  0  0  0
 12 36  1  6  0  0  0
 12 13  1  0  0  0  0
 12 34  1  0  0  0  0
 13 37  1  1  0  0  0
 13 30  1  0  0  0  0
 13 14  1  0  0  0  0
 14 15  1  0  0  0  0
 14 53  1  0  0  0  0
 14 54  1  0  0  0  0
 15 38  1  1  0  0  0
 15 16  1  0  0  0  0
 15 33  1  0  0  0  0
 16 17  1  0  0  0  0
 16 55  1  0  0  0  0
 16 56  1  0  0  0  0
 17 18  1  0  0  0  0
 17 57  1  0  0  0  0
 17 58  1  0  0  0  0
 18 19  1  0  0  0  0
 18 59  1  0  0  0  0
 18 60  1  0  0  0  0
 19 20  1  0  0  0  0
 19 61  1  0  0  0  0
 19 62  1  0  0  0  0
 20 21  1  0  0  0  0
 20 63  1  0  0  0  0
 20 64  1  0  0  0  0
 21 22  1  0  0  0  0
 21 65  1  0  0  0  0
 21 66  1  0  0  0  0
 22 23  1  0  0  0  0
 23 24  1  0  0  0  0
 23 67  1  0  0  0  0
 23 68  1  0  0  0  0
 24 25  2  0  0  0  0
 24 26  1  0  0  0  0
 26 27  1  0  0  0  0
 26 32  1  0  0  0  0
 27 39  1  6  0  0  0
 27 28  1  0  0  0  0
 27 31  1  0  0  0  0
 28 29  2  0  0  0  0
 28 30  1  0  0  0  0
 30 69  1  0  0  0  0
 31 70  1  0  0  0  0
 31 71  1  0  0  0  0
 31 72  1  0  0  0  0
 32 73  1  0  0  0  0
 32 74  1  0  0  0  0
 32 75  1  0  0  0  0
 33 76  1  0  0  0  0
 33 77  1  0  0  0  0
 33 78  1  0  0  0  0
 34 79  1  0  0  0  0
M  END
>  <s_m_source_file>
BACE_5.smi

>  <i_m_source_file_index>
1

>  <i_lp_mmshare_version>
42013

>  <i_f3d_flags>
0

>  <s_epik_input>
W0NIM11bQ0gyXVtDSDJdYzFbY0hdYyhuW25IXTEpW0NIMl1bTkhdW0NIMl1bQ0BASF0oW09IXSlbQ0BASF0yW0NIMl1bQ0BIXShbQ0gzXSlbQ0gyXVtDSDJdW0NIMl1bQ0gyXVtDSDJdW0NIMl1PW0NIMl1DKD1PKU4oW0NIM10pW0NAQEhdKFtDSDNdKUMoPU8pW05IXTI=

>  <s_epik_cmdline>
J2VwaWtfcHl0aG9uJywgJy1waCcsICc3LjAnLCAnLXRuJywgJzgnLCAnLW1hJywgJzIwMCcsICctaW1hZScsICc8aW5maWxlLm1hZT4nLCAnLW9tYWUnLCAnPG91dGZpbGUubWFlPic=

>  <r_lp_tautomer_probability>
0.5

>  <r_epik_Ionization_Penalty>
0.9876

>  <r_epik_Ionization_Penalty_Charging>
0

>  <r_epik_Ionization_Penalty_Neutral>
0.9876

>  <r_epik_State_Penalty>
1.6104

>  <r_epik_Charging_Adjusted_Penalty>
1.61044

>  <i_epik_Tot_Q>
0

>  <i_epik_Tot_abs_Q>
0

>  <s_lp_Force_Field>
OPLS_2005

>  <r_lp_Energy>
32.3926

>  <b_lp_Chiralities_Consistent>
1

>  <s_lp_Variant>
BACE_5.smi:1-3

>  <chiral flag>
1

>  <version>
0

>  <r_i_glide_lipo>
-0.879821

>  <r_i_glide_hbond>
-0.816235

>  <r_i_glide_metal>
-0

>  <r_i_glide_rewards>
-0.14092

>  <r_i_glide_erotb>
0.52871

>  <r_i_glide_esite>
-0.0560036

>  <s_i_glide_gridfile>
second_dock_grid_2

>  <i_i_glide_lignum>
10

>  <i_i_glide_rotatable_bonds>
8

>  <r_i_docking_score>
-1.17445

>  <r_i_glide_ligand_efficiency>
-0.0345427

>  <r_i_glide_ligand_efficiency_sa>
-0.111905

>  <r_i_glide_ligand_efficiency_ln>
-0.259469

>  <r_glide_XP_GScore>
-2.78485

>  <r_i_glide_gscore>
-2.78485

>  <r_i_glide_evdw>
-34.852

>  <r_i_glide_ecoul>
-8.8756

>  <r_i_glide_energy>
-43.7276

>  <r_i_glide_einternal>
4.01338

>  <r_i_glide_emodel>
-58.5342

>  <r_glide_XP_HBond>
-0.9975

>  <i_i_glide_confnum>
1

>  <i_i_glide_posenum>
12

>  <r_i_glide_eff_state_penalty>
1.6104

>  <i_glide_XP_PoseRank>
9

>  <chiral flag>
1

$$$$
