BACE_5.smi:1
 OpenBabel10031817133D
Structure written by MMmdl.
 80 81  0  0  1  0  0  0  0  0999 V2000
   18.7741   41.1402  -11.4487 C   0  0  0  0  0  0  0  0  0  0  0  0
   19.6324   40.0526  -10.7975 C   0  0  0  0  0  0  0  0  0  0  0  0
   18.9779   38.6612  -10.8602 C   0  0  0  0  0  0  0  0  0  0  0  0
   17.9801   38.4086   -9.7784 C   0  0  0  0  0  0  0  0  0  0  0  0
   16.7259   39.0668   -9.5641 C   0  0  0  0  0  0  0  0  0  0  0  0
   16.2901   38.5483   -8.3774 C   0  0  0  0  0  0  0  0  0  0  0  0
   17.1937   37.5700   -8.0411 N   0  0  0  0  0  0  0  0  0  0  0  0
   18.2338   37.4768   -8.8790 N   0  0  0  0  0  0  0  0  0  0  0  0
   15.1627   38.8857   -7.4452 C   0  0  0  0  0  0  0  0  0  0  0  0
   14.8606   40.3298   -7.3411 N   0  3  0  0  0  0  0  0  0  0  0  0
   16.0017   41.2760   -7.3458 C   0  0  0  0  0  0  0  0  0  0  0  0
   15.8104   42.3538   -8.4359 C   0  0  2  0  0  0  0  0  0  0  0  0
   17.0275   43.3021   -8.6453 C   0  0  2  0  0  0  0  0  0  0  0  0
   17.6554   43.8145   -7.3322 C   0  0  0  0  0  0  0  0  0  0  0  0
   18.8905   44.7366   -7.4781 C   0  0  1  0  0  0  0  0  0  0  0  0
   19.2861   45.3282   -6.1063 C   0  0  0  0  0  0  0  0  0  0  0  0
   20.1685   46.5854   -6.1896 C   0  0  0  0  0  0  0  0  0  0  0  0
   19.3331   47.8559   -6.4623 C   0  0  0  0  0  0  0  0  0  0  0  0
   20.1882   49.1220   -6.7184 C   0  0  0  0  0  0  0  0  0  0  0  0
   21.0957   49.0627   -7.9683 C   0  0  0  0  0  0  0  0  0  0  0  0
   20.3608   48.7221   -9.2767 C   0  0  0  0  0  0  0  0  0  0  0  0
   19.3792   49.7142   -9.5411 O   0  0  0  0  0  0  0  0  0  0  0  0
   18.6173   49.4602  -10.7303 C   0  0  0  0  0  0  0  0  0  0  0  0
   17.5870   48.3306  -10.4969 C   0  0  0  0  0  0  0  0  0  0  0  0
   16.8945   48.4124   -9.4774 O   0  0  0  0  0  0  0  0  0  0  0  0
   17.4719   47.3021  -11.3806 N   0  0  0  0  0  0  0  0  0  0  0  0
   16.4842   46.2187  -11.1096 C   0  0  2  0  0  0  0  0  0  0  0  0
   17.1682   44.9714  -10.5294 C   0  0  0  0  0  0  0  0  0  0  0  0
   18.1754   44.5028  -11.0425 O   0  0  0  0  0  0  0  0  0  0  0  0
   16.5817   44.4427   -9.4455 N   0  0  0  0  0  0  0  0  0  0  0  0
   15.6907   45.8437  -12.3760 C   0  0  0  0  0  0  0  0  0  0  0  0
   18.3794   47.1602  -12.5293 C   0  0  0  0  0  0  0  0  0  0  0  0
   20.0799   44.0045   -8.1265 C   0  0  0  0  0  0  0  0  0  0  0  0
   14.6935   43.1234   -8.0397 O   0  0  0  0  0  0  0  0  0  0  0  0
   17.0631   36.9619   -7.2260 H   0  0  0  0  0  0  0  0  0  0  0  0
   15.5709   41.8925   -9.3907 H   0  0  0  0  0  0  0  0  0  0  0  0
   17.7868   42.7427   -9.1829 H   0  0  0  0  0  0  0  0  0  0  0  0
   18.6134   45.5691   -8.1222 H   0  0  0  0  0  0  0  0  0  0  0  0
   15.7297   46.5607  -10.3923 H   0  0  0  0  0  0  0  0  0  0  0  0
   19.2953   42.0973  -11.4914 H   0  0  0  0  0  0  0  0  0  0  0  0
   17.8321   41.2859  -10.9096 H   0  0  0  0  0  0  0  0  0  0  0  0
   18.5192   40.8737  -12.4702 H   0  0  0  0  0  0  0  0  0  0  0  0
   19.8903   40.3245   -9.7722 H   0  0  0  0  0  0  0  0  0  0  0  0
   20.5742   40.0094  -11.3620 H   0  0  0  0  0  0  0  0  0  0  0  0
   19.7599   37.9017  -10.8280 H   0  0  0  0  0  0  0  0  0  0  0  0
   18.4840   38.5572  -11.8190 H   0  0  0  0  0  0  0  0  0  0  0  0
   16.2635   39.8487  -10.1439 H   0  0  0  0  0  0  0  0  0  0  0  0
   15.4356   38.5526   -6.4415 H   0  0  0  0  0  0  0  0  0  0  0  0
   14.2638   38.3350   -7.7188 H   0  0  0  0  0  0  0  0  0  0  0  0
   14.3321   40.4753   -6.4860 H   0  0  0  0  0  0  0  0  0  0  0  0
   16.9695   40.7860   -7.4406 H   0  0  0  0  0  0  0  0  0  0  0  0
   16.0396   41.7331   -6.3576 H   0  0  0  0  0  0  0  0  0  0  0  0
   16.8898   44.3394   -6.7608 H   0  0  0  0  0  0  0  0  0  0  0  0
   17.9547   42.9686   -6.7129 H   0  0  0  0  0  0  0  0  0  0  0  0
   18.3869   45.5785   -5.5438 H   0  0  0  0  0  0  0  0  0  0  0  0
   19.8010   44.5593   -5.5293 H   0  0  0  0  0  0  0  0  0  0  0  0
   20.9301   46.4600   -6.9566 H   0  0  0  0  0  0  0  0  0  0  0  0
   20.7043   46.7037   -5.2401 H   0  0  0  0  0  0  0  0  0  0  0  0
   18.6674   47.7028   -7.3028 H   0  0  0  0  0  0  0  0  0  0  0  0
   18.6924   48.0433   -5.6037 H   0  0  0  0  0  0  0  0  0  0  0  0
   20.8019   49.3257   -5.8406 H   0  0  0  0  0  0  0  0  0  0  0  0
   19.5124   49.9727   -6.8232 H   0  0  0  0  0  0  0  0  0  0  0  0
   21.5929   50.0267   -8.0859 H   0  0  0  0  0  0  0  0  0  0  0  0
   21.8881   48.3441   -7.8112 H   0  0  0  0  0  0  0  0  0  0  0  0
   19.9132   47.7222   -9.2072 H   0  0  0  0  0  0  0  0  0  0  0  0
   21.0777   48.6903  -10.1030 H   0  0  0  0  0  0  0  0  0  0  0  0
   19.2895   49.3075  -11.5691 H   0  0  0  0  0  0  0  0  0  0  0  0
   18.0514   50.3610  -10.9624 H   0  0  0  0  0  0  0  0  0  0  0  0
   15.7249   44.8761   -9.1326 H   0  0  0  0  0  0  0  0  0  0  0  0
   14.8495   45.2119  -12.1075 H   0  0  0  0  0  0  0  0  0  0  0  0
   16.2915   45.2766  -13.0843 H   0  0  0  0  0  0  0  0  0  0  0  0
   15.2975   46.7313  -12.8689 H   0  0  0  0  0  0  0  0  0  0  0  0
   18.2280   46.2533  -13.0971 H   0  0  0  0  0  0  0  0  0  0  0  0
   19.4217   47.1250  -12.1931 H   0  0  0  0  0  0  0  0  0  0  0  0
   18.2615   47.9951  -13.2221 H   0  0  0  0  0  0  0  0  0  0  0  0
   20.9656   44.6423   -8.1981 H   0  0  0  0  0  0  0  0  0  0  0  0
   19.8570   43.6859   -9.1439 H   0  0  0  0  0  0  0  0  0  0  0  0
   20.3551   43.1153   -7.5605 H   0  0  0  0  0  0  0  0  0  0  0  0
   14.8595   43.3501   -7.1182 H   0  0  0  0  0  0  0  0  0  0  0  0
   14.2572   40.5720   -8.1045 H   0  0  0  0  0  0  0  0  0  0  0  0
  1  2  1  0  0  0  0
  1 40  1  0  0  0  0
  1 41  1  0  0  0  0
  1 42  1  0  0  0  0
  2  3  1  0  0  0  0
  2 43  1  0  0  0  0
  2 44  1  0  0  0  0
  3 45  1  0  0  0  0
  3 46  1  0  0  0  0
  3  4  1  0  0  0  0
  4  8  2  0  0  0  0
  4  5  1  0  0  0  0
  5  6  2  0  0  0  0
  5 47  1  0  0  0  0
  6  7  1  0  0  0  0
  6  9  1  0  0  0  0
  7  8  1  0  0  0  0
  7 35  1  0  0  0  0
  9 10  1  0  0  0  0
  9 48  1  0  0  0  0
  9 49  1  0  0  0  0
 10 11  1  0  0  0  0
 10 50  1  0  0  0  0
 10 80  1  0  0  0  0
 11 12  1  0  0  0  0
 11 51  1  0  0  0  0
 11 52  1  0  0  0  0
 12 36  1  6  0  0  0
 12 13  1  0  0  0  0
 12 34  1  0  0  0  0
 13 37  1  6  0  0  0
 13 30  1  0  0  0  0
 13 14  1  0  0  0  0
 14 15  1  0  0  0  0
 14 53  1  0  0  0  0
 14 54  1  0  0  0  0
 15 38  1  6  0  0  0
 15 16  1  0  0  0  0
 15 33  1  0  0  0  0
 16 17  1  0  0  0  0
 16 55  1  0  0  0  0
 16 56  1  0  0  0  0
 17 18  1  0  0  0  0
 17 57  1  0  0  0  0
 17 58  1  0  0  0  0
 18 19  1  0  0  0  0
 18 59  1  0  0  0  0
 18 60  1  0  0  0  0
 19 20  1  0  0  0  0
 19 61  1  0  0  0  0
 19 62  1  0  0  0  0
 20 21  1  0  0  0  0
 20 63  1  0  0  0  0
 20 64  1  0  0  0  0
 21 22  1  0  0  0  0
 21 65  1  0  0  0  0
 21 66  1  0  0  0  0
 22 23  1  0  0  0  0
 23 24  1  0  0  0  0
 23 67  1  0  0  0  0
 23 68  1  0  0  0  0
 24 25  2  0  0  0  0
 24 26  1  0  0  0  0
 26 27  1  0  0  0  0
 26 32  1  0  0  0  0
 27 39  1  1  0  0  0
 27 28  1  0  0  0  0
 27 31  1  0  0  0  0
 28 29  2  0  0  0  0
 28 30  1  0  0  0  0
 30 69  1  0  0  0  0
 31 70  1  0  0  0  0
 31 71  1  0  0  0  0
 31 72  1  0  0  0  0
 32 73  1  0  0  0  0
 32 74  1  0  0  0  0
 32 75  1  0  0  0  0
 33 76  1  0  0  0  0
 33 77  1  0  0  0  0
 33 78  1  0  0  0  0
 34 79  1  0  0  0  0
M  CHG  1  10   1
M  END
>  <s_m_source_file>
BACE_5.smi

>  <i_m_source_file_index>
1

>  <i_lp_mmshare_version>
42013

>  <i_f3d_flags>
0

>  <s_epik_input>
W0NIM11bQ0gyXVtDSDJdYzFbY0hdYyhuW25IXTEpW0NIMl1bTkhdW0NIMl1bQ0BASF0oW09IXSlbQ0BASF0yW0NIMl1bQ0BIXShbQ0gzXSlbQ0gyXVtDSDJdW0NIMl1bQ0gyXVtDSDJdW0NIMl1PW0NIMl1DKD1PKU4oW0NIM10pW0NAQEhdKFtDSDNdKUMoPU8pW05IXTI=

>  <s_epik_cmdline>
J2VwaWtfcHl0aG9uJywgJy1waCcsICc3LjAnLCAnLXRuJywgJzgnLCAnLW1hJywgJzIwMCcsICctaW1hZScsICc8aW5maWxlLm1hZT4nLCAnLW9tYWUnLCAnPG91dGZpbGUubWFlPic=

>  <r_lp_tautomer_probability>
0.5

>  <r_epik_Ionization_Penalty>
0.124

>  <r_epik_Ionization_Penalty_Charging>
0.124

>  <r_epik_Ionization_Penalty_Neutral>
0

>  <r_epik_State_Penalty>
0.5558

>  <r_epik_Charging_Adjusted_Penalty>
0.67982

>  <i_epik_Tot_Q>
1

>  <i_epik_Tot_abs_Q>
1

>  <s_lp_Force_Field>
OPLS_2005

>  <r_lp_Energy>
33.612

>  <b_lp_Chiralities_Consistent>
1

>  <s_lp_Variant>
BACE_5.smi:1-2

>  <chiral flag>
1

>  <version>
0

>  <r_i_glide_lipo>
-0.902944

>  <r_i_glide_hbond>
-0.32

>  <r_i_glide_metal>
-0

>  <r_i_glide_rewards>
-0.131837

>  <r_i_glide_erotb>
0.526685

>  <r_i_glide_esite>
-0.0739927

>  <s_i_glide_gridfile>
second_dock_grid_2

>  <i_i_glide_lignum>
9

>  <i_i_glide_rotatable_bonds>
8

>  <r_i_docking_score>
-4.0315

>  <r_i_glide_ligand_efficiency>
-0.118573

>  <r_i_glide_ligand_efficiency_sa>
-0.384132

>  <r_i_glide_ligand_efficiency_ln>
-0.890671

>  <r_glide_XP_GScore>
-4.5873

>  <r_i_glide_gscore>
-4.5873

>  <r_i_glide_evdw>
-26.8153

>  <r_i_glide_ecoul>
-21.1455

>  <r_i_glide_energy>
-47.9608

>  <r_i_glide_einternal>
8.88898

>  <r_i_glide_emodel>
-60.2071

>  <r_glide_XP_HBond>
-2.11239

>  <i_i_glide_confnum>
1

>  <i_i_glide_posenum>
10

>  <r_i_glide_eff_state_penalty>
0.5558

>  <i_glide_XP_PoseRank>
3

>  <chiral flag>
1

$$$$
