BACE_9.smi:1
 OpenBabel10031817133D
Structure written by MMmdl.
 87 89  0  0  1  0  0  0  0  0999 V2000
   21.0688   46.1457   -7.3396 C   0  0  0  0  0  0  0  0  0  0  0  0
   20.7694   44.7996   -8.0164 C   0  0  2  0  0  0  0  0  0  0  0  0
   22.0933   44.1274   -8.4524 C   0  0  0  0  0  0  0  0  0  0  0  0
   21.9066   42.7144   -9.0197 C   0  0  0  0  0  0  0  0  0  0  0  0
   23.2170   41.9670   -9.3042 C   0  0  0  0  0  0  0  0  0  0  0  0
   22.9452   40.5420   -9.8056 C   0  0  0  0  0  0  0  0  0  0  0  0
   22.5902   39.5622   -8.6678 C   0  0  0  0  0  0  0  0  0  0  0  0
   21.9706   38.2333   -9.1399 C   0  0  0  0  0  0  0  0  0  0  0  0
   20.4493   38.2861   -9.3156 C   0  0  0  0  0  0  0  0  0  0  0  0
   20.0823   38.9484  -10.5503 N   0  0  0  0  0  0  0  0  0  0  0  0
   18.8481   39.5984  -10.5286 C   0  0  0  0  0  0  0  0  0  0  0  0
   17.6816   38.9665  -10.0409 C   0  0  0  0  0  0  0  0  0  0  0  0
   16.4492   39.6479  -10.0729 C   0  0  0  0  0  0  0  0  0  0  0  0
   16.3894   40.9609  -10.5793 C   0  0  0  0  0  0  0  0  0  0  0  0
   17.5630   41.6195  -10.9942 C   0  0  0  0  0  0  0  0  0  0  0  0
   18.7849   40.9224  -10.9977 C   0  0  0  0  0  0  0  0  0  0  0  0
   17.5066   43.0456  -11.4388 C   0  0  0  0  0  0  0  0  0  0  0  0
   16.8610   43.3503  -12.4400 O   0  0  0  0  0  0  0  0  0  0  0  0
   18.1879   43.9619  -10.7280 N   0  0  0  0  0  0  0  0  0  0  0  0
   18.7302   43.8530   -9.3628 C   0  0  1  0  0  0  0  0  0  0  0  0
   19.7713   44.9873   -9.1891 C   0  0  0  0  0  0  0  0  0  0  0  0
   17.6160   43.9188   -8.2659 C   0  0  1  0  0  0  0  0  0  0  0  0
   16.4637   44.9113   -8.5814 C   0  0  0  0  0  0  0  0  0  0  0  0
   15.1347   44.5794   -8.0400 N   0  0  0  0  0  0  0  0  0  0  0  0
   14.3725   43.5141   -8.7330 C   0  0  0  0  0  0  0  0  0  0  0  0
   13.8630   43.7694  -10.1560 C   0  0  0  0  0  0  0  0  0  0  0  0
   13.0733   42.7792  -10.7752 C   0  0  0  0  0  0  0  0  0  0  0  0
   12.5760   42.9736  -12.0801 C   0  0  0  0  0  0  0  0  0  0  0  0
   12.8602   44.1616  -12.7827 C   0  0  0  0  0  0  0  0  0  0  0  0
   13.6339   45.1763  -12.1776 C   0  0  0  0  0  0  0  0  0  0  0  0
   14.1363   44.9498  -10.8799 C   0  0  0  0  0  0  0  0  0  0  0  0
   13.8991   46.5366  -12.8357 C   0  0  0  0  0  0  0  0  0  0  0  0
   13.1296   46.8063  -14.1403 C   0  0  0  0  0  0  0  0  0  0  0  0
   15.4018   46.8349  -12.9964 C   0  0  0  0  0  0  0  0  0  0  0  0
   17.1962   42.6024   -7.9753 O   0  0  0  0  0  0  0  0  0  0  0  0
   15.1774   38.9764   -9.5912 C   0  0  0  0  0  0  0  0  0  0  0  0
   14.5426   39.7009   -8.5503 O   0  0  0  0  0  0  0  0  0  0  0  0
   15.1597   39.5372   -7.2784 C   0  0  0  0  0  0  0  0  0  0  0  0
   20.3133   44.1645   -7.2564 H   0  0  0  0  0  0  0  0  0  0  0  0
   19.2508   42.9051   -9.2608 H   0  0  0  0  0  0  0  0  0  0  0  0
   18.0613   44.2456   -7.3272 H   0  0  0  0  0  0  0  0  0  0  0  0
   21.5319   46.8436   -8.0360 H   0  0  0  0  0  0  0  0  0  0  0  0
   21.7452   46.0187   -6.4935 H   0  0  0  0  0  0  0  0  0  0  0  0
   20.1575   46.6081   -6.9612 H   0  0  0  0  0  0  0  0  0  0  0  0
   22.6059   44.7491   -9.1864 H   0  0  0  0  0  0  0  0  0  0  0  0
   22.7581   44.0675   -7.5888 H   0  0  0  0  0  0  0  0  0  0  0  0
   21.2985   42.1369   -8.3243 H   0  0  0  0  0  0  0  0  0  0  0  0
   21.3491   42.7701   -9.9530 H   0  0  0  0  0  0  0  0  0  0  0  0
   23.7785   42.5119  -10.0650 H   0  0  0  0  0  0  0  0  0  0  0  0
   23.8501   41.9377   -8.4164 H   0  0  0  0  0  0  0  0  0  0  0  0
   22.1580   40.5783  -10.5554 H   0  0  0  0  0  0  0  0  0  0  0  0
   23.8226   40.1694  -10.3341 H   0  0  0  0  0  0  0  0  0  0  0  0
   23.5065   39.3499   -8.1124 H   0  0  0  0  0  0  0  0  0  0  0  0
   21.9188   40.0253   -7.9452 H   0  0  0  0  0  0  0  0  0  0  0  0
   22.4600   37.8680  -10.0402 H   0  0  0  0  0  0  0  0  0  0  0  0
   22.1618   37.4830   -8.3793 H   0  0  0  0  0  0  0  0  0  0  0  0
   20.0414   37.2805   -9.3414 H   0  0  0  0  0  0  0  0  0  0  0  0
   19.9918   38.7825   -8.4578 H   0  0  0  0  0  0  0  0  0  0  0  0
   20.8338   39.4667  -10.9809 H   0  0  0  0  0  0  0  0  0  0  0  0
   17.7232   37.9524   -9.6720 H   0  0  0  0  0  0  0  0  0  0  0  0
   15.4429   41.4740  -10.6031 H   0  0  0  0  0  0  0  0  0  0  0  0
   19.6826   41.4127  -11.3483 H   0  0  0  0  0  0  0  0  0  0  0  0
   18.1819   44.8923  -11.1163 H   0  0  0  0  0  0  0  0  0  0  0  0
   19.2259   45.9240   -9.0634 H   0  0  0  0  0  0  0  0  0  0  0  0
   20.3411   45.1190  -10.1109 H   0  0  0  0  0  0  0  0  0  0  0  0
   16.7623   45.8848   -8.1917 H   0  0  0  0  0  0  0  0  0  0  0  0
   16.3955   45.0755   -9.6476 H   0  0  0  0  0  0  0  0  0  0  0  0
   15.2599   44.2690   -7.0717 H   0  0  0  0  0  0  0  0  0  0  0  0
   14.9220   42.5758   -8.7398 H   0  0  0  0  0  0  0  0  0  0  0  0
   13.4827   43.3029   -8.1385 H   0  0  0  0  0  0  0  0  0  0  0  0
   12.8492   41.8635  -10.2454 H   0  0  0  0  0  0  0  0  0  0  0  0
   11.9715   42.2092  -12.5461 H   0  0  0  0  0  0  0  0  0  0  0  0
   12.4627   44.2795  -13.7806 H   0  0  0  0  0  0  0  0  0  0  0  0
   14.6951   45.7494  -10.4254 H   0  0  0  0  0  0  0  0  0  0  0  0
   13.5159   47.2663  -12.1255 H   0  0  0  0  0  0  0  0  0  0  0  0
   12.0603   46.6876  -13.9945 H   0  0  0  0  0  0  0  0  0  0  0  0
   13.4175   46.1497  -14.9573 H   0  0  0  0  0  0  0  0  0  0  0  0
   13.2911   47.8286  -14.4814 H   0  0  0  0  0  0  0  0  0  0  0  0
   15.9212   46.8196  -12.0391 H   0  0  0  0  0  0  0  0  0  0  0  0
   15.5593   47.8227  -13.4290 H   0  0  0  0  0  0  0  0  0  0  0  0
   15.8979   46.1143  -13.6399 H   0  0  0  0  0  0  0  0  0  0  0  0
   16.7228   42.5910   -7.1544 H   0  0  0  0  0  0  0  0  0  0  0  0
   14.4890   38.9494  -10.4378 H   0  0  0  0  0  0  0  0  0  0  0  0
   15.3568   37.9407   -9.2981 H   0  0  0  0  0  0  0  0  0  0  0  0
   14.6287   40.1277   -6.5312 H   0  0  0  0  0  0  0  0  0  0  0  0
   16.1989   39.8715   -7.2912 H   0  0  0  0  0  0  0  0  0  0  0  0
   15.1313   38.4938   -6.9578 H   0  0  0  0  0  0  0  0  0  0  0  0
  1  2  1  0  0  0  0
  1 42  1  0  0  0  0
  1 43  1  0  0  0  0
  1 44  1  0  0  0  0
  2 39  1  1  0  0  0
  2 21  1  0  0  0  0
  2  3  1  0  0  0  0
  3  4  1  0  0  0  0
  3 45  1  0  0  0  0
  3 46  1  0  0  0  0
  4  5  1  0  0  0  0
  4 47  1  0  0  0  0
  4 48  1  0  0  0  0
  5  6  1  0  0  0  0
  5 49  1  0  0  0  0
  5 50  1  0  0  0  0
  6  7  1  0  0  0  0
  6 51  1  0  0  0  0
  6 52  1  0  0  0  0
  7  8  1  0  0  0  0
  7 53  1  0  0  0  0
  7 54  1  0  0  0  0
  8  9  1  0  0  0  0
  8 55  1  0  0  0  0
  8 56  1  0  0  0  0
  9 10  1  0  0  0  0
  9 57  1  0  0  0  0
  9 58  1  0  0  0  0
 10 11  1  0  0  0  0
 10 59  1  0  0  0  0
 11 16  1  0  0  0  0
 11 12  2  0  0  0  0
 12 13  1  0  0  0  0
 12 60  1  0  0  0  0
 13 14  2  0  0  0  0
 13 36  1  0  0  0  0
 14 15  1  0  0  0  0
 14 61  1  0  0  0  0
 15 16  2  0  0  0  0
 15 17  1  0  0  0  0
 16 62  1  0  0  0  0
 17 18  2  0  0  0  0
 17 19  1  0  0  0  0
 19 20  1  0  0  0  0
 19 63  1  0  0  0  0
 20 40  1  1  0  0  0
 20 21  1  0  0  0  0
 20 22  1  0  0  0  0
 21 64  1  0  0  0  0
 21 65  1  0  0  0  0
 22 41  1  1  0  0  0
 22 23  1  0  0  0  0
 22 35  1  0  0  0  0
 23 24  1  0  0  0  0
 23 66  1  0  0  0  0
 23 67  1  0  0  0  0
 24 25  1  0  0  0  0
 24 68  1  0  0  0  0
 25 26  1  0  0  0  0
 25 69  1  0  0  0  0
 25 70  1  0  0  0  0
 26 31  1  0  0  0  0
 26 27  2  0  0  0  0
 27 28  1  0  0  0  0
 27 71  1  0  0  0  0
 28 29  2  0  0  0  0
 28 72  1  0  0  0  0
 29 30  1  0  0  0  0
 29 73  1  0  0  0  0
 30 31  2  0  0  0  0
 30 32  1  0  0  0  0
 31 74  1  0  0  0  0
 32 33  1  0  0  0  0
 32 34  1  0  0  0  0
 32 75  1  0  0  0  0
 33 76  1  0  0  0  0
 33 77  1  0  0  0  0
 33 78  1  0  0  0  0
 34 79  1  0  0  0  0
 34 80  1  0  0  0  0
 34 81  1  0  0  0  0
 35 82  1  0  0  0  0
 36 37  1  0  0  0  0
 36 83  1  0  0  0  0
 36 84  1  0  0  0  0
 37 38  1  0  0  0  0
 38 85  1  0  0  0  0
 38 86  1  0  0  0  0
 38 87  1  0  0  0  0
M  END
>  <s_m_source_file>
BACE_9.smi

>  <i_m_source_file_index>
1

>  <i_lp_mmshare_version>
42013

>  <i_f3d_flags>
0

>  <s_epik_input>
W05IXTFbQ0gyXVtDSDJdW0NIMl1bQ0gyXVtDSDJdW0NIMl1bQ0gyXVtDQEBIXShbQ0gzXSlbQ0gyXVtDQEhdKFtOSF1DKD1PKWMoW2NIXTIpW2NIXWMoW2NIXWMxMilbQ0gyXU9bQ0gzXSlbQ0BIXShbT0hdKVtDSDJdW05IXVtDSDJdYzNbY0hdW2NIXVtjSF1jKFtjSF0zKVtDSF0oW0NIM10pW0NIM10=

>  <s_epik_cmdline>
J2VwaWtfcHl0aG9uJywgJy1waCcsICc3LjAnLCAnLXRuJywgJzgnLCAnLW1hJywgJzIwMCcsICctaW1hZScsICc8aW5maWxlLm1hZT4nLCAnLW9tYWUnLCAnPG91dGZpbGUubWFlPic=

>  <r_epik_Ionization_Penalty>
2.13

>  <r_epik_Ionization_Penalty_Charging>
0

>  <r_epik_Ionization_Penalty_Neutral>
2.13

>  <r_epik_State_Penalty>
2.2676

>  <r_epik_Charging_Adjusted_Penalty>
2.26762

>  <i_epik_Tot_Q>
0

>  <i_epik_Tot_abs_Q>
0

>  <s_lp_Force_Field>
OPLS_2005

>  <r_lp_Energy>
47.2954

>  <b_lp_Chiralities_Consistent>
1

>  <s_lp_Variant>
BACE_9.smi:1-2

>  <chiral flag>
1

>  <version>
0

>  <r_i_glide_lipo>
-0.947222

>  <r_i_glide_hbond>
-0.319819

>  <r_i_glide_metal>
-0

>  <r_i_glide_rewards>
0

>  <r_i_glide_erotb>
0.44997

>  <r_i_glide_esite>
-0.00440583

>  <s_i_glide_gridfile>
second_dock_grid_2

>  <i_i_glide_lignum>
19

>  <i_i_glide_rotatable_bonds>
9

>  <r_i_docking_score>
-0.773477

>  <r_i_glide_ligand_efficiency>
-0.0203546

>  <r_i_glide_ligand_efficiency_sa>
-0.0684318

>  <r_i_glide_ligand_efficiency_ln>
-0.166784

>  <r_glide_XP_GScore>
-3.04108

>  <r_i_glide_gscore>
-3.04108

>  <r_i_glide_evdw>
-34.8025

>  <r_i_glide_ecoul>
-11.63

>  <r_i_glide_energy>
-46.4325

>  <r_i_glide_einternal>
9.63722

>  <r_i_glide_emodel>
-58.4904

>  <r_glide_XP_HBond>
-1.62339

>  <i_i_glide_confnum>
1

>  <i_i_glide_posenum>
29

>  <r_i_glide_eff_state_penalty>
2.2676

>  <i_glide_XP_PoseRank>
5

>  <chiral flag>
1

$$$$
