BACE_15.smi:1
 OpenBabel10031817133D
Structure written by MMmdl.
 82 85  0  0  1  0  0  0  0  0999 V2000
   16.6620   36.3219   -9.3078 C   0  0  0  0  0  0  0  0  0  0  0  0
   16.6686   37.7914   -8.8794 C   0  0  0  0  0  0  0  0  0  0  0  0
   16.2764   38.7456  -10.0155 C   0  0  0  0  0  0  0  0  0  0  0  0
   18.0046   38.1799   -8.2690 C   0  0  0  0  0  0  0  0  0  0  0  0
   18.0447   38.5756   -6.9202 C   0  0  0  0  0  0  0  0  0  0  0  0
   19.2605   38.9521   -6.3344 C   0  0  0  0  0  0  0  0  0  0  0  0
   20.4495   38.9427   -7.0837 C   0  0  0  0  0  0  0  0  0  0  0  0
   20.4243   38.5546   -8.4379 C   0  0  0  0  0  0  0  0  0  0  0  0
   19.2003   38.1631   -9.0259 C   0  0  0  0  0  0  0  0  0  0  0  0
   21.7055   38.6131   -9.2494 C   0  0  0  0  0  0  0  0  0  0  0  0
   21.7990   39.8617   -9.9994 N   0  0  0  0  0  0  0  0  0  0  0  0
   21.2327   39.7875  -11.3434 C   0  0  0  0  0  0  0  0  0  0  0  0
   20.7280   41.1459  -11.8644 C   0  0  2  0  0  0  0  0  0  0  0  0
   19.4157   41.6241  -11.1726 C   0  0  2  0  0  0  0  0  0  0  0  0
   18.6055   42.6771  -11.9884 C   0  0  0  0  0  0  0  0  0  0  0  0
   17.4294   43.2786  -11.2267 C   0  0  0  0  0  0  0  0  0  0  0  0
   16.3131   42.4739  -10.9234 C   0  0  0  0  0  0  0  0  0  0  0  0
   15.2605   42.9927  -10.1496 C   0  0  0  0  0  0  0  0  0  0  0  0
   15.3244   44.3152   -9.6740 C   0  0  0  0  0  0  0  0  0  0  0  0
   16.4269   45.1430   -9.9742 C   0  0  0  0  0  0  0  0  0  0  0  0
   17.4708   44.6179  -10.7787 C   0  0  0  0  0  0  0  0  0  0  0  0
   16.4033   46.4140   -9.4366 O   0  0  0  0  0  0  0  0  0  0  0  0
   17.5454   47.2607   -9.5399 C   0  0  0  0  0  0  0  0  0  0  0  0
   17.5765   48.1701   -8.2998 C   0  0  0  0  0  0  0  0  0  0  0  0
   17.8549   47.3958   -6.9937 C   0  0  0  0  0  0  0  0  0  0  0  0
   19.3298   47.4199   -6.5559 C   0  0  0  0  0  0  0  0  0  0  0  0
   19.6114   46.3625   -5.6410 O   0  0  0  0  0  0  0  0  0  0  0  0
   19.9584   45.1235   -6.1483 C   0  0  0  0  0  0  0  0  0  0  0  0
   20.3730   44.1467   -5.2271 C   0  0  0  0  0  0  0  0  0  0  0  0
   20.7514   42.8523   -5.6397 C   0  0  0  0  0  0  0  0  0  0  0  0
   20.7059   42.5266   -7.0123 C   0  0  0  0  0  0  0  0  0  0  0  0
   20.3012   43.4918   -7.9579 C   0  0  0  0  0  0  0  0  0  0  0  0
   19.9365   44.7816   -7.5222 C   0  0  0  0  0  0  0  0  0  0  0  0
   20.3010   43.1912   -9.4251 C   0  0  0  0  0  0  0  0  0  0  0  0
   20.7908   43.9927  -10.2216 O   0  0  0  0  0  0  0  0  0  0  0  0
   19.6629   42.0684   -9.7934 N   0  0  0  0  0  0  0  0  0  0  0  0
   21.2397   41.8115   -4.6395 C   0  0  0  0  0  0  0  0  0  0  0  0
   21.2950   42.2585   -3.2876 O   0  0  0  0  0  0  0  0  0  0  0  0
   20.0659   42.1179   -2.5874 C   0  0  0  0  0  0  0  0  0  0  0  0
   20.4957   40.9273  -13.2400 O   0  0  0  0  0  0  0  0  0  0  0  0
   21.5123   41.8996  -11.7860 H   0  0  0  0  0  0  0  0  0  0  0  0
   18.7639   40.7557  -11.0721 H   0  0  0  0  0  0  0  0  0  0  0  0
   16.8456   35.6737   -8.4513 H   0  0  0  0  0  0  0  0  0  0  0  0
   17.4439   36.1345  -10.0399 H   0  0  0  0  0  0  0  0  0  0  0  0
   15.7055   36.0395   -9.7479 H   0  0  0  0  0  0  0  0  0  0  0  0
   15.9073   37.8910   -8.1042 H   0  0  0  0  0  0  0  0  0  0  0  0
   16.2157   39.7682   -9.6439 H   0  0  0  0  0  0  0  0  0  0  0  0
   15.2996   38.4900  -10.4251 H   0  0  0  0  0  0  0  0  0  0  0  0
   17.0017   38.7318  -10.8308 H   0  0  0  0  0  0  0  0  0  0  0  0
   17.1411   38.5886   -6.3253 H   0  0  0  0  0  0  0  0  0  0  0  0
   19.2599   39.2709   -5.3037 H   0  0  0  0  0  0  0  0  0  0  0  0
   21.3765   39.2487   -6.6207 H   0  0  0  0  0  0  0  0  0  0  0  0
   19.1698   37.8638  -10.0621 H   0  0  0  0  0  0  0  0  0  0  0  0
   22.5468   38.5428   -8.5602 H   0  0  0  0  0  0  0  0  0  0  0  0
   21.7872   37.7492   -9.9075 H   0  0  0  0  0  0  0  0  0  0  0  0
   22.7687   40.1647  -10.0440 H   0  0  0  0  0  0  0  0  0  0  0  0
   22.0011   39.4038  -12.0145 H   0  0  0  0  0  0  0  0  0  0  0  0
   20.4109   39.0720  -11.3874 H   0  0  0  0  0  0  0  0  0  0  0  0
   19.2613   43.4823  -12.3180 H   0  0  0  0  0  0  0  0  0  0  0  0
   18.2201   42.2190  -12.8986 H   0  0  0  0  0  0  0  0  0  0  0  0
   16.2735   41.4497  -11.2624 H   0  0  0  0  0  0  0  0  0  0  0  0
   14.4175   42.3653   -9.8992 H   0  0  0  0  0  0  0  0  0  0  0  0
   14.5261   44.6965   -9.0569 H   0  0  0  0  0  0  0  0  0  0  0  0
   18.3335   45.2125  -11.0396 H   0  0  0  0  0  0  0  0  0  0  0  0
   18.4899   46.7271   -9.5951 H   0  0  0  0  0  0  0  0  0  0  0  0
   17.4566   47.8569  -10.4466 H   0  0  0  0  0  0  0  0  0  0  0  0
   18.3199   48.9563   -8.4300 H   0  0  0  0  0  0  0  0  0  0  0  0
   16.6201   48.6833   -8.2232 H   0  0  0  0  0  0  0  0  0  0  0  0
   17.2596   47.8193   -6.1848 H   0  0  0  0  0  0  0  0  0  0  0  0
   17.5127   46.3670   -7.1058 H   0  0  0  0  0  0  0  0  0  0  0  0
   20.0158   47.4169   -7.4041 H   0  0  0  0  0  0  0  0  0  0  0  0
   19.5277   48.3626   -6.0435 H   0  0  0  0  0  0  0  0  0  0  0  0
   20.4103   44.4115   -4.1837 H   0  0  0  0  0  0  0  0  0  0  0  0
   21.0140   41.5464   -7.3434 H   0  0  0  0  0  0  0  0  0  0  0  0
   19.6367   45.4939   -8.2695 H   0  0  0  0  0  0  0  0  0  0  0  0
   19.2928   41.4802   -9.0588 H   0  0  0  0  0  0  0  0  0  0  0  0
   20.6332   40.9096   -4.7203 H   0  0  0  0  0  0  0  0  0  0  0  0
   22.2530   41.5273   -4.9300 H   0  0  0  0  0  0  0  0  0  0  0  0
   20.1774   42.5124   -1.5774 H   0  0  0  0  0  0  0  0  0  0  0  0
   19.7720   41.0686   -2.5096 H   0  0  0  0  0  0  0  0  0  0  0  0
   19.2598   42.6673   -3.0739 H   0  0  0  0  0  0  0  0  0  0  0  0
   21.3074   40.6073  -13.6096 H   0  0  0  0  0  0  0  0  0  0  0  0
  1  2  1  0  0  0  0
  1 43  1  0  0  0  0
  1 44  1  0  0  0  0
  1 45  1  0  0  0  0
  2  3  1  0  0  0  0
  2  4  1  0  0  0  0
  2 46  1  0  0  0  0
  3 47  1  0  0  0  0
  3 48  1  0  0  0  0
  3 49  1  0  0  0  0
  4  9  1  0  0  0  0
  4  5  2  0  0  0  0
  5  6  1  0  0  0  0
  5 50  1  0  0  0  0
  6  7  2  0  0  0  0
  6 51  1  0  0  0  0
  7  8  1  0  0  0  0
  7 52  1  0  0  0  0
  8  9  2  0  0  0  0
  8 10  1  0  0  0  0
  9 53  1  0  0  0  0
 10 11  1  0  0  0  0
 10 54  1  0  0  0  0
 10 55  1  0  0  0  0
 11 12  1  0  0  0  0
 11 56  1  0  0  0  0
 12 13  1  0  0  0  0
 12 57  1  0  0  0  0
 12 58  1  0  0  0  0
 13 41  1  1  0  0  0
 13 14  1  0  0  0  0
 13 40  1  0  0  0  0
 14 42  1  1  0  0  0
 14 36  1  0  0  0  0
 14 15  1  0  0  0  0
 15 16  1  0  0  0  0
 15 59  1  0  0  0  0
 15 60  1  0  0  0  0
 16 21  1  0  0  0  0
 16 17  2  0  0  0  0
 17 18  1  0  0  0  0
 17 61  1  0  0  0  0
 18 19  2  0  0  0  0
 18 62  1  0  0  0  0
 19 20  1  0  0  0  0
 19 63  1  0  0  0  0
 20 21  2  0  0  0  0
 20 22  1  0  0  0  0
 21 64  1  0  0  0  0
 22 23  1  0  0  0  0
 23 24  1  0  0  0  0
 23 65  1  0  0  0  0
 23 66  1  0  0  0  0
 24 25  1  0  0  0  0
 24 67  1  0  0  0  0
 24 68  1  0  0  0  0
 25 26  1  0  0  0  0
 25 69  1  0  0  0  0
 25 70  1  0  0  0  0
 26 27  1  0  0  0  0
 26 71  1  0  0  0  0
 26 72  1  0  0  0  0
 27 28  1  0  0  0  0
 28 33  1  0  0  0  0
 28 29  2  0  0  0  0
 29 30  1  0  0  0  0
 29 73  1  0  0  0  0
 30 31  2  0  0  0  0
 30 37  1  0  0  0  0
 31 32  1  0  0  0  0
 31 74  1  0  0  0  0
 32 33  2  0  0  0  0
 32 34  1  0  0  0  0
 33 75  1  0  0  0  0
 34 35  2  0  0  0  0
 34 36  1  0  0  0  0
 36 76  1  0  0  0  0
 37 38  1  0  0  0  0
 37 77  1  0  0  0  0
 37 78  1  0  0  0  0
 38 39  1  0  0  0  0
 39 79  1  0  0  0  0
 39 80  1  0  0  0  0
 39 81  1  0  0  0  0
 40 82  1  0  0  0  0
M  END
>  <s_m_source_file>
BACE_15.smi

>  <i_m_source_file_index>
1

>  <i_lp_mmshare_version>
42013

>  <i_f3d_flags>
0

>  <s_epik_input>
W0NIM11bQ0hdKFtDSDNdKWMxW2NIXVtjSF1bY0hdYyhbY0hdMSlbQ0gyXVtOSF1bQ0gyXVtDQEBIXShbT0hdKVtDQEhdKFtDSDJdMilbTkhdQyg9TyljKFtjSF0zKVtjSF1jKFtDSDJdT1tDSDNdKVtjSF1jM09bQ0gyXVtDSDJdW0NIMl1bQ0gyXU9jKFtjSF00KVtjSF1bY0hdW2NIXWMyNA==

>  <s_epik_cmdline>
J2VwaWtfcHl0aG9uJywgJy1waCcsICc3LjAnLCAnLXRuJywgJzgnLCAnLW1hJywgJzIwMCcsICctaW1hZScsICc8aW5maWxlLm1hZT4nLCAnLW9tYWUnLCAnPG91dGZpbGUubWFlPic=

>  <r_lp_tautomer_probability>
1

>  <r_epik_Ionization_Penalty>
2.0439

>  <r_epik_Ionization_Penalty_Charging>
0

>  <r_epik_Ionization_Penalty_Neutral>
2.0439

>  <r_epik_State_Penalty>
2.1759

>  <r_epik_Charging_Adjusted_Penalty>
2.17586

>  <i_epik_Tot_Q>
0

>  <i_epik_Tot_abs_Q>
0

>  <s_lp_Force_Field>
OPLS_2005

>  <r_lp_Energy>
41.685

>  <b_lp_Chiralities_Consistent>
1

>  <s_lp_Variant>
BACE_15.smi:1-2

>  <chiral flag>
1

>  <version>
0

>  <r_i_glide_lipo>
-1.28438

>  <r_i_glide_hbond>
-0.32

>  <r_i_glide_metal>
-0

>  <r_i_glide_rewards>
0

>  <r_i_glide_erotb>
0.415786

>  <r_i_glide_esite>
-0.00194306

>  <s_i_glide_gridfile>
second_dock_grid_2

>  <i_i_glide_lignum>
31

>  <i_i_glide_rotatable_bonds>
9

>  <r_i_docking_score>
-2.09652

>  <r_i_glide_ligand_efficiency>
-0.052413

>  <r_i_glide_ligand_efficiency_sa>
-0.17925

>  <r_i_glide_ligand_efficiency_ln>
-0.447126

>  <r_glide_XP_GScore>
-4.27242

>  <r_i_glide_gscore>
-4.27242

>  <r_i_glide_evdw>
-45.8407

>  <r_i_glide_ecoul>
-5.27652

>  <r_i_glide_energy>
-51.1172

>  <r_i_glide_einternal>
0.913142

>  <r_i_glide_emodel>
-74.6702

>  <r_glide_XP_HBond>
-0.701921

>  <i_i_glide_confnum>
1

>  <i_i_glide_posenum>
5

>  <r_i_glide_eff_state_penalty>
2.1759

>  <i_glide_XP_PoseRank>
2

>  <chiral flag>
1

$$$$
