BACE_6.smi:1
 OpenBabel10031817133D
Structure written by MMmdl.
 82 84  0  0  1  0  0  0  0  0999 V2000
   16.9838   51.9185  -12.6701 C   0  0  0  0  0  0  0  0  0  0  0  0
   17.7788   50.7374  -13.2462 C   0  0  0  0  0  0  0  0  0  0  0  0
   17.1832   49.4475  -12.8496 N   0  0  0  0  0  0  0  0  0  0  0  0
   17.8036   48.8617  -11.6375 C   0  0  0  0  0  0  0  0  0  0  0  0
   16.8622   48.6991  -10.4207 C   0  0  0  0  0  0  0  0  0  0  0  0
   17.6066   48.3514   -9.1143 C   0  0  0  0  0  0  0  0  0  0  0  0
   18.3563   47.0004   -9.0949 C   0  0  0  0  0  0  0  0  0  0  0  0
   17.4693   45.7731   -8.8102 C   0  0  0  0  0  0  0  0  0  0  0  0
   18.2073   44.4082   -8.9160 C   0  0  2  0  0  0  0  0  0  0  0  0
   17.2505   43.2002   -8.7181 C   0  0  0  0  0  0  0  0  0  0  0  0
   16.6099   42.6026   -9.9983 C   0  0  2  0  0  0  0  0  0  0  0  0
   15.8733   43.6361  -10.7307 N   0  0  0  0  0  0  0  0  0  0  0  0
   16.2438   44.1588  -11.9099 C   0  0  0  0  0  0  0  0  0  0  0  0
   17.1876   43.7497  -12.5876 O   0  0  0  0  0  0  0  0  0  0  0  0
   15.4695   45.3591  -12.3543 C   0  0  0  0  0  0  0  0  0  0  0  0
   14.0578   45.3573  -12.3611 C   0  0  0  0  0  0  0  0  0  0  0  0
   13.3594   46.4825  -12.8391 C   0  0  0  0  0  0  0  0  0  0  0  0
   14.0653   47.6263  -13.2577 C   0  0  0  0  0  0  0  0  0  0  0  0
   15.4771   47.6582  -13.2066 C   0  0  0  0  0  0  0  0  0  0  0  0
   16.1696   46.4878  -12.8281 C   0  0  0  0  0  0  0  0  0  0  0  0
   16.1930   48.9146  -13.6260 C   0  0  0  0  0  0  0  0  0  0  0  0
   15.7766   49.4823  -14.6375 O   0  0  0  0  0  0  0  0  0  0  0  0
   15.7510   41.3180   -9.7595 C   0  0  1  0  0  0  0  0  0  0  0  0
   14.8998   41.3000   -8.4639 C   0  0  0  0  0  0  0  0  0  0  0  0
   15.6425   40.9411   -7.2439 N   0  0  0  0  0  0  0  0  0  0  0  0
   15.9194   39.5093   -7.0625 C   0  0  0  0  0  0  0  0  0  0  0  0
   17.1432   39.0023   -7.8052 C   0  0  0  0  0  0  0  0  0  0  0  0
   17.0340   37.8902   -8.6635 C   0  0  0  0  0  0  0  0  0  0  0  0
   18.1571   37.4386   -9.3795 C   0  0  0  0  0  0  0  0  0  0  0  0
   19.3928   38.0976   -9.2380 C   0  0  0  0  0  0  0  0  0  0  0  0
   19.5222   39.1964   -8.3623 C   0  0  0  0  0  0  0  0  0  0  0  0
   18.3906   39.6414   -7.6460 C   0  0  0  0  0  0  0  0  0  0  0  0
   20.8592   39.9083   -8.2006 C   0  0  0  0  0  0  0  0  0  0  0  0
   21.2534   40.6503   -9.4870 C   0  0  0  0  0  0  0  0  0  0  0  0
   21.9697   38.9487   -7.7375 C   0  0  0  0  0  0  0  0  0  0  0  0
   14.8597   41.1191  -10.8501 O   0  0  0  0  0  0  0  0  0  0  0  0
   19.3675   44.3137   -7.9057 C   0  0  0  0  0  0  0  0  0  0  0  0
   18.6513   44.3315   -9.9091 H   0  0  0  0  0  0  0  0  0  0  0  0
   17.4427   42.2745  -10.6233 H   0  0  0  0  0  0  0  0  0  0  0  0
   16.4154   40.4594   -9.7718 H   0  0  0  0  0  0  0  0  0  0  0  0
   17.4286   52.8656  -12.9719 H   0  0  0  0  0  0  0  0  0  0  0  0
   16.9662   51.8912  -11.5807 H   0  0  0  0  0  0  0  0  0  0  0  0
   15.9526   51.9148  -13.0253 H   0  0  0  0  0  0  0  0  0  0  0  0
   17.8260   50.8316  -14.3329 H   0  0  0  0  0  0  0  0  0  0  0  0
   18.8207   50.8116  -12.9347 H   0  0  0  0  0  0  0  0  0  0  0  0
   18.2967   47.9283  -11.8919 H   0  0  0  0  0  0  0  0  0  0  0  0
   18.6291   49.4902  -11.3017 H   0  0  0  0  0  0  0  0  0  0  0  0
   16.3451   49.6450  -10.2652 H   0  0  0  0  0  0  0  0  0  0  0  0
   16.0831   47.9591  -10.5971 H   0  0  0  0  0  0  0  0  0  0  0  0
   18.3307   49.1429   -8.9158 H   0  0  0  0  0  0  0  0  0  0  0  0
   16.9053   48.3869   -8.2801 H   0  0  0  0  0  0  0  0  0  0  0  0
   18.9120   46.8532  -10.0199 H   0  0  0  0  0  0  0  0  0  0  0  0
   19.1120   47.0664   -8.3126 H   0  0  0  0  0  0  0  0  0  0  0  0
   17.0311   45.8705   -7.8171 H   0  0  0  0  0  0  0  0  0  0  0  0
   16.6314   45.8008   -9.5017 H   0  0  0  0  0  0  0  0  0  0  0  0
   17.8021   42.3887   -8.2447 H   0  0  0  0  0  0  0  0  0  0  0  0
   16.4837   43.4768   -7.9935 H   0  0  0  0  0  0  0  0  0  0  0  0
   15.0674   44.0242  -10.2668 H   0  0  0  0  0  0  0  0  0  0  0  0
   13.5113   44.4797  -12.0418 H   0  0  0  0  0  0  0  0  0  0  0  0
   12.2814   46.4753  -12.8844 H   0  0  0  0  0  0  0  0  0  0  0  0
   13.5168   48.4829  -13.6279 H   0  0  0  0  0  0  0  0  0  0  0  0
   17.2465   46.4441  -12.8778 H   0  0  0  0  0  0  0  0  0  0  0  0
   14.4427   42.2805   -8.3346 H   0  0  0  0  0  0  0  0  0  0  0  0
   14.0671   40.6054   -8.5804 H   0  0  0  0  0  0  0  0  0  0  0  0
   15.1248   41.2656   -6.4227 H   0  0  0  0  0  0  0  0  0  0  0  0
   16.1029   39.3165   -6.0091 H   0  0  0  0  0  0  0  0  0  0  0  0
   15.0433   38.9110   -7.3145 H   0  0  0  0  0  0  0  0  0  0  0  0
   16.0889   37.3787   -8.7719 H   0  0  0  0  0  0  0  0  0  0  0  0
   18.0712   36.5874  -10.0393 H   0  0  0  0  0  0  0  0  0  0  0  0
   20.2459   37.7506   -9.8015 H   0  0  0  0  0  0  0  0  0  0  0  0
   18.4685   40.4842   -6.9738 H   0  0  0  0  0  0  0  0  0  0  0  0
   20.7380   40.6597   -7.4193 H   0  0  0  0  0  0  0  0  0  0  0  0
   20.4828   41.3657   -9.7812 H   0  0  0  0  0  0  0  0  0  0  0  0
   21.4014   39.9571  -10.3155 H   0  0  0  0  0  0  0  0  0  0  0  0
   22.1807   41.2076   -9.3526 H   0  0  0  0  0  0  0  0  0  0  0  0
   21.6956   38.4572   -6.8018 H   0  0  0  0  0  0  0  0  0  0  0  0
   22.9072   39.4813   -7.5681 H   0  0  0  0  0  0  0  0  0  0  0  0
   22.1678   38.1712   -8.4759 H   0  0  0  0  0  0  0  0  0  0  0  0
   14.2941   40.3928  -10.6295 H   0  0  0  0  0  0  0  0  0  0  0  0
   19.0071   44.4200   -6.8819 H   0  0  0  0  0  0  0  0  0  0  0  0
   20.1247   45.0782   -8.0798 H   0  0  0  0  0  0  0  0  0  0  0  0
   19.8787   43.3518   -7.9752 H   0  0  0  0  0  0  0  0  0  0  0  0
  1  2  1  0  0  0  0
  1 41  1  0  0  0  0
  1 42  1  0  0  0  0
  1 43  1  0  0  0  0
  2  3  1  0  0  0  0
  2 44  1  0  0  0  0
  2 45  1  0  0  0  0
  3 21  1  0  0  0  0
  3  4  1  0  0  0  0
  4  5  1  0  0  0  0
  4 46  1  0  0  0  0
  4 47  1  0  0  0  0
  5  6  1  0  0  0  0
  5 48  1  0  0  0  0
  5 49  1  0  0  0  0
  6  7  1  0  0  0  0
  6 50  1  0  0  0  0
  6 51  1  0  0  0  0
  7  8  1  0  0  0  0
  7 52  1  0  0  0  0
  7 53  1  0  0  0  0
  8  9  1  0  0  0  0
  8 54  1  0  0  0  0
  8 55  1  0  0  0  0
  9 38  1  6  0  0  0
  9 10  1  0  0  0  0
  9 37  1  0  0  0  0
 10 11  1  0  0  0  0
 10 56  1  0  0  0  0
 10 57  1  0  0  0  0
 11 39  1  6  0  0  0
 11 12  1  0  0  0  0
 11 23  1  0  0  0  0
 12 13  1  0  0  0  0
 12 58  1  0  0  0  0
 13 14  2  0  0  0  0
 13 15  1  0  0  0  0
 15 20  1  0  0  0  0
 15 16  2  0  0  0  0
 16 17  1  0  0  0  0
 16 59  1  0  0  0  0
 17 18  2  0  0  0  0
 17 60  1  0  0  0  0
 18 19  1  0  0  0  0
 18 61  1  0  0  0  0
 19 20  2  0  0  0  0
 19 21  1  0  0  0  0
 20 62  1  0  0  0  0
 21 22  2  0  0  0  0
 23 40  1  1  0  0  0
 23 24  1  0  0  0  0
 23 36  1  0  0  0  0
 24 25  1  0  0  0  0
 24 63  1  0  0  0  0
 24 64  1  0  0  0  0
 25 26  1  0  0  0  0
 25 65  1  0  0  0  0
 26 27  1  0  0  0  0
 26 66  1  0  0  0  0
 26 67  1  0  0  0  0
 27 32  1  0  0  0  0
 27 28  2  0  0  0  0
 28 29  1  0  0  0  0
 28 68  1  0  0  0  0
 29 30  2  0  0  0  0
 29 69  1  0  0  0  0
 30 31  1  0  0  0  0
 30 70  1  0  0  0  0
 31 32  2  0  0  0  0
 31 33  1  0  0  0  0
 32 71  1  0  0  0  0
 33 34  1  0  0  0  0
 33 35  1  0  0  0  0
 33 72  1  0  0  0  0
 34 73  1  0  0  0  0
 34 74  1  0  0  0  0
 34 75  1  0  0  0  0
 35 76  1  0  0  0  0
 35 77  1  0  0  0  0
 35 78  1  0  0  0  0
 36 79  1  0  0  0  0
 37 80  1  0  0  0  0
 37 81  1  0  0  0  0
 37 82  1  0  0  0  0
M  END
>  <s_m_source_file>
BACE_6.smi

>  <i_m_source_file_index>
1

>  <i_lp_mmshare_version>
42013

>  <i_f3d_flags>
0

>  <s_epik_input>
YzEyW2NIXVtjSF1bY0hdYyhbY0hdMilDKD1PKU4oW0NIMl1bQ0gzXSlbQ0gyXVtDSDJdW0NIMl1bQ0gyXVtDSDJdW0NAQEhdKFtDSDNdKVtDSDJdW0NASF0oW05IXUMxPU8pW0NASF0oW09IXSlbQ0gyXVtOSF1bQ0gyXWMzW2NIXVtjSF1bY0hdYyhbY0hdMylbQ0hdKFtDSDNdKVtDSDNd

>  <s_epik_cmdline>
J2VwaWtfcHl0aG9uJywgJy1waCcsICc3LjAnLCAnLXRuJywgJzgnLCAnLW1hJywgJzIwMCcsICctaW1hZScsICc8aW5maWxlLm1hZT4nLCAnLW9tYWUnLCAnPG91dGZpbGUubWFlPic=

>  <r_epik_Ionization_Penalty>
2.1294

>  <r_epik_Ionization_Penalty_Charging>
0

>  <r_epik_Ionization_Penalty_Neutral>
2.1294

>  <r_epik_State_Penalty>
2.2676

>  <r_epik_Charging_Adjusted_Penalty>
2.26762

>  <i_epik_Tot_Q>
0

>  <i_epik_Tot_abs_Q>
0

>  <s_lp_Force_Field>
OPLS_2005

>  <r_lp_Energy>
47.7451

>  <b_lp_Chiralities_Consistent>
1

>  <s_lp_Variant>
BACE_6.smi:1-2

>  <chiral flag>
1

>  <version>
0

>  <r_i_glide_lipo>
-1.10063

>  <r_i_glide_hbond>
-0.479066

>  <r_i_glide_metal>
-0

>  <r_i_glide_rewards>
0

>  <r_i_glide_erotb>
0.397034

>  <r_i_glide_esite>
-0.00445794

>  <s_i_glide_gridfile>
second_dock_grid_2

>  <i_i_glide_lignum>
13

>  <i_i_glide_rotatable_bonds>
8

>  <r_i_docking_score>
-1.3269

>  <r_i_glide_ligand_efficiency>
-0.0358622

>  <r_i_glide_ligand_efficiency_sa>
-0.119501

>  <r_i_glide_ligand_efficiency_ln>
-0.287774

>  <r_glide_XP_GScore>
-3.5945

>  <r_i_glide_gscore>
-3.5945

>  <r_i_glide_evdw>
-35.1074

>  <r_i_glide_ecoul>
-9.9412

>  <r_i_glide_energy>
-45.0486

>  <r_i_glide_einternal>
4.98534

>  <r_i_glide_emodel>
-59.5961

>  <r_glide_XP_HBond>
-0.104026

>  <i_i_glide_confnum>
1

>  <i_i_glide_posenum>
2

>  <r_i_glide_eff_state_penalty>
2.2676

>  <i_glide_XP_PoseRank>
1

>  <chiral flag>
1

$$$$
