BACE_3.smi:1
 OpenBabel10031817133D
Structure written by MMmdl.
 85 86  0  0  1  0  0  0  0  0999 V2000
   21.6814   39.4199   -8.4313 C   0  0  0  0  0  0  0  0  0  0  0  0
   22.6973   40.3919   -8.4115 C   0  0  0  0  0  0  0  0  0  0  0  0
   22.8286   41.2487   -7.3032 C   0  0  0  0  0  0  0  0  0  0  0  0
   21.9558   41.1301   -6.1991 C   0  0  0  0  0  0  0  0  0  0  0  0
   22.1421   42.0308   -4.9846 C   0  0  0  0  0  0  0  0  0  0  0  0
   20.8608   42.8037   -4.6320 C   0  0  0  0  0  0  0  0  0  0  0  0
   22.6724   41.2348   -3.7830 C   0  0  0  0  0  0  0  0  0  0  0  0
   20.9294   40.1594   -6.2315 C   0  0  0  0  0  0  0  0  0  0  0  0
   20.7881   39.3100   -7.3470 C   0  0  0  0  0  0  0  0  0  0  0  0
   19.6784   38.2825   -7.3908 C   0  0  0  0  0  0  0  0  0  0  0  0
   18.3872   38.8788   -7.7047 N   0  0  0  0  0  0  0  0  0  0  0  0
   17.5248   37.9985   -8.4889 C   0  0  0  0  0  0  0  0  0  0  0  0
   16.1030   38.5765   -8.6793 C   0  0  0  0  0  0  0  0  0  0  0  0
   15.4731   38.5500   -7.4159 O   0  0  0  0  0  0  0  0  0  0  0  0
   15.4469   37.7520   -9.6256 O   0  0  0  0  0  0  0  0  0  0  0  0
   16.0192   40.0470   -9.1700 C   0  0  1  0  0  0  0  0  0  0  0  0
   16.9233   40.2861  -10.2944 N   0  0  0  0  0  0  0  0  0  0  0  0
   17.9315   41.1733  -10.3094 C   0  0  0  0  0  0  0  0  0  0  0  0
   18.2299   41.8773   -9.3439 O   0  0  0  0  0  0  0  0  0  0  0  0
   18.6803   41.3163  -11.6445 C   0  0  2  0  0  0  0  0  0  0  0  0
   19.8088   40.2633  -11.7102 C   0  0  0  0  0  0  0  0  0  0  0  0
   14.5625   40.4975   -9.4839 C   0  0  0  0  0  0  0  0  0  0  0  0
   14.2722   42.0136   -9.6370 C   0  0  2  0  0  0  0  0  0  0  0  0
   14.7457   42.5606  -10.9894 C   0  0  0  0  0  0  0  0  0  0  0  0
   14.7050   42.8400   -8.3992 C   0  0  0  0  0  0  0  0  0  0  0  0
   14.6945   44.3714   -8.5567 C   0  0  0  0  0  0  0  0  0  0  0  0
   16.1156   44.8943   -8.8199 C   0  0  0  0  0  0  0  0  0  0  0  0
   16.1828   46.3776   -9.1979 C   0  0  0  0  0  0  0  0  0  0  0  0
   17.6176   46.9219   -9.3121 C   0  0  0  0  0  0  0  0  0  0  0  0
   18.5334   46.1114  -10.2446 C   0  0  0  0  0  0  0  0  0  0  0  0
   18.0512   46.0694  -11.7050 C   0  0  0  0  0  0  0  0  0  0  0  0
   18.8600   45.0962  -12.5761 C   0  0  0  0  0  0  0  0  0  0  0  0
   18.4060   43.6327  -12.4320 C   0  0  0  0  0  0  0  0  0  0  0  0
   17.3178   43.3503  -12.9378 O   0  0  0  0  0  0  0  0  0  0  0  0
   19.1841   42.7053  -11.8085 N   0  0  0  0  0  0  0  0  0  0  0  0
   20.4730   43.0443  -11.1798 C   0  0  0  0  0  0  0  0  0  0  0  0
   16.3744   40.6234   -8.3194 H   0  0  0  0  0  0  0  0  0  0  0  0
   17.9813   41.0652  -12.4399 H   0  0  0  0  0  0  0  0  0  0  0  0
   13.1851   42.0936   -9.6793 H   0  0  0  0  0  0  0  0  0  0  0  0
   21.5852   38.7652   -9.2849 H   0  0  0  0  0  0  0  0  0  0  0  0
   23.3774   40.4743   -9.2469 H   0  0  0  0  0  0  0  0  0  0  0  0
   23.6169   41.9872   -7.2995 H   0  0  0  0  0  0  0  0  0  0  0  0
   22.9002   42.7745   -5.2356 H   0  0  0  0  0  0  0  0  0  0  0  0
   20.5021   43.3801   -5.4855 H   0  0  0  0  0  0  0  0  0  0  0  0
   21.0364   43.5003   -3.8118 H   0  0  0  0  0  0  0  0  0  0  0  0
   20.0598   42.1326   -4.3230 H   0  0  0  0  0  0  0  0  0  0  0  0
   23.6124   40.7378   -4.0274 H   0  0  0  0  0  0  0  0  0  0  0  0
   21.9664   40.4671   -3.4657 H   0  0  0  0  0  0  0  0  0  0  0  0
   22.8579   41.8896   -2.9311 H   0  0  0  0  0  0  0  0  0  0  0  0
   20.2450   40.0645   -5.4014 H   0  0  0  0  0  0  0  0  0  0  0  0
   19.6276   37.7501   -6.4417 H   0  0  0  0  0  0  0  0  0  0  0  0
   19.9464   37.5511   -8.1541 H   0  0  0  0  0  0  0  0  0  0  0  0
   17.8948   39.1042   -6.8431 H   0  0  0  0  0  0  0  0  0  0  0  0
   17.4568   37.0186   -8.0137 H   0  0  0  0  0  0  0  0  0  0  0  0
   17.9811   37.8298   -9.4662 H   0  0  0  0  0  0  0  0  0  0  0  0
   15.6596   37.7223   -6.9619 H   0  0  0  0  0  0  0  0  0  0  0  0
   15.5770   36.8558   -9.3646 H   0  0  0  0  0  0  0  0  0  0  0  0
   16.7649   39.7243  -11.1176 H   0  0  0  0  0  0  0  0  0  0  0  0
   19.3895   39.2570  -11.7503 H   0  0  0  0  0  0  0  0  0  0  0  0
   20.4703   40.2877  -10.8466 H   0  0  0  0  0  0  0  0  0  0  0  0
   20.4160   40.3917  -12.6070 H   0  0  0  0  0  0  0  0  0  0  0  0
   14.1979   39.9729  -10.3680 H   0  0  0  0  0  0  0  0  0  0  0  0
   13.9339   40.1328   -8.6765 H   0  0  0  0  0  0  0  0  0  0  0  0
   14.2704   43.5080  -11.2389 H   0  0  0  0  0  0  0  0  0  0  0  0
   14.4980   41.8578  -11.7800 H   0  0  0  0  0  0  0  0  0  0  0  0
   15.8163   42.7210  -11.0003 H   0  0  0  0  0  0  0  0  0  0  0  0
   14.0586   42.5592   -7.5707 H   0  0  0  0  0  0  0  0  0  0  0  0
   15.6996   42.5603   -8.0610 H   0  0  0  0  0  0  0  0  0  0  0  0
   14.3253   44.8286   -7.6397 H   0  0  0  0  0  0  0  0  0  0  0  0
   14.0022   44.6781   -9.3382 H   0  0  0  0  0  0  0  0  0  0  0  0
   16.7281   44.7159   -7.9342 H   0  0  0  0  0  0  0  0  0  0  0  0
   16.5642   44.3040   -9.6165 H   0  0  0  0  0  0  0  0  0  0  0  0
   15.6599   46.9504   -8.4408 H   0  0  0  0  0  0  0  0  0  0  0  0
   15.6480   46.5454  -10.1304 H   0  0  0  0  0  0  0  0  0  0  0  0
   17.5852   47.9595   -9.6456 H   0  0  0  0  0  0  0  0  0  0  0  0
   18.0689   46.9409   -8.3195 H   0  0  0  0  0  0  0  0  0  0  0  0
   18.6414   45.1004   -9.8514 H   0  0  0  0  0  0  0  0  0  0  0  0
   19.5366   46.5391  -10.2167 H   0  0  0  0  0  0  0  0  0  0  0  0
   16.9983   45.7941  -11.7575 H   0  0  0  0  0  0  0  0  0  0  0  0
   18.1169   47.0719  -12.1288 H   0  0  0  0  0  0  0  0  0  0  0  0
   19.9242   45.2410  -12.4092 H   0  0  0  0  0  0  0  0  0  0  0  0
   18.6879   45.3657  -13.6184 H   0  0  0  0  0  0  0  0  0  0  0  0
   20.7194   42.3792  -10.3539 H   0  0  0  0  0  0  0  0  0  0  0  0
   20.4833   44.0333  -10.7288 H   0  0  0  0  0  0  0  0  0  0  0  0
   21.2825   42.9867  -11.9055 H   0  0  0  0  0  0  0  0  0  0  0  0
  1  9  1  0  0  0  0
  1  2  2  0  0  0  0
  1 40  1  0  0  0  0
  2  3  1  0  0  0  0
  2 41  1  0  0  0  0
  3  4  2  0  0  0  0
  3 42  1  0  0  0  0
  4  5  1  0  0  0  0
  4  8  1  0  0  0  0
  5  6  1  0  0  0  0
  5  7  1  0  0  0  0
  5 43  1  0  0  0  0
  6 44  1  0  0  0  0
  6 45  1  0  0  0  0
  6 46  1  0  0  0  0
  7 47  1  0  0  0  0
  7 48  1  0  0  0  0
  7 49  1  0  0  0  0
  8  9  2  0  0  0  0
  8 50  1  0  0  0  0
  9 10  1  0  0  0  0
 10 11  1  0  0  0  0
 10 51  1  0  0  0  0
 10 52  1  0  0  0  0
 11 12  1  0  0  0  0
 11 53  1  0  0  0  0
 12 13  1  0  0  0  0
 12 54  1  0  0  0  0
 12 55  1  0  0  0  0
 13 14  1  0  0  0  0
 13 15  1  0  0  0  0
 13 16  1  0  0  0  0
 14 56  1  0  0  0  0
 15 57  1  0  0  0  0
 16 37  1  1  0  0  0
 16 17  1  0  0  0  0
 16 22  1  0  0  0  0
 17 18  1  0  0  0  0
 17 58  1  0  0  0  0
 18 19  2  0  0  0  0
 18 20  1  0  0  0  0
 20 38  1  6  0  0  0
 20 35  1  0  0  0  0
 20 21  1  0  0  0  0
 21 59  1  0  0  0  0
 21 60  1  0  0  0  0
 21 61  1  0  0  0  0
 22 23  1  0  0  0  0
 22 62  1  0  0  0  0
 22 63  1  0  0  0  0
 23 39  1  6  0  0  0
 23 24  1  0  0  0  0
 23 25  1  0  0  0  0
 24 64  1  0  0  0  0
 24 65  1  0  0  0  0
 24 66  1  0  0  0  0
 25 26  1  0  0  0  0
 25 67  1  0  0  0  0
 25 68  1  0  0  0  0
 26 27  1  0  0  0  0
 26 69  1  0  0  0  0
 26 70  1  0  0  0  0
 27 28  1  0  0  0  0
 27 71  1  0  0  0  0
 27 72  1  0  0  0  0
 28 29  1  0  0  0  0
 28 73  1  0  0  0  0
 28 74  1  0  0  0  0
 29 30  1  0  0  0  0
 29 75  1  0  0  0  0
 29 76  1  0  0  0  0
 30 31  1  0  0  0  0
 30 77  1  0  0  0  0
 30 78  1  0  0  0  0
 31 32  1  0  0  0  0
 31 79  1  0  0  0  0
 31 80  1  0  0  0  0
 32 33  1  0  0  0  0
 32 81  1  0  0  0  0
 32 82  1  0  0  0  0
 33 34  2  0  0  0  0
 33 35  1  0  0  0  0
 35 36  1  0  0  0  0
 36 83  1  0  0  0  0
 36 84  1  0  0  0  0
 36 85  1  0  0  0  0
M  END
>  <s_m_source_file>
BACE_3.smi

>  <i_m_source_file_index>
1

>  <i_lp_mmshare_version>
42013

>  <i_f3d_flags>
0

>  <s_epik_input>
W0NIM11bQ0hdKFtDSDNdKWMxW2NIXVtjSF1bY0hdYyhbY0hdMSlbQ0gyXVtOSF1bQ0gyXUMoW09IXSkoW09IXSlbQ0BIXTJbTkhdQyg9TylbQ0BIXShbQ0gzXSlOKFtDSDNdKUMoPU8pW0NIMl1bQ0gyXVtDSDJdW0NIMl1bQ0gyXVtDSDJdW0NIMl1bQ0gyXVtDQEhdKFtDSDJdMilbQ0gzXQ==

>  <s_epik_cmdline>
J2VwaWtfcHl0aG9uJywgJy1waCcsICc3LjAnLCAnLXRuJywgJzgnLCAnLW1hJywgJzIwMCcsICctaW1hZScsICc8aW5maWxlLm1hZT4nLCAnLW9tYWUnLCAnPG91dGZpbGUubWFlPic=

>  <r_epik_Ionization_Penalty>
2.074

>  <r_epik_Ionization_Penalty_Charging>
0

>  <r_epik_Ionization_Penalty_Neutral>
2.074

>  <r_epik_State_Penalty>
2.2081

>  <r_epik_Charging_Adjusted_Penalty>
2.20813

>  <i_epik_Tot_Q>
0

>  <i_epik_Tot_abs_Q>
0

>  <s_lp_Force_Field>
OPLS_2005

>  <r_lp_Energy>
49.929

>  <b_lp_Chiralities_Consistent>
1

>  <s_lp_Variant>
BACE_3.smi:1-2

>  <chiral flag>
1

>  <version>
0

>  <r_i_glide_lipo>
-0.428916

>  <r_i_glide_hbond>
-0.0522614

>  <r_i_glide_metal>
-0

>  <r_i_glide_rewards>
-0.0327321

>  <r_i_glide_erotb>
0.402825

>  <r_i_glide_esite>
-0.0410514

>  <s_i_glide_gridfile>
second_dock_grid_2

>  <i_i_glide_lignum>
5

>  <i_i_glide_rotatable_bonds>
8

>  <r_i_docking_score>
-2.44946

>  <r_i_glide_ligand_efficiency>
-0.0680407

>  <r_i_glide_ligand_efficiency_sa>
-0.224665

>  <r_i_glide_ligand_efficiency_ln>
-0.534407

>  <r_glide_XP_GScore>
-4.65756

>  <r_i_glide_gscore>
-4.65756

>  <r_i_glide_evdw>
-39.5575

>  <r_i_glide_ecoul>
-7.5498

>  <r_i_glide_energy>
-47.1073

>  <r_i_glide_einternal>
2.03184

>  <r_i_glide_emodel>
-61.609

>  <r_glide_XP_HBond>
-1.625

>  <i_i_glide_confnum>
1

>  <i_i_glide_posenum>
4

>  <r_i_glide_eff_state_penalty>
2.2081

>  <i_glide_XP_PoseRank>
2

>  <chiral flag>
1

$$$$
