BACE_3.smi:1
 OpenBabel10031817133D
Structure written by MMmdl.
 86 87  0  0  1  0  0  0  0  0999 V2000
   26.6577   43.6791   -9.7681 C   0  0  0  0  0  0  0  0  0  0  0  0
   27.7074   44.5760  -10.0339 C   0  0  0  0  0  0  0  0  0  0  0  0
   28.7798   44.1809  -10.8528 C   0  0  0  0  0  0  0  0  0  0  0  0
   28.8139   42.8869  -11.4121 C   0  0  0  0  0  0  0  0  0  0  0  0
   30.0052   42.4778  -12.2681 C   0  0  0  0  0  0  0  0  0  0  0  0
   31.0557   41.7528  -11.4245 C   0  0  0  0  0  0  0  0  0  0  0  0
   29.6075   41.6416  -13.4922 C   0  0  0  0  0  0  0  0  0  0  0  0
   27.7564   41.9879  -11.1427 C   0  0  0  0  0  0  0  0  0  0  0  0
   26.6786   42.3840  -10.3255 C   0  0  0  0  0  0  0  0  0  0  0  0
   25.5506   41.4206  -10.0315 C   0  0  0  0  0  0  0  0  0  0  0  0
   24.3691   41.7563  -10.8395 N   0  3  0  0  0  0  0  0  0  0  0  0
   23.1057   41.2548  -10.2644 C   0  0  0  0  0  0  0  0  0  0  0  0
   21.9145   42.1116  -10.7250 C   0  0  0  0  0  0  0  0  0  0  0  0
   21.5744   41.7475  -12.0448 O   0  0  0  0  0  0  0  0  0  0  0  0
   22.3270   43.4618  -10.6456 O   0  0  0  0  0  0  0  0  0  0  0  0
   20.7043   41.9665   -9.7566 C   0  0  1  0  0  0  0  0  0  0  0  0
   19.5383   42.6966  -10.2576 N   0  0  0  0  0  0  0  0  0  0  0  0
   18.9239   43.7300   -9.6632 C   0  0  0  0  0  0  0  0  0  0  0  0
   19.3659   44.2918   -8.6637 O   0  0  0  0  0  0  0  0  0  0  0  0
   17.6017   44.1772  -10.3077 C   0  0  2  0  0  0  0  0  0  0  0  0
   17.4152   45.7077  -10.2586 C   0  0  0  0  0  0  0  0  0  0  0  0
   20.2972   40.5200   -9.3614 C   0  0  0  0  0  0  0  0  0  0  0  0
   19.9550   39.5120  -10.4892 C   0  0  2  0  0  0  0  0  0  0  0  0
   18.8464   40.0082  -11.4299 C   0  0  0  0  0  0  0  0  0  0  0  0
   19.6926   38.0854   -9.9299 C   0  0  0  0  0  0  0  0  0  0  0  0
   18.4699   37.9049   -9.0024 C   0  0  0  0  0  0  0  0  0  0  0  0
   17.1315   37.7838   -9.7461 C   0  0  0  0  0  0  0  0  0  0  0  0
   15.9157   37.5433   -8.8472 C   0  0  0  0  0  0  0  0  0  0  0  0
   15.6234   38.6330   -7.7966 C   0  0  0  0  0  0  0  0  0  0  0  0
   15.6184   40.0887   -8.3009 C   0  0  0  0  0  0  0  0  0  0  0  0
   14.6496   40.3803   -9.4645 C   0  0  0  0  0  0  0  0  0  0  0  0
   14.4858   41.8874   -9.7542 C   0  0  0  0  0  0  0  0  0  0  0  0
   15.7420   42.5455  -10.3680 C   0  0  0  0  0  0  0  0  0  0  0  0
   16.0608   42.2049  -11.5096 O   0  0  0  0  0  0  0  0  0  0  0  0
   16.4405   43.4892   -9.6853 N   0  0  0  0  0  0  0  0  0  0  0  0
   16.1520   43.7861   -8.2739 C   0  0  0  0  0  0  0  0  0  0  0  0
   21.0096   42.4233   -8.8128 H   0  0  0  0  0  0  0  0  0  0  0  0
   17.6798   43.9446  -11.3711 H   0  0  0  0  0  0  0  0  0  0  0  0
   20.8437   39.3977  -11.1108 H   0  0  0  0  0  0  0  0  0  0  0  0
   25.8384   43.9897   -9.1347 H   0  0  0  0  0  0  0  0  0  0  0  0
   27.6937   45.5707   -9.6097 H   0  0  0  0  0  0  0  0  0  0  0  0
   29.5849   44.8760  -11.0427 H   0  0  0  0  0  0  0  0  0  0  0  0
   30.4601   43.3917  -12.6490 H   0  0  0  0  0  0  0  0  0  0  0  0
   31.3992   42.3860  -10.6061 H   0  0  0  0  0  0  0  0  0  0  0  0
   31.9188   41.4881  -12.0348 H   0  0  0  0  0  0  0  0  0  0  0  0
   30.6509   40.8375  -10.9929 H   0  0  0  0  0  0  0  0  0  0  0  0
   28.8300   42.1513  -14.0543 H   0  0  0  0  0  0  0  0  0  0  0  0
   29.2362   40.6531  -13.2195 H   0  0  0  0  0  0  0  0  0  0  0  0
   30.4616   41.4897  -14.1547 H   0  0  0  0  0  0  0  0  0  0  0  0
   27.7726   40.9843  -11.5433 H   0  0  0  0  0  0  0  0  0  0  0  0
   25.2734   41.4963   -8.9784 H   0  0  0  0  0  0  0  0  0  0  0  0
   25.8590   40.3917  -10.2150 H   0  0  0  0  0  0  0  0  0  0  0  0
   24.4794   41.4021  -11.7889 H   0  0  0  0  0  0  0  0  0  0  0  0
   23.1512   41.3172   -9.1770 H   0  0  0  0  0  0  0  0  0  0  0  0
   22.9807   40.1984  -10.5065 H   0  0  0  0  0  0  0  0  0  0  0  0
   22.3577   41.5231  -12.5299 H   0  0  0  0  0  0  0  0  0  0  0  0
   21.5565   43.9896  -10.4747 H   0  0  0  0  0  0  0  0  0  0  0  0
   19.1251   42.3235  -11.1001 H   0  0  0  0  0  0  0  0  0  0  0  0
   18.2365   46.2179  -10.7639 H   0  0  0  0  0  0  0  0  0  0  0  0
   17.3733   46.1008   -9.2427 H   0  0  0  0  0  0  0  0  0  0  0  0
   16.4932   45.9994  -10.7618 H   0  0  0  0  0  0  0  0  0  0  0  0
   21.0912   40.0903   -8.7532 H   0  0  0  0  0  0  0  0  0  0  0  0
   19.4485   40.6042   -8.6826 H   0  0  0  0  0  0  0  0  0  0  0  0
   18.4600   39.2044  -12.0396 H   0  0  0  0  0  0  0  0  0  0  0  0
   19.2038   40.7650  -12.1240 H   0  0  0  0  0  0  0  0  0  0  0  0
   18.0154   40.4411  -10.8781 H   0  0  0  0  0  0  0  0  0  0  0  0
   19.6264   37.3611  -10.7439 H   0  0  0  0  0  0  0  0  0  0  0  0
   20.5772   37.7863   -9.3670 H   0  0  0  0  0  0  0  0  0  0  0  0
   18.4280   38.6928   -8.2529 H   0  0  0  0  0  0  0  0  0  0  0  0
   18.6081   36.9827   -8.4380 H   0  0  0  0  0  0  0  0  0  0  0  0
   16.9304   38.6556  -10.3535 H   0  0  0  0  0  0  0  0  0  0  0  0
   17.2001   36.9508  -10.4381 H   0  0  0  0  0  0  0  0  0  0  0  0
   16.0588   36.5853   -8.3506 H   0  0  0  0  0  0  0  0  0  0  0  0
   15.0387   37.4299   -9.4831 H   0  0  0  0  0  0  0  0  0  0  0  0
   14.6641   38.4156   -7.3278 H   0  0  0  0  0  0  0  0  0  0  0  0
   16.3529   38.5563   -6.9878 H   0  0  0  0  0  0  0  0  0  0  0  0
   16.6312   40.3845   -8.5786 H   0  0  0  0  0  0  0  0  0  0  0  0
   15.3479   40.7181   -7.4539 H   0  0  0  0  0  0  0  0  0  0  0  0
   14.9754   39.8659  -10.3687 H   0  0  0  0  0  0  0  0  0  0  0  0
   13.6659   39.9679   -9.2365 H   0  0  0  0  0  0  0  0  0  0  0  0
   14.1290   42.3929   -8.8609 H   0  0  0  0  0  0  0  0  0  0  0  0
   13.6787   41.9998  -10.4785 H   0  0  0  0  0  0  0  0  0  0  0  0
   16.8698   44.4720   -7.8236 H   0  0  0  0  0  0  0  0  0  0  0  0
   16.1669   42.8834   -7.6603 H   0  0  0  0  0  0  0  0  0  0  0  0
   15.1719   44.2545   -8.1727 H   0  0  0  0  0  0  0  0  0  0  0  0
   24.2682   42.7622  -10.8725 H   0  0  0  0  0  0  0  0  0  0  0  0
  1  9  1  0  0  0  0
  1  2  2  0  0  0  0
  1 40  1  0  0  0  0
  2  3  1  0  0  0  0
  2 41  1  0  0  0  0
  3  4  2  0  0  0  0
  3 42  1  0  0  0  0
  4  5  1  0  0  0  0
  4  8  1  0  0  0  0
  5  6  1  0  0  0  0
  5  7  1  0  0  0  0
  5 43  1  0  0  0  0
  6 44  1  0  0  0  0
  6 45  1  0  0  0  0
  6 46  1  0  0  0  0
  7 47  1  0  0  0  0
  7 48  1  0  0  0  0
  7 49  1  0  0  0  0
  8  9  2  0  0  0  0
  8 50  1  0  0  0  0
  9 10  1  0  0  0  0
 10 11  1  0  0  0  0
 10 51  1  0  0  0  0
 10 52  1  0  0  0  0
 11 12  1  0  0  0  0
 11 53  1  0  0  0  0
 11 86  1  0  0  0  0
 12 13  1  0  0  0  0
 12 54  1  0  0  0  0
 12 55  1  0  0  0  0
 13 14  1  0  0  0  0
 13 15  1  0  0  0  0
 13 16  1  0  0  0  0
 14 56  1  0  0  0  0
 15 57  1  0  0  0  0
 16 37  1  1  0  0  0
 16 17  1  0  0  0  0
 16 22  1  0  0  0  0
 17 18  1  0  0  0  0
 17 58  1  0  0  0  0
 18 19  2  0  0  0  0
 18 20  1  0  0  0  0
 20 38  1  6  0  0  0
 20 35  1  0  0  0  0
 20 21  1  0  0  0  0
 21 59  1  0  0  0  0
 21 60  1  0  0  0  0
 21 61  1  0  0  0  0
 22 23  1  0  0  0  0
 22 62  1  0  0  0  0
 22 63  1  0  0  0  0
 23 39  1  6  0  0  0
 23 24  1  0  0  0  0
 23 25  1  0  0  0  0
 24 64  1  0  0  0  0
 24 65  1  0  0  0  0
 24 66  1  0  0  0  0
 25 26  1  0  0  0  0
 25 67  1  0  0  0  0
 25 68  1  0  0  0  0
 26 27  1  0  0  0  0
 26 69  1  0  0  0  0
 26 70  1  0  0  0  0
 27 28  1  0  0  0  0
 27 71  1  0  0  0  0
 27 72  1  0  0  0  0
 28 29  1  0  0  0  0
 28 73  1  0  0  0  0
 28 74  1  0  0  0  0
 29 30  1  0  0  0  0
 29 75  1  0  0  0  0
 29 76  1  0  0  0  0
 30 31  1  0  0  0  0
 30 77  1  0  0  0  0
 30 78  1  0  0  0  0
 31 32  1  0  0  0  0
 31 79  1  0  0  0  0
 31 80  1  0  0  0  0
 32 33  1  0  0  0  0
 32 81  1  0  0  0  0
 32 82  1  0  0  0  0
 33 34  2  0  0  0  0
 33 35  1  0  0  0  0
 35 36  1  0  0  0  0
 36 83  1  0  0  0  0
 36 84  1  0  0  0  0
 36 85  1  0  0  0  0
M  CHG  1  11   1
M  END
>  <s_m_source_file>
BACE_3.smi

>  <i_m_source_file_index>
1

>  <i_lp_mmshare_version>
42013

>  <i_f3d_flags>
0

>  <s_epik_input>
W0NIM11bQ0hdKFtDSDNdKWMxW2NIXVtjSF1bY0hdYyhbY0hdMSlbQ0gyXVtOSF1bQ0gyXUMoW09IXSkoW09IXSlbQ0BIXTJbTkhdQyg9TylbQ0BIXShbQ0gzXSlOKFtDSDNdKUMoPU8pW0NIMl1bQ0gyXVtDSDJdW0NIMl1bQ0gyXVtDSDJdW0NIMl1bQ0gyXVtDQEhdKFtDSDJdMilbQ0gzXQ==

>  <s_epik_cmdline>
J2VwaWtfcHl0aG9uJywgJy1waCcsICc3LjAnLCAnLXRuJywgJzgnLCAnLW1hJywgJzIwMCcsICctaW1hZScsICc8aW5maWxlLm1hZT4nLCAnLW9tYWUnLCAnPG91dGZpbGUubWFlPic=

>  <r_epik_Ionization_Penalty>
0.0182

>  <r_epik_Ionization_Penalty_Charging>
0.0182

>  <r_epik_Ionization_Penalty_Neutral>
0

>  <r_epik_State_Penalty>
0.0144

>  <r_epik_Charging_Adjusted_Penalty>
0.0325934

>  <i_epik_Tot_Q>
1

>  <i_epik_Tot_abs_Q>
1

>  <s_lp_Force_Field>
OPLS_2005

>  <r_lp_Energy>
34.8509

>  <b_lp_Chiralities_Consistent>
1

>  <s_lp_Variant>
BACE_3.smi:1-1

>  <chiral flag>
1

>  <version>
0

>  <r_i_glide_lipo>
-1.16514

>  <r_i_glide_hbond>
0

>  <r_i_glide_metal>
-0

>  <r_i_glide_rewards>
-4.1169e-05

>  <r_i_glide_erotb>
0.40135

>  <r_i_glide_esite>
-0.066352

>  <s_i_glide_gridfile>
second_dock_grid_2

>  <i_i_glide_lignum>
4

>  <i_i_glide_rotatable_bonds>
8

>  <r_i_docking_score>
-2.32898

>  <r_i_glide_ligand_efficiency>
-0.0646938

>  <r_i_glide_ligand_efficiency_sa>
-0.213614

>  <r_i_glide_ligand_efficiency_ln>
-0.50812

>  <r_glide_XP_GScore>
-2.34338

>  <r_i_glide_gscore>
-2.34338

>  <r_i_glide_evdw>
-35.474

>  <r_i_glide_ecoul>
-14.2872

>  <r_i_glide_energy>
-49.7612

>  <r_i_glide_einternal>
5.85381

>  <r_i_glide_emodel>
-61.6015

>  <r_glide_XP_HBond>
-1.51927

>  <i_i_glide_confnum>
1

>  <i_i_glide_posenum>
5

>  <r_i_glide_eff_state_penalty>
0.0144

>  <i_glide_XP_PoseRank>
5

>  <chiral flag>
1

$$$$
