BACE_9.smi:1
 OpenBabel10031817133D
Structure written by MMmdl.
 88 90  0  0  1  0  0  0  0  0999 V2000
   20.1082   42.6152   -6.0795 C   0  0  0  0  0  0  0  0  0  0  0  0
   21.4737   43.0805   -6.6134 C   0  0  2  0  0  0  0  0  0  0  0  0
   21.9039   44.3948   -5.9250 C   0  0  0  0  0  0  0  0  0  0  0  0
   23.3480   44.8154   -6.2413 C   0  0  0  0  0  0  0  0  0  0  0  0
   23.8250   46.0036   -5.3885 C   0  0  0  0  0  0  0  0  0  0  0  0
   25.1937   46.5513   -5.8253 C   0  0  0  0  0  0  0  0  0  0  0  0
   26.3830   45.6401   -5.4613 C   0  0  0  0  0  0  0  0  0  0  0  0
   27.6946   46.0289   -6.1727 C   0  0  0  0  0  0  0  0  0  0  0  0
   27.9319   45.2802   -7.4946 C   0  0  0  0  0  0  0  0  0  0  0  0
   26.9150   45.5738   -8.4919 N   0  0  0  0  0  0  0  0  0  0  0  0
   26.6209   44.5781   -9.4289 C   0  0  0  0  0  0  0  0  0  0  0  0
   27.6162   43.7116   -9.9285 C   0  0  0  0  0  0  0  0  0  0  0  0
   27.2907   42.7130  -10.8640 C   0  0  0  0  0  0  0  0  0  0  0  0
   25.9518   42.5576  -11.2855 C   0  0  0  0  0  0  0  0  0  0  0  0
   24.9432   43.4065  -10.7776 C   0  0  0  0  0  0  0  0  0  0  0  0
   25.2922   44.4336   -9.8727 C   0  0  0  0  0  0  0  0  0  0  0  0
   23.5224   43.2503  -11.2385 C   0  0  0  0  0  0  0  0  0  0  0  0
   23.2454   43.3521  -12.4349 O   0  0  0  0  0  0  0  0  0  0  0  0
   22.5682   43.0045  -10.3242 N   0  0  0  0  0  0  0  0  0  0  0  0
   22.6892   42.5993   -8.9146 C   0  0  1  0  0  0  0  0  0  0  0  0
   21.4536   43.1727   -8.1631 C   0  0  0  0  0  0  0  0  0  0  0  0
   22.8640   41.0502   -8.8713 C   0  0  1  0  0  0  0  0  0  0  0  0
   22.1631   40.2477   -9.9987 C   0  0  0  0  0  0  0  0  0  0  0  0
   22.0755   38.8130   -9.6435 N   0  3  0  0  0  0  0  0  0  0  0  0
   20.9754   38.4141   -8.7438 C   0  0  0  0  0  0  0  0  0  0  0  0
   19.6702   39.1078   -9.0875 C   0  0  0  0  0  0  0  0  0  0  0  0
   19.5244   39.7455  -10.3371 C   0  0  0  0  0  0  0  0  0  0  0  0
   18.3065   40.3607  -10.6807 C   0  0  0  0  0  0  0  0  0  0  0  0
   17.2354   40.3534   -9.7680 C   0  0  0  0  0  0  0  0  0  0  0  0
   17.3735   39.7280   -8.5095 C   0  0  0  0  0  0  0  0  0  0  0  0
   18.5938   39.0983   -8.1783 C   0  0  0  0  0  0  0  0  0  0  0  0
   16.2177   39.7419   -7.5212 C   0  0  0  0  0  0  0  0  0  0  0  0
   15.0839   38.8114   -7.9797 C   0  0  0  0  0  0  0  0  0  0  0  0
   15.7045   41.1654   -7.2558 C   0  0  0  0  0  0  0  0  0  0  0  0
   24.2427   40.7255   -8.8402 O   0  0  0  0  0  0  0  0  0  0  0  0
   28.3809   41.7910  -11.3712 C   0  0  0  0  0  0  0  0  0  0  0  0
   29.4427   42.5100  -11.9889 O   0  0  0  0  0  0  0  0  0  0  0  0
   29.2086   42.7372  -13.3680 C   0  0  0  0  0  0  0  0  0  0  0  0
   22.1878   42.3348   -6.2980 H   0  0  0  0  0  0  0  0  0  0  0  0
   23.5795   43.0548   -8.4855 H   0  0  0  0  0  0  0  0  0  0  0  0
   22.4331   40.6892   -7.9367 H   0  0  0  0  0  0  0  0  0  0  0  0
   19.3191   43.3257   -6.3212 H   0  0  0  0  0  0  0  0  0  0  0  0
   20.1294   42.4963   -4.9952 H   0  0  0  0  0  0  0  0  0  0  0  0
   19.8283   41.6474   -6.4992 H   0  0  0  0  0  0  0  0  0  0  0  0
   21.2179   45.2001   -6.1873 H   0  0  0  0  0  0  0  0  0  0  0  0
   21.8139   44.2647   -4.8444 H   0  0  0  0  0  0  0  0  0  0  0  0
   24.0128   43.9669   -6.0881 H   0  0  0  0  0  0  0  0  0  0  0  0
   23.4182   45.0842   -7.2942 H   0  0  0  0  0  0  0  0  0  0  0  0
   23.0941   46.8087   -5.4681 H   0  0  0  0  0  0  0  0  0  0  0  0
   23.8539   45.7274   -4.3335 H   0  0  0  0  0  0  0  0  0  0  0  0
   25.1639   46.7516   -6.8947 H   0  0  0  0  0  0  0  0  0  0  0  0
   25.3527   47.5232   -5.3542 H   0  0  0  0  0  0  0  0  0  0  0  0
   26.5328   45.6974   -4.3831 H   0  0  0  0  0  0  0  0  0  0  0  0
   26.1594   44.5950   -5.6693 H   0  0  0  0  0  0  0  0  0  0  0  0
   27.7452   47.1087   -6.3252 H   0  0  0  0  0  0  0  0  0  0  0  0
   28.5265   45.7869   -5.5098 H   0  0  0  0  0  0  0  0  0  0  0  0
   28.9055   45.5538   -7.9021 H   0  0  0  0  0  0  0  0  0  0  0  0
   27.9578   44.2078   -7.3007 H   0  0  0  0  0  0  0  0  0  0  0  0
   26.1478   46.1521   -8.1814 H   0  0  0  0  0  0  0  0  0  0  0  0
   28.6419   43.8077   -9.6034 H   0  0  0  0  0  0  0  0  0  0  0  0
   25.6984   41.7834  -11.9935 H   0  0  0  0  0  0  0  0  0  0  0  0
   24.5297   45.1054   -9.5018 H   0  0  0  0  0  0  0  0  0  0  0  0
   21.6351   42.9284  -10.7026 H   0  0  0  0  0  0  0  0  0  0  0  0
   20.5535   42.6928   -8.5525 H   0  0  0  0  0  0  0  0  0  0  0  0
   21.3340   44.2205   -8.4386 H   0  0  0  0  0  0  0  0  0  0  0  0
   21.1585   40.6521  -10.1482 H   0  0  0  0  0  0  0  0  0  0  0  0
   22.6810   40.3036  -10.9516 H   0  0  0  0  0  0  0  0  0  0  0  0
   22.0354   38.2676  -10.4885 H   0  0  0  0  0  0  0  0  0  0  0  0
   20.8409   37.3370   -8.8375 H   0  0  0  0  0  0  0  0  0  0  0  0
   21.2366   38.5952   -7.7046 H   0  0  0  0  0  0  0  0  0  0  0  0
   20.3416   39.7583  -11.0406 H   0  0  0  0  0  0  0  0  0  0  0  0
   18.1888   40.8368  -11.6437 H   0  0  0  0  0  0  0  0  0  0  0  0
   16.3059   40.8313  -10.0393 H   0  0  0  0  0  0  0  0  0  0  0  0
   18.7026   38.6108   -7.2206 H   0  0  0  0  0  0  0  0  0  0  0  0
   16.5937   39.3568   -6.5713 H   0  0  0  0  0  0  0  0  0  0  0  0
   15.4462   37.7914   -8.1138 H   0  0  0  0  0  0  0  0  0  0  0  0
   14.6516   39.1393   -8.9267 H   0  0  0  0  0  0  0  0  0  0  0  0
   14.2819   38.7806   -7.2421 H   0  0  0  0  0  0  0  0  0  0  0  0
   16.5220   41.8220   -6.9549 H   0  0  0  0  0  0  0  0  0  0  0  0
   14.9631   41.1672   -6.4561 H   0  0  0  0  0  0  0  0  0  0  0  0
   15.2348   41.5995   -8.1395 H   0  0  0  0  0  0  0  0  0  0  0  0
   24.3756   39.8606   -9.2041 H   0  0  0  0  0  0  0  0  0  0  0  0
   28.7636   41.2225  -10.5206 H   0  0  0  0  0  0  0  0  0  0  0  0
   27.9586   41.0746  -12.0751 H   0  0  0  0  0  0  0  0  0  0  0  0
   30.0431   43.2889  -13.8023 H   0  0  0  0  0  0  0  0  0  0  0  0
   28.3015   43.3229  -13.5246 H   0  0  0  0  0  0  0  0  0  0  0  0
   29.1140   41.7945  -13.9040 H   0  0  0  0  0  0  0  0  0  0  0  0
   22.9530   38.5732   -9.1820 H   0  0  0  0  0  0  0  0  0  0  0  0
  1  2  1  0  0  0  0
  1 42  1  0  0  0  0
  1 43  1  0  0  0  0
  1 44  1  0  0  0  0
  2 39  1  1  0  0  0
  2 21  1  0  0  0  0
  2  3  1  0  0  0  0
  3  4  1  0  0  0  0
  3 45  1  0  0  0  0
  3 46  1  0  0  0  0
  4  5  1  0  0  0  0
  4 47  1  0  0  0  0
  4 48  1  0  0  0  0
  5  6  1  0  0  0  0
  5 49  1  0  0  0  0
  5 50  1  0  0  0  0
  6  7  1  0  0  0  0
  6 51  1  0  0  0  0
  6 52  1  0  0  0  0
  7  8  1  0  0  0  0
  7 53  1  0  0  0  0
  7 54  1  0  0  0  0
  8  9  1  0  0  0  0
  8 55  1  0  0  0  0
  8 56  1  0  0  0  0
  9 10  1  0  0  0  0
  9 57  1  0  0  0  0
  9 58  1  0  0  0  0
 10 11  1  0  0  0  0
 10 59  1  0  0  0  0
 11 16  1  0  0  0  0
 11 12  2  0  0  0  0
 12 13  1  0  0  0  0
 12 60  1  0  0  0  0
 13 14  2  0  0  0  0
 13 36  1  0  0  0  0
 14 15  1  0  0  0  0
 14 61  1  0  0  0  0
 15 16  2  0  0  0  0
 15 17  1  0  0  0  0
 16 62  1  0  0  0  0
 17 18  2  0  0  0  0
 17 19  1  0  0  0  0
 19 20  1  0  0  0  0
 19 63  1  0  0  0  0
 20 40  1  1  0  0  0
 20 21  1  0  0  0  0
 20 22  1  0  0  0  0
 21 64  1  0  0  0  0
 21 65  1  0  0  0  0
 22 41  1  1  0  0  0
 22 23  1  0  0  0  0
 22 35  1  0  0  0  0
 23 24  1  0  0  0  0
 23 66  1  0  0  0  0
 23 67  1  0  0  0  0
 24 25  1  0  0  0  0
 24 68  1  0  0  0  0
 24 88  1  0  0  0  0
 25 26  1  0  0  0  0
 25 69  1  0  0  0  0
 25 70  1  0  0  0  0
 26 31  1  0  0  0  0
 26 27  2  0  0  0  0
 27 28  1  0  0  0  0
 27 71  1  0  0  0  0
 28 29  2  0  0  0  0
 28 72  1  0  0  0  0
 29 30  1  0  0  0  0
 29 73  1  0  0  0  0
 30 31  2  0  0  0  0
 30 32  1  0  0  0  0
 31 74  1  0  0  0  0
 32 33  1  0  0  0  0
 32 34  1  0  0  0  0
 32 75  1  0  0  0  0
 33 76  1  0  0  0  0
 33 77  1  0  0  0  0
 33 78  1  0  0  0  0
 34 79  1  0  0  0  0
 34 80  1  0  0  0  0
 34 81  1  0  0  0  0
 35 82  1  0  0  0  0
 36 37  1  0  0  0  0
 36 83  1  0  0  0  0
 36 84  1  0  0  0  0
 37 38  1  0  0  0  0
 38 85  1  0  0  0  0
 38 86  1  0  0  0  0
 38 87  1  0  0  0  0
M  CHG  1  24   1
M  END
>  <s_m_source_file>
BACE_9.smi

>  <i_m_source_file_index>
1

>  <i_lp_mmshare_version>
42013

>  <i_f3d_flags>
0

>  <s_epik_input>
W05IXTFbQ0gyXVtDSDJdW0NIMl1bQ0gyXVtDSDJdW0NIMl1bQ0gyXVtDQEBIXShbQ0gzXSlbQ0gyXVtDQEhdKFtOSF1DKD1PKWMoW2NIXTIpW2NIXWMoW2NIXWMxMilbQ0gyXU9bQ0gzXSlbQ0BIXShbT0hdKVtDSDJdW05IXVtDSDJdYzNbY0hdW2NIXVtjSF1jKFtjSF0zKVtDSF0oW0NIM10pW0NIM10=

>  <s_epik_cmdline>
J2VwaWtfcHl0aG9uJywgJy1waCcsICc3LjAnLCAnLXRuJywgJzgnLCAnLW1hJywgJzIwMCcsICctaW1hZScsICc8aW5maWxlLm1hZT4nLCAnLW9tYWUnLCAnPG91dGZpbGUubWFlPic=

>  <r_epik_Ionization_Penalty>
0.0171

>  <r_epik_Ionization_Penalty_Charging>
0.0165

>  <r_epik_Ionization_Penalty_Neutral>
0.0006

>  <r_epik_State_Penalty>
0.013

>  <r_epik_Charging_Adjusted_Penalty>
0.0295552

>  <i_epik_Tot_Q>
1

>  <i_epik_Tot_abs_Q>
1

>  <s_lp_Force_Field>
OPLS_2005

>  <r_lp_Energy>
38.0252

>  <b_lp_Chiralities_Consistent>
1

>  <s_lp_Variant>
BACE_9.smi:1-1

>  <chiral flag>
1

>  <version>
0

>  <r_i_glide_lipo>
-0.710728

>  <r_i_glide_hbond>
-0.0540132

>  <r_i_glide_metal>
-0

>  <r_i_glide_rewards>
-0.0401973

>  <r_i_glide_erotb>
0.448381

>  <r_i_glide_esite>
-0.0114061

>  <s_i_glide_gridfile>
second_dock_grid_2

>  <i_i_glide_lignum>
18

>  <i_i_glide_rotatable_bonds>
9

>  <r_i_docking_score>
-1.95489

>  <r_i_glide_ligand_efficiency>
-0.0514446

>  <r_i_glide_ligand_efficiency_sa>
-0.172955

>  <r_i_glide_ligand_efficiency_ln>
-0.421533

>  <r_glide_XP_GScore>
-1.96789

>  <r_i_glide_gscore>
-1.96789

>  <r_i_glide_evdw>
-34.9414

>  <r_i_glide_ecoul>
-8.89282

>  <r_i_glide_energy>
-43.8342

>  <r_i_glide_einternal>
5.87757

>  <r_i_glide_emodel>
-61.3061

>  <r_glide_XP_HBond>
-0.7

>  <i_i_glide_confnum>
1

>  <i_i_glide_posenum>
27

>  <r_i_glide_eff_state_penalty>
0.013

>  <i_glide_XP_PoseRank>
4

>  <chiral flag>
1

$$$$
