BACE_13.smi:1
 OpenBabel10031817133D
Structure written by MMmdl.
 77 80  0  0  1  0  0  0  0  0999 V2000
   18.3039   42.9485  -13.0017 C   0  0  0  0  0  0  0  0  0  0  0  0
   16.9761   43.4356  -12.8399 O   0  0  0  0  0  0  0  0  0  0  0  0
   16.7974   44.2685  -11.6972 C   0  0  0  0  0  0  0  0  0  0  0  0
   17.1508   43.5694  -10.3965 C   0  0  0  0  0  0  0  0  0  0  0  0
   18.4773   43.6126   -9.9233 C   0  0  0  0  0  0  0  0  0  0  0  0
   18.8533   42.8581   -8.7945 C   0  0  0  0  0  0  0  0  0  0  0  0
   17.8737   42.1352   -8.0871 C   0  0  0  0  0  0  0  0  0  0  0  0
   16.5392   42.1047   -8.5386 C   0  0  0  0  0  0  0  0  0  0  0  0
   16.1812   42.8168   -9.7020 C   0  0  0  0  0  0  0  0  0  0  0  0
   15.6087   41.3282   -7.8445 N   0  0  0  0  0  0  0  0  0  0  0  0
   14.7499   40.4187   -8.5963 C   0  0  0  0  0  0  0  0  0  0  0  0
   15.5184   39.2935   -9.3071 C   0  0  0  0  0  0  0  0  0  0  0  0
   16.0841   38.2695   -8.3102 C   0  0  0  0  0  0  0  0  0  0  0  0
   17.0058   37.2209   -8.9556 C   0  0  0  0  0  0  0  0  0  0  0  0
   18.1118   37.8056   -9.6382 O   0  0  0  0  0  0  0  0  0  0  0  0
   19.1429   38.3651   -8.9119 C   0  0  0  0  0  0  0  0  0  0  0  0
   19.2264   38.3470   -7.4953 C   0  0  0  0  0  0  0  0  0  0  0  0
   20.3146   38.9464   -6.8395 C   0  0  0  0  0  0  0  0  0  0  0  0
   21.3428   39.5477   -7.5768 C   0  0  0  0  0  0  0  0  0  0  0  0
   21.2670   39.5908   -8.9812 C   0  0  0  0  0  0  0  0  0  0  0  0
   20.1743   38.9914   -9.6417 C   0  0  0  0  0  0  0  0  0  0  0  0
   22.3381   40.3351   -9.7607 C   0  0  0  0  0  0  0  0  0  0  0  0
   22.4245   41.8444   -9.3895 C   0  0  2  0  0  0  0  0  0  0  0  0
   21.0809   42.4152   -9.4489 N   0  0  0  0  0  0  0  0  0  0  0  0
   20.2916   42.7387   -8.4123 C   0  0  0  0  0  0  0  0  0  0  0  0
   20.6690   42.8171   -7.2448 O   0  0  0  0  0  0  0  0  0  0  0  0
   23.3541   42.7314  -10.2595 C   0  0  1  0  0  0  0  0  0  0  0  0
   24.8785   42.6608   -9.9818 C   0  0  1  0  0  0  0  0  0  0  0  0
   25.5582   41.2954  -10.2429 C   0  0  0  0  0  0  0  0  0  0  0  0
   26.9613   41.3857  -10.0401 O   0  0  0  0  0  0  0  0  0  0  0  0
   27.6426   42.3508  -10.8298 C   0  0  2  0  0  0  0  0  0  0  0  0
   27.0201   43.7392  -10.5831 C   0  0  0  0  0  0  0  0  0  0  0  0
   25.5570   43.7141  -10.7745 N   0  3  0  0  0  0  0  0  0  0  0  0
   27.6927   41.9323  -12.3080 C   0  0  0  0  0  0  0  0  0  0  0  0
   28.7351   42.6105  -12.9952 O   0  0  0  0  0  0  0  0  0  0  0  0
   29.9617   41.8906  -13.0212 C   0  0  0  0  0  0  0  0  0  0  0  0
   23.0933   42.5503  -11.6400 O   0  0  0  0  0  0  0  0  0  0  0  0
   22.7814   41.9197   -8.3607 H   0  0  0  0  0  0  0  0  0  0  0  0
   23.0716   43.7654  -10.0489 H   0  0  0  0  0  0  0  0  0  0  0  0
   25.0354   42.9073   -8.9295 H   0  0  0  0  0  0  0  0  0  0  0  0
   28.6627   42.3655  -10.4480 H   0  0  0  0  0  0  0  0  0  0  0  0
   18.4570   42.5502  -14.0047 H   0  0  0  0  0  0  0  0  0  0  0  0
   18.5155   42.1398  -12.3003 H   0  0  0  0  0  0  0  0  0  0  0  0
   19.0323   43.7437  -12.8406 H   0  0  0  0  0  0  0  0  0  0  0  0
   15.7576   44.5892  -11.6644 H   0  0  0  0  0  0  0  0  0  0  0  0
   17.3957   45.1744  -11.8041 H   0  0  0  0  0  0  0  0  0  0  0  0
   19.2200   44.1744  -10.4703 H   0  0  0  0  0  0  0  0  0  0  0  0
   18.1641   41.5324   -7.2398 H   0  0  0  0  0  0  0  0  0  0  0  0
   15.1696   42.7812  -10.0741 H   0  0  0  0  0  0  0  0  0  0  0  0
   15.8598   41.0211   -6.9122 H   0  0  0  0  0  0  0  0  0  0  0  0
   14.1388   40.9755   -9.3085 H   0  0  0  0  0  0  0  0  0  0  0  0
   14.0588   39.9657   -7.8867 H   0  0  0  0  0  0  0  0  0  0  0  0
   16.3153   39.7101   -9.9242 H   0  0  0  0  0  0  0  0  0  0  0  0
   14.8465   38.7772   -9.9917 H   0  0  0  0  0  0  0  0  0  0  0  0
   15.2606   37.7558   -7.8155 H   0  0  0  0  0  0  0  0  0  0  0  0
   16.6046   38.7984   -7.5148 H   0  0  0  0  0  0  0  0  0  0  0  0
   16.4368   36.6568   -9.6950 H   0  0  0  0  0  0  0  0  0  0  0  0
   17.3459   36.4871   -8.2250 H   0  0  0  0  0  0  0  0  0  0  0  0
   18.4729   37.8761   -6.8826 H   0  0  0  0  0  0  0  0  0  0  0  0
   20.3598   38.9492   -5.7609 H   0  0  0  0  0  0  0  0  0  0  0  0
   22.1684   40.0110   -7.0546 H   0  0  0  0  0  0  0  0  0  0  0  0
   20.1057   39.0236  -10.7190 H   0  0  0  0  0  0  0  0  0  0  0  0
   22.1492   40.2105  -10.8261 H   0  0  0  0  0  0  0  0  0  0  0  0
   23.2610   39.8103   -9.5518 H   0  0  0  0  0  0  0  0  0  0  0  0
   20.6367   42.3788  -10.3542 H   0  0  0  0  0  0  0  0  0  0  0  0
   25.3407   40.9155  -11.2372 H   0  0  0  0  0  0  0  0  0  0  0  0
   25.2120   40.5509   -9.5314 H   0  0  0  0  0  0  0  0  0  0  0  0
   27.4670   44.4839  -11.2446 H   0  0  0  0  0  0  0  0  0  0  0  0
   27.2326   44.0598   -9.5614 H   0  0  0  0  0  0  0  0  0  0  0  0
   25.3452   43.5419  -11.7481 H   0  0  0  0  0  0  0  0  0  0  0  0
   27.8219   40.8520  -12.3830 H   0  0  0  0  0  0  0  0  0  0  0  0
   26.7469   42.1712  -12.7981 H   0  0  0  0  0  0  0  0  0  0  0  0
   30.7221   42.4787  -13.5340 H   0  0  0  0  0  0  0  0  0  0  0  0
   29.8509   40.9513  -13.5651 H   0  0  0  0  0  0  0  0  0  0  0  0
   30.3242   41.6718  -12.0158 H   0  0  0  0  0  0  0  0  0  0  0  0
   23.3461   41.6765  -11.9230 H   0  0  0  0  0  0  0  0  0  0  0  0
   25.1707   44.6128  -10.5251 H   0  0  0  0  0  0  0  0  0  0  0  0
  1  2  1  0  0  0  0
  1 42  1  0  0  0  0
  1 43  1  0  0  0  0
  1 44  1  0  0  0  0
  2  3  1  0  0  0  0
  3  4  1  0  0  0  0
  3 45  1  0  0  0  0
  3 46  1  0  0  0  0
  4  9  1  0  0  0  0
  4  5  2  0  0  0  0
  5  6  1  0  0  0  0
  5 47  1  0  0  0  0
  6 25  1  0  0  0  0
  6  7  2  0  0  0  0
  7  8  1  0  0  0  0
  7 48  1  0  0  0  0
  8  9  2  0  0  0  0
  8 10  1  0  0  0  0
  9 49  1  0  0  0  0
 10 11  1  0  0  0  0
 10 50  1  0  0  0  0
 11 12  1  0  0  0  0
 11 51  1  0  0  0  0
 11 52  1  0  0  0  0
 12 13  1  0  0  0  0
 12 53  1  0  0  0  0
 12 54  1  0  0  0  0
 13 14  1  0  0  0  0
 13 55  1  0  0  0  0
 13 56  1  0  0  0  0
 14 15  1  0  0  0  0
 14 57  1  0  0  0  0
 14 58  1  0  0  0  0
 15 16  1  0  0  0  0
 16 21  1  0  0  0  0
 16 17  2  0  0  0  0
 17 18  1  0  0  0  0
 17 59  1  0  0  0  0
 18 19  2  0  0  0  0
 18 60  1  0  0  0  0
 19 20  1  0  0  0  0
 19 61  1  0  0  0  0
 20 21  2  0  0  0  0
 20 22  1  0  0  0  0
 21 62  1  0  0  0  0
 22 23  1  0  0  0  0
 22 63  1  0  0  0  0
 22 64  1  0  0  0  0
 23 38  1  1  0  0  0
 23 24  1  0  0  0  0
 23 27  1  0  0  0  0
 24 25  1  0  0  0  0
 24 65  1  0  0  0  0
 25 26  2  0  0  0  0
 27 39  1  1  0  0  0
 27 28  1  0  0  0  0
 27 37  1  0  0  0  0
 28 40  1  1  0  0  0
 28 33  1  0  0  0  0
 28 29  1  0  0  0  0
 29 30  1  0  0  0  0
 29 66  1  0  0  0  0
 29 67  1  0  0  0  0
 30 31  1  0  0  0  0
 31 41  1  1  0  0  0
 31 32  1  0  0  0  0
 31 34  1  0  0  0  0
 32 33  1  0  0  0  0
 32 68  1  0  0  0  0
 32 69  1  0  0  0  0
 33 70  1  0  0  0  0
 33 77  1  0  0  0  0
 34 35  1  0  0  0  0
 34 71  1  0  0  0  0
 34 72  1  0  0  0  0
 35 36  1  0  0  0  0
 36 73  1  0  0  0  0
 36 74  1  0  0  0  0
 36 75  1  0  0  0  0
 37 76  1  0  0  0  0
M  CHG  1  33   1
M  END
>  <s_m_source_file>
BACE_13.smi

>  <i_m_source_file_index>
1

>  <i_lp_mmshare_version>
42013

>  <i_f3d_flags>
0

>  <s_epik_input>
W0NIM11PW0NIMl1jKFtjSF1jMTIpW2NIXWMoW2NIXTEpW05IXVtDSDJdW0NIMl1bQ0gyXVtDSDJdT2MzW2NIXVtjSF1bY0hdYyhbY0hdMylbQ0gyXVtDQEhdKFtOSF1DMj1PKVtDQEhdKFtPSF0pW0NASF00W0NIMl1PW0NASF0oW0NIMl1bTkhdNClbQ0gyXU9bQ0gzXQ==

>  <s_epik_cmdline>
J2VwaWtfcHl0aG9uJywgJy1waCcsICc3LjAnLCAnLXRuJywgJzgnLCAnLW1hJywgJzIwMCcsICctaW1hZScsICc8aW5maWxlLm1hZT4nLCAnLW9tYWUnLCAnPG91dGZpbGUubWFlPic=

>  <r_lp_tautomer_probability>
1

>  <r_epik_Ionization_Penalty>
0.1161

>  <r_epik_Ionization_Penalty_Charging>
0.1158

>  <r_epik_Ionization_Penalty_Neutral>
0.0003

>  <r_epik_State_Penalty>
0.1054

>  <r_epik_Charging_Adjusted_Penalty>
0.221149

>  <i_epik_Tot_Q>
1

>  <i_epik_Tot_abs_Q>
1

>  <s_lp_Force_Field>
OPLS_2005

>  <r_lp_Energy>
45.964

>  <b_lp_Chiralities_Consistent>
1

>  <s_lp_Variant>
BACE_13.smi:1-1

>  <chiral flag>
1

>  <version>
0

>  <r_i_glide_lipo>
-0.389877

>  <r_i_glide_hbond>
-0.448198

>  <r_i_glide_metal>
-0

>  <r_i_glide_rewards>
0

>  <r_i_glide_erotb>
0.309821

>  <r_i_glide_esite>
-0.0409344

>  <s_i_glide_gridfile>
second_dock_grid_2

>  <i_i_glide_lignum>
26

>  <i_i_glide_rotatable_bonds>
7

>  <r_i_docking_score>
-2.94565

>  <r_i_glide_ligand_efficiency>
-0.079612

>  <r_i_glide_ligand_efficiency_sa>
-0.265285

>  <r_i_glide_ligand_efficiency_ln>
-0.638841

>  <r_glide_XP_GScore>
-3.05105

>  <r_i_glide_gscore>
-3.05105

>  <r_i_glide_evdw>
-37.325

>  <r_i_glide_ecoul>
-12.422

>  <r_i_glide_energy>
-49.747

>  <r_i_glide_einternal>
6.91688

>  <r_i_glide_emodel>
-60.2012

>  <r_glide_XP_HBond>
-1.62337

>  <i_i_glide_confnum>
1

>  <i_i_glide_posenum>
43

>  <r_i_glide_eff_state_penalty>
0.1054

>  <i_glide_XP_PoseRank>
8

>  <chiral flag>
1

$$$$
