REMARK energy -1.70547
 OpenBabel09281823033D
Structure written by MMmdl.
 88 90  0  0  1  0  0  0  0  0999 V2000
   21.8527   43.3759   -6.0466 C   0  0  0  0  0  0  0  0  0  0  0  0
   23.2581   43.5775   -6.6402 C   0  0  2  0  0  0  0  0  0  0  0  0
   23.9686   44.7435   -5.9168 C   0  0  0  0  0  0  0  0  0  0  0  0
   25.4411   44.9436   -6.3134 C   0  0  0  0  0  0  0  0  0  0  0  0
   26.1360   46.0410   -5.4880 C   0  0  0  0  0  0  0  0  0  0  0  0
   27.5314   46.4076   -6.0149 C   0  0  0  0  0  0  0  0  0  0  0  0
   28.6037   45.3286   -5.7653 C   0  0  0  0  0  0  0  0  0  0  0  0
   29.9324   45.6163   -6.4938 C   0  0  0  0  0  0  0  0  0  0  0  0
   30.0526   44.9281   -7.8656 C   0  0  0  0  0  0  0  0  0  0  0  0
   28.9835   45.3238   -8.7728 N   0  0  0  0  0  0  0  0  0  0  0  0
   28.4596   44.3821   -9.6679 C   0  0  0  0  0  0  0  0  0  0  0  0
   29.2511   43.3474  -10.2138 C   0  0  0  0  0  0  0  0  0  0  0  0
   28.6975   42.4347  -11.1338 C   0  0  0  0  0  0  0  0  0  0  0  0
   27.3389   42.5457  -11.4970 C   0  0  0  0  0  0  0  0  0  0  0  0
   26.5293   43.5573  -10.9368 C   0  0  0  0  0  0  0  0  0  0  0  0
   27.1032   44.4832  -10.0383 C   0  0  0  0  0  0  0  0  0  0  0  0
   25.0847   43.6681  -11.3357 C   0  0  0  0  0  0  0  0  0  0  0  0
   24.7937   43.9399  -12.4961 O   0  0  0  0  0  0  0  0  0  0  0  0
   24.1247   43.4664  -10.4121 N   0  0  0  0  0  0  0  0  0  0  0  0
   24.2534   43.0265   -9.0172 C   0  0  1  0  0  0  0  0  0  0  0  0
   23.1798   43.7685   -8.1791 C   0  0  0  0  0  0  0  0  0  0  0  0
   24.2018   41.4743   -8.9042 C   0  0  1  0  0  0  0  0  0  0  0  0
   22.8743   40.7885   -9.3083 C   0  0  0  0  0  0  0  0  0  0  0  0
   22.8600   39.3844   -8.8400 N   0  3  0  0  0  0  0  0  0  0  0  0
   21.7368   38.5443   -9.3122 C   0  0  0  0  0  0  0  0  0  0  0  0
   20.4659   38.6724   -8.4853 C   0  0  0  0  0  0  0  0  0  0  0  0
   20.5183   39.0290   -7.1205 C   0  0  0  0  0  0  0  0  0  0  0  0
   19.3361   39.0793   -6.3639 C   0  0  0  0  0  0  0  0  0  0  0  0
   18.1005   38.7495   -6.9401 C   0  0  0  0  0  0  0  0  0  0  0  0
   18.0323   38.3811   -8.2958 C   0  0  0  0  0  0  0  0  0  0  0  0
   19.2170   38.3545   -9.0695 C   0  0  0  0  0  0  0  0  0  0  0  0
   16.6849   37.9942   -8.8870 C   0  0  0  0  0  0  0  0  0  0  0  0
   16.6638   36.5161   -9.2983 C   0  0  0  0  0  0  0  0  0  0  0  0
   16.2799   38.9342  -10.0303 C   0  0  0  0  0  0  0  0  0  0  0  0
   25.2523   40.9500   -9.6913 O   0  0  0  0  0  0  0  0  0  0  0  0
   29.5608   41.3222  -11.7015 C   0  0  0  0  0  0  0  0  0  0  0  0
   30.8752   41.7502  -12.0274 O   0  0  0  0  0  0  0  0  0  0  0  0
   30.9403   42.4842  -13.2412 C   0  0  0  0  0  0  0  0  0  0  0  0
   23.8104   42.6702   -6.4102 H   0  0  0  0  0  0  0  0  0  0  0  0
   25.2220   43.3354   -8.6310 H   0  0  0  0  0  0  0  0  0  0  0  0
   24.4513   41.2008   -7.8826 H   0  0  0  0  0  0  0  0  0  0  0  0
   21.2196   44.2467   -6.2192 H   0  0  0  0  0  0  0  0  0  0  0  0
   21.9008   43.2089   -4.9697 H   0  0  0  0  0  0  0  0  0  0  0  0
   21.3569   42.5081   -6.4852 H   0  0  0  0  0  0  0  0  0  0  0  0
   23.4194   45.6700   -6.0894 H   0  0  0  0  0  0  0  0  0  0  0  0
   23.9239   44.5679   -4.8411 H   0  0  0  0  0  0  0  0  0  0  0  0
   25.9776   44.0004   -6.2033 H   0  0  0  0  0  0  0  0  0  0  0  0
   25.4961   45.2164   -7.3663 H   0  0  0  0  0  0  0  0  0  0  0  0
   25.5179   46.9394   -5.5113 H   0  0  0  0  0  0  0  0  0  0  0  0
   26.2029   45.7500   -4.4402 H   0  0  0  0  0  0  0  0  0  0  0  0
   27.4518   46.6442   -7.0738 H   0  0  0  0  0  0  0  0  0  0  0  0
   27.8580   47.3307   -5.5343 H   0  0  0  0  0  0  0  0  0  0  0  0
   28.7892   45.2775   -4.6914 H   0  0  0  0  0  0  0  0  0  0  0  0
   28.2424   44.3398   -6.0511 H   0  0  0  0  0  0  0  0  0  0  0  0
   30.0891   46.6917   -6.5902 H   0  0  0  0  0  0  0  0  0  0  0  0
   30.7538   45.2583   -5.8721 H   0  0  0  0  0  0  0  0  0  0  0  0
   31.0092   45.1854   -8.3212 H   0  0  0  0  0  0  0  0  0  0  0  0
   30.0598   43.8487   -7.7224 H   0  0  0  0  0  0  0  0  0  0  0  0
   28.3477   46.0230   -8.4224 H   0  0  0  0  0  0  0  0  0  0  0  0
   30.2946   43.2579   -9.9503 H   0  0  0  0  0  0  0  0  0  0  0  0
   26.9080   41.8393  -12.1918 H   0  0  0  0  0  0  0  0  0  0  0  0
   26.4948   45.2753   -9.6272 H   0  0  0  0  0  0  0  0  0  0  0  0
   23.1829   43.5760  -10.7546 H   0  0  0  0  0  0  0  0  0  0  0  0
   22.1932   43.4789   -8.5383 H   0  0  0  0  0  0  0  0  0  0  0  0
   23.2336   44.8363   -8.3975 H   0  0  0  0  0  0  0  0  0  0  0  0
   22.0187   41.2887   -8.8576 H   0  0  0  0  0  0  0  0  0  0  0  0
   22.7407   40.8314  -10.3905 H   0  0  0  0  0  0  0  0  0  0  0  0
   23.7039   38.9453   -9.2113 H   0  0  0  0  0  0  0  0  0  0  0  0
   21.5322   38.7446  -10.3648 H   0  0  0  0  0  0  0  0  0  0  0  0
   22.0559   37.5033   -9.2509 H   0  0  0  0  0  0  0  0  0  0  0  0
   21.4510   39.2557   -6.6273 H   0  0  0  0  0  0  0  0  0  0  0  0
   19.3726   39.3507   -5.3193 H   0  0  0  0  0  0  0  0  0  0  0  0
   17.2067   38.7686   -6.3299 H   0  0  0  0  0  0  0  0  0  0  0  0
   19.1681   38.0568  -10.1075 H   0  0  0  0  0  0  0  0  0  0  0  0
   15.9301   38.1076   -8.1060 H   0  0  0  0  0  0  0  0  0  0  0  0
   16.8514   35.8747   -8.4367 H   0  0  0  0  0  0  0  0  0  0  0  0
   17.4317   36.3060  -10.0390 H   0  0  0  0  0  0  0  0  0  0  0  0
   15.6977   36.2357   -9.7198 H   0  0  0  0  0  0  0  0  0  0  0  0
   16.2034   39.9628   -9.6774 H   0  0  0  0  0  0  0  0  0  0  0  0
   15.3085   38.6553  -10.4402 H   0  0  0  0  0  0  0  0  0  0  0  0
   17.0080   38.9185  -10.8399 H   0  0  0  0  0  0  0  0  0  0  0  0
   25.2717   40.0027   -9.6403 H   0  0  0  0  0  0  0  0  0  0  0  0
   29.6604   40.5501  -10.9396 H   0  0  0  0  0  0  0  0  0  0  0  0
   29.0805   40.8484  -12.5605 H   0  0  0  0  0  0  0  0  0  0  0  0
   31.9735   42.7751  -13.4325 H   0  0  0  0  0  0  0  0  0  0  0  0
   30.3387   43.3930  -13.1952 H   0  0  0  0  0  0  0  0  0  0  0  0
   30.6002   41.8802  -14.0854 H   0  0  0  0  0  0  0  0  0  0  0  0
   22.9027   39.3531   -7.8332 H   0  0  0  0  0  0  0  0  0  0  0  0
  1  2  1  0  0  0  0
  1 42  1  0  0  0  0
  1 43  1  0  0  0  0
  1 44  1  0  0  0  0
  2 39  1  1  0  0  0
  2 21  1  0  0  0  0
  2  3  1  0  0  0  0
  3  4  1  0  0  0  0
  3 45  1  0  0  0  0
  3 46  1  0  0  0  0
  4  5  1  0  0  0  0
  4 47  1  0  0  0  0
  4 48  1  0  0  0  0
  5  6  1  0  0  0  0
  5 49  1  0  0  0  0
  5 50  1  0  0  0  0
  6  7  1  0  0  0  0
  6 51  1  0  0  0  0
  6 52  1  0  0  0  0
  7  8  1  0  0  0  0
  7 53  1  0  0  0  0
  7 54  1  0  0  0  0
  8  9  1  0  0  0  0
  8 55  1  0  0  0  0
  8 56  1  0  0  0  0
  9 10  1  0  0  0  0
  9 57  1  0  0  0  0
  9 58  1  0  0  0  0
 10 11  1  0  0  0  0
 10 59  1  0  0  0  0
 11 16  1  0  0  0  0
 11 12  2  0  0  0  0
 12 13  1  0  0  0  0
 12 60  1  0  0  0  0
 13 14  2  0  0  0  0
 13 36  1  0  0  0  0
 14 15  1  0  0  0  0
 14 61  1  0  0  0  0
 15 16  2  0  0  0  0
 15 17  1  0  0  0  0
 16 62  1  0  0  0  0
 17 18  2  0  0  0  0
 17 19  1  0  0  0  0
 19 20  1  0  0  0  0
 19 63  1  0  0  0  0
 20 40  1  1  0  0  0
 20 21  1  0  0  0  0
 20 22  1  0  0  0  0
 21 64  1  0  0  0  0
 21 65  1  0  0  0  0
 22 41  1  1  0  0  0
 22 23  1  0  0  0  0
 22 35  1  0  0  0  0
 23 24  1  0  0  0  0
 23 66  1  0  0  0  0
 23 67  1  0  0  0  0
 24 25  1  0  0  0  0
 24 68  1  0  0  0  0
 24 88  1  0  0  0  0
 25 26  1  0  0  0  0
 25 69  1  0  0  0  0
 25 70  1  0  0  0  0
 26 31  1  0  0  0  0
 26 27  2  0  0  0  0
 27 28  1  0  0  0  0
 27 71  1  0  0  0  0
 28 29  2  0  0  0  0
 28 72  1  0  0  0  0
 29 30  1  0  0  0  0
 29 73  1  0  0  0  0
 30 31  2  0  0  0  0
 30 32  1  0  0  0  0
 31 74  1  0  0  0  0
 32 33  1  0  0  0  0
 32 34  1  0  0  0  0
 32 75  1  0  0  0  0
 33 76  1  0  0  0  0
 33 77  1  0  0  0  0
 33 78  1  0  0  0  0
 34 79  1  0  0  0  0
 34 80  1  0  0  0  0
 34 81  1  0  0  0  0
 35 82  1  0  0  0  0
 36 37  1  0  0  0  0
 36 83  1  0  0  0  0
 36 84  1  0  0  0  0
 37 38  1  0  0  0  0
 38 85  1  0  0  0  0
 38 86  1  0  0  0  0
 38 87  1  0  0  0  0
M  CHG  1  24   1
M  END
