REMARK energy -4.28726
 OpenBabel09281823033D
Structure written by MMmdl.
 76 77  0  0  1  0  0  0  0  0999 V2000
   20.6750   40.6558   -3.2786 C   0  0  0  0  0  0  0  0  0  0  0  0
   21.7151   40.3790   -4.3660 C   0  0  0  0  0  0  0  0  0  0  0  0
   21.0863   39.9970   -5.7178 C   0  0  0  0  0  0  0  0  0  0  0  0
   22.1431   39.7511   -6.7998 C   0  0  0  0  0  0  0  0  0  0  0  0
   22.8741   40.9105   -7.3013 N   0  0  0  0  0  0  0  0  0  0  0  0
   22.4604   42.1671   -7.5315 C   0  0  0  0  0  0  0  0  0  0  0  0
   21.4231   42.6558   -7.0950 O   0  0  0  0  0  0  0  0  0  0  0  0
   23.3408   42.9811   -8.4842 C   0  0  2  0  0  0  0  0  0  0  0  0
   23.6927   44.3436   -7.8588 C   0  0  0  0  0  0  0  0  0  0  0  0
   22.6733   43.1574   -9.8733 C   0  0  0  0  0  0  0  0  0  0  0  0
   22.3985   41.8461  -10.6668 C   0  0  1  0  0  0  0  0  0  0  0  0
   21.0696   41.0924  -10.3569 C   0  0  2  0  0  0  0  0  0  0  0  0
   20.8821   39.7558  -11.1341 C   0  0  0  0  0  0  0  0  0  0  0  0
   19.7151   38.8170  -10.7084 C   0  0  1  0  0  0  0  0  0  0  0  0
   19.7125   38.4609   -9.2004 C   0  0  0  0  0  0  0  0  0  0  0  0
   18.5430   37.6226   -8.6340 C   0  0  0  0  0  0  0  0  0  0  0  0
   17.2201   38.3663   -8.5731 C   0  0  0  0  0  0  0  0  0  0  0  0
   16.0654   37.8111   -9.1610 C   0  0  0  0  0  0  0  0  0  0  0  0
   14.8817   38.5649   -9.2187 C   0  0  0  0  0  0  0  0  0  0  0  0
   14.8604   39.8836   -8.7347 C   0  0  0  0  0  0  0  0  0  0  0  0
   15.9888   40.4259   -8.0901 C   0  0  0  0  0  0  0  0  0  0  0  0
   17.1547   39.6449   -7.9778 C   0  0  0  0  0  0  0  0  0  0  0  0
   15.9233   41.8221   -7.4973 C   0  0  0  0  0  0  0  0  0  0  0  0
   17.2164   42.9732   -8.1598 S   0  0  0  0  0  0  0  0  0  0  0  0
   16.9051   44.3405   -7.7106 O   0  0  0  0  0  0  0  0  0  0  0  0
   18.5507   42.4195   -7.8894 O   0  0  0  0  0  0  0  0  0  0  0  0
   16.9388   42.9177   -9.9882 C   0  0  0  0  0  0  0  0  0  0  0  0
   18.0855   43.5328  -10.8351 C   0  0  2  0  0  0  0  0  0  0  0  0
   19.1543   42.5079  -11.2521 C   0  0  0  0  0  0  0  0  0  0  0  0
   19.2599   42.1962  -12.4381 O   0  0  0  0  0  0  0  0  0  0  0  0
   19.9093   41.9845  -10.2702 N   0  0  0  0  0  0  0  0  0  0  0  0
   18.7271   44.8101  -10.2594 C   0  0  0  0  0  0  0  0  0  0  0  0
   18.3772   39.3460  -11.2103 C   0  0  0  0  0  0  0  0  0  0  0  0
   22.4597   42.1500  -12.0405 O   0  0  0  0  0  0  0  0  0  0  0  0
   24.2806   42.4439   -8.6261 H   0  0  0  0  0  0  0  0  0  0  0  0
   23.2310   41.1633  -10.4881 H   0  0  0  0  0  0  0  0  0  0  0  0
   21.1767   40.7719   -9.3329 H   0  0  0  0  0  0  0  0  0  0  0  0
   19.8703   37.8800  -11.2412 H   0  0  0  0  0  0  0  0  0  0  0  0
   17.6167   43.8374  -11.7724 H   0  0  0  0  0  0  0  0  0  0  0  0
   21.1559   40.9386   -2.3432 H   0  0  0  0  0  0  0  0  0  0  0  0
   20.0604   39.7761   -3.0902 H   0  0  0  0  0  0  0  0  0  0  0  0
   20.0203   41.4785   -3.5709 H   0  0  0  0  0  0  0  0  0  0  0  0
   22.3352   41.2671   -4.4924 H   0  0  0  0  0  0  0  0  0  0  0  0
   22.3824   39.5836   -4.0328 H   0  0  0  0  0  0  0  0  0  0  0  0
   20.5102   39.0772   -5.6386 H   0  0  0  0  0  0  0  0  0  0  0  0
   20.3556   40.7405   -6.0320 H   0  0  0  0  0  0  0  0  0  0  0  0
   22.8594   39.0153   -6.4402 H   0  0  0  0  0  0  0  0  0  0  0  0
   21.6957   39.2757   -7.6588 H   0  0  0  0  0  0  0  0  0  0  0  0
   23.7762   40.6874   -7.6923 H   0  0  0  0  0  0  0  0  0  0  0  0
   24.1344   44.2248   -6.8676 H   0  0  0  0  0  0  0  0  0  0  0  0
   22.8121   44.9815   -7.7578 H   0  0  0  0  0  0  0  0  0  0  0  0
   24.4181   44.8795   -8.4708 H   0  0  0  0  0  0  0  0  0  0  0  0
   21.7661   43.7572   -9.7888 H   0  0  0  0  0  0  0  0  0  0  0  0
   23.3578   43.7691  -10.4650 H   0  0  0  0  0  0  0  0  0  0  0  0
   20.8097   39.9608  -12.2029 H   0  0  0  0  0  0  0  0  0  0  0  0
   21.8081   39.1892  -11.0235 H   0  0  0  0  0  0  0  0  0  0  0  0
   20.6310   37.9100   -9.0032 H   0  0  0  0  0  0  0  0  0  0  0  0
   19.7585   39.3714   -8.6142 H   0  0  0  0  0  0  0  0  0  0  0  0
   18.4376   36.6917   -9.1919 H   0  0  0  0  0  0  0  0  0  0  0  0
   18.7825   37.3577   -7.6056 H   0  0  0  0  0  0  0  0  0  0  0  0
   16.0915   36.8186   -9.5837 H   0  0  0  0  0  0  0  0  0  0  0  0
   13.9838   38.1469   -9.6396 H   0  0  0  0  0  0  0  0  0  0  0  0
   13.9569   40.4590   -8.8386 H   0  0  0  0  0  0  0  0  0  0  0  0
   18.0125   40.0454   -7.4617 H   0  0  0  0  0  0  0  0  0  0  0  0
   14.9450   42.2734   -7.6612 H   0  0  0  0  0  0  0  0  0  0  0  0
   16.0598   41.7504   -6.4202 H   0  0  0  0  0  0  0  0  0  0  0  0
   16.7513   41.8851  -10.2724 H   0  0  0  0  0  0  0  0  0  0  0  0
   16.0073   43.4517  -10.1729 H   0  0  0  0  0  0  0  0  0  0  0  0
   19.6487   42.2546   -9.3256 H   0  0  0  0  0  0  0  0  0  0  0  0
   19.4383   45.2427  -10.9632 H   0  0  0  0  0  0  0  0  0  0  0  0
   19.2686   44.6234   -9.3294 H   0  0  0  0  0  0  0  0  0  0  0  0
   17.9727   45.5686  -10.0518 H   0  0  0  0  0  0  0  0  0  0  0  0
   17.9845   40.1158  -10.5569 H   0  0  0  0  0  0  0  0  0  0  0  0
   17.6448   38.5503  -11.2407 H   0  0  0  0  0  0  0  0  0  0  0  0
   18.4632   39.7602  -12.2079 H   0  0  0  0  0  0  0  0  0  0  0  0
   23.0277   41.5098  -12.4710 H   0  0  0  0  0  0  0  0  0  0  0  0
  1  2  1  0  0  0  0
  1 40  1  0  0  0  0
  1 41  1  0  0  0  0
  1 42  1  0  0  0  0
  2  3  1  0  0  0  0
  2 43  1  0  0  0  0
  2 44  1  0  0  0  0
  3  4  1  0  0  0  0
  3 45  1  0  0  0  0
  3 46  1  0  0  0  0
  4  5  1  0  0  0  0
  4 47  1  0  0  0  0
  4 48  1  0  0  0  0
  5  6  1  0  0  0  0
  5 49  1  0  0  0  0
  6  7  2  0  0  0  0
  6  8  1  0  0  0  0
  8 35  1  6  0  0  0
  8  9  1  0  0  0  0
  8 10  1  0  0  0  0
  9 50  1  0  0  0  0
  9 51  1  0  0  0  0
  9 52  1  0  0  0  0
 10 11  1  0  0  0  0
 10 53  1  0  0  0  0
 10 54  1  0  0  0  0
 11 36  1  1  0  0  0
 11 12  1  0  0  0  0
 11 34  1  0  0  0  0
 12 37  1  1  0  0  0
 12 31  1  0  0  0  0
 12 13  1  0  0  0  0
 13 14  1  0  0  0  0
 13 55  1  0  0  0  0
 13 56  1  0  0  0  0
 14 38  1  6  0  0  0
 14 15  1  0  0  0  0
 14 33  1  0  0  0  0
 15 16  1  0  0  0  0
 15 57  1  0  0  0  0
 15 58  1  0  0  0  0
 16 17  1  0  0  0  0
 16 59  1  0  0  0  0
 16 60  1  0  0  0  0
 17 22  1  0  0  0  0
 17 18  2  0  0  0  0
 18 19  1  0  0  0  0
 18 61  1  0  0  0  0
 19 20  2  0  0  0  0
 19 62  1  0  0  0  0
 20 21  1  0  0  0  0
 20 63  1  0  0  0  0
 21 22  2  0  0  0  0
 21 23  1  0  0  0  0
 22 64  1  0  0  0  0
 23 24  1  0  0  0  0
 23 65  1  0  0  0  0
 23 66  1  0  0  0  0
 24 25  2  0  0  0  0
 24 26  2  0  0  0  0
 24 27  1  0  0  0  0
 27 28  1  0  0  0  0
 27 67  1  0  0  0  0
 27 68  1  0  0  0  0
 28 39  1  6  0  0  0
 28 29  1  0  0  0  0
 28 32  1  0  0  0  0
 29 30  2  0  0  0  0
 29 31  1  0  0  0  0
 31 69  1  0  0  0  0
 32 70  1  0  0  0  0
 32 71  1  0  0  0  0
 32 72  1  0  0  0  0
 33 73  1  0  0  0  0
 33 74  1  0  0  0  0
 33 75  1  0  0  0  0
 34 76  1  0  0  0  0
M  END
