REMARK energy -4.67181
 OpenBabel09281823033D
Structure written by MMmdl.
 76 77  0  0  1  0  0  0  0  0999 V2000
   21.8138   42.2228   -2.8134 C   0  0  0  0  0  0  0  0  0  0  0  0
   21.6634   41.9946   -4.3209 C   0  0  0  0  0  0  0  0  0  0  0  0
   22.1679   40.6118   -4.7701 C   0  0  0  0  0  0  0  0  0  0  0  0
   21.8364   40.2777   -6.2378 C   0  0  0  0  0  0  0  0  0  0  0  0
   22.7186   40.9349   -7.2005 N   0  0  0  0  0  0  0  0  0  0  0  0
   22.5172   42.1412   -7.7548 C   0  0  0  0  0  0  0  0  0  0  0  0
   21.6018   42.8928   -7.4261 O   0  0  0  0  0  0  0  0  0  0  0  0
   23.4679   42.5457   -8.8901 C   0  0  2  0  0  0  0  0  0  0  0  0
   24.2418   43.8118   -8.4840 C   0  0  0  0  0  0  0  0  0  0  0  0
   22.7210   42.7575  -10.2346 C   0  0  0  0  0  0  0  0  0  0  0  0
   22.2512   41.4649  -10.9499 C   0  0  1  0  0  0  0  0  0  0  0  0
   20.9662   40.7920  -10.4068 C   0  0  2  0  0  0  0  0  0  0  0  0
   20.7267   39.3692  -10.9803 C   0  0  0  0  0  0  0  0  0  0  0  0
   19.5718   38.5337  -10.3711 C   0  0  1  0  0  0  0  0  0  0  0  0
   19.6331   38.4098   -8.8192 C   0  0  0  0  0  0  0  0  0  0  0  0
   18.4505   37.7024   -8.1105 C   0  0  0  0  0  0  0  0  0  0  0  0
   17.1611   38.5019   -8.1606 C   0  0  0  0  0  0  0  0  0  0  0  0
   16.0025   37.9548   -8.7533 C   0  0  0  0  0  0  0  0  0  0  0  0
   14.8724   38.7647   -8.9670 C   0  0  0  0  0  0  0  0  0  0  0  0
   14.9054   40.1190   -8.5928 C   0  0  0  0  0  0  0  0  0  0  0  0
   16.0341   40.6553   -7.9439 C   0  0  0  0  0  0  0  0  0  0  0  0
   17.1486   39.8332   -7.7005 C   0  0  0  0  0  0  0  0  0  0  0  0
   16.0361   42.1049   -7.5005 C   0  0  0  0  0  0  0  0  0  0  0  0
   17.3082   43.1280   -8.3561 S   0  0  0  0  0  0  0  0  0  0  0  0
   17.0304   44.5437   -8.0654 O   0  0  0  0  0  0  0  0  0  0  0  0
   18.6389   42.5807   -8.0584 O   0  0  0  0  0  0  0  0  0  0  0  0
   16.9459   42.8340  -10.1476 C   0  0  0  0  0  0  0  0  0  0  0  0
   18.0716   43.2840  -11.1150 C   0  0  2  0  0  0  0  0  0  0  0  0
   19.0820   42.1670  -11.4258 C   0  0  0  0  0  0  0  0  0  0  0  0
   19.1806   41.7506  -12.5807 O   0  0  0  0  0  0  0  0  0  0  0  0
   19.8157   41.7058  -10.3955 N   0  0  0  0  0  0  0  0  0  0  0  0
   18.7862   44.5975  -10.7482 C   0  0  0  0  0  0  0  0  0  0  0  0
   18.2278   39.0060  -10.9234 C   0  0  0  0  0  0  0  0  0  0  0  0
   22.0600   41.7506  -12.3189 O   0  0  0  0  0  0  0  0  0  0  0  0
   24.2034   41.7510   -9.0280 H   0  0  0  0  0  0  0  0  0  0  0  0
   23.0653   40.7398  -10.8969 H   0  0  0  0  0  0  0  0  0  0  0  0
   21.1590   40.6145   -9.3582 H   0  0  0  0  0  0  0  0  0  0  0  0
   19.6871   37.5252  -10.7661 H   0  0  0  0  0  0  0  0  0  0  0  0
   17.5730   43.4737  -12.0666 H   0  0  0  0  0  0  0  0  0  0  0  0
   21.4038   43.1917   -2.5259 H   0  0  0  0  0  0  0  0  0  0  0  0
   22.8604   42.2057   -2.5143 H   0  0  0  0  0  0  0  0  0  0  0  0
   21.2891   41.4572   -2.2420 H   0  0  0  0  0  0  0  0  0  0  0  0
   20.6103   42.1012   -4.5909 H   0  0  0  0  0  0  0  0  0  0  0  0
   22.2006   42.7818   -4.8523 H   0  0  0  0  0  0  0  0  0  0  0  0
   23.2419   40.5225   -4.5941 H   0  0  0  0  0  0  0  0  0  0  0  0
   21.6955   39.8559   -4.1402 H   0  0  0  0  0  0  0  0  0  0  0  0
   21.9472   39.2029   -6.3891 H   0  0  0  0  0  0  0  0  0  0  0  0
   20.7898   40.5026   -6.4550 H   0  0  0  0  0  0  0  0  0  0  0  0
   23.5022   40.3933   -7.5351 H   0  0  0  0  0  0  0  0  0  0  0  0
   24.7487   43.6786   -7.5274 H   0  0  0  0  0  0  0  0  0  0  0  0
   23.5781   44.6724   -8.3915 H   0  0  0  0  0  0  0  0  0  0  0  0
   25.0036   44.0601   -9.2229 H   0  0  0  0  0  0  0  0  0  0  0  0
   21.8872   43.4496  -10.1098 H   0  0  0  0  0  0  0  0  0  0  0  0
   23.4132   43.2677  -10.9042 H   0  0  0  0  0  0  0  0  0  0  0  0
   20.6059   39.4265  -12.0631 H   0  0  0  0  0  0  0  0  0  0  0  0
   21.6478   38.8051  -10.8328 H   0  0  0  0  0  0  0  0  0  0  0  0
   20.5506   37.8783   -8.5648 H   0  0  0  0  0  0  0  0  0  0  0  0
   19.7392   39.3928   -8.3686 H   0  0  0  0  0  0  0  0  0  0  0  0
   18.2946   36.7109   -8.5328 H   0  0  0  0  0  0  0  0  0  0  0  0
   18.6874   37.5624   -7.0560 H   0  0  0  0  0  0  0  0  0  0  0  0
   15.9961   36.9281   -9.0842 H   0  0  0  0  0  0  0  0  0  0  0  0
   13.9887   38.3588   -9.4372 H   0  0  0  0  0  0  0  0  0  0  0  0
   14.0582   40.7490   -8.7972 H   0  0  0  0  0  0  0  0  0  0  0  0
   18.0196   40.2433   -7.2109 H   0  0  0  0  0  0  0  0  0  0  0  0
   15.0577   42.5591   -7.6429 H   0  0  0  0  0  0  0  0  0  0  0  0
   16.2585   42.1497   -6.4399 H   0  0  0  0  0  0  0  0  0  0  0  0
   16.7273   41.7763  -10.2835 H   0  0  0  0  0  0  0  0  0  0  0  0
   16.0224   43.3663  -10.3687 H   0  0  0  0  0  0  0  0  0  0  0  0
   19.5800   42.0863   -9.4815 H   0  0  0  0  0  0  0  0  0  0  0  0
   19.4798   44.8952  -11.5348 H   0  0  0  0  0  0  0  0  0  0  0  0
   19.3636   44.5126   -9.8274 H   0  0  0  0  0  0  0  0  0  0  0  0
   18.0694   45.4089  -10.6210 H   0  0  0  0  0  0  0  0  0  0  0  0
   17.8512   39.8699  -10.3877 H   0  0  0  0  0  0  0  0  0  0  0  0
   17.4878   38.2161  -10.8400 H   0  0  0  0  0  0  0  0  0  0  0  0
   18.3039   39.2780  -11.9741 H   0  0  0  0  0  0  0  0  0  0  0  0
   22.7825   41.3510  -12.7999 H   0  0  0  0  0  0  0  0  0  0  0  0
  1  2  1  0  0  0  0
  1 40  1  0  0  0  0
  1 41  1  0  0  0  0
  1 42  1  0  0  0  0
  2  3  1  0  0  0  0
  2 43  1  0  0  0  0
  2 44  1  0  0  0  0
  3  4  1  0  0  0  0
  3 45  1  0  0  0  0
  3 46  1  0  0  0  0
  4  5  1  0  0  0  0
  4 47  1  0  0  0  0
  4 48  1  0  0  0  0
  5  6  1  0  0  0  0
  5 49  1  0  0  0  0
  6  7  2  0  0  0  0
  6  8  1  0  0  0  0
  8 35  1  6  0  0  0
  8  9  1  0  0  0  0
  8 10  1  0  0  0  0
  9 50  1  0  0  0  0
  9 51  1  0  0  0  0
  9 52  1  0  0  0  0
 10 11  1  0  0  0  0
 10 53  1  0  0  0  0
 10 54  1  0  0  0  0
 11 36  1  1  0  0  0
 11 12  1  0  0  0  0
 11 34  1  0  0  0  0
 12 37  1  1  0  0  0
 12 31  1  0  0  0  0
 12 13  1  0  0  0  0
 13 14  1  0  0  0  0
 13 55  1  0  0  0  0
 13 56  1  0  0  0  0
 14 38  1  6  0  0  0
 14 15  1  0  0  0  0
 14 33  1  0  0  0  0
 15 16  1  0  0  0  0
 15 57  1  0  0  0  0
 15 58  1  0  0  0  0
 16 17  1  0  0  0  0
 16 59  1  0  0  0  0
 16 60  1  0  0  0  0
 17 22  1  0  0  0  0
 17 18  2  0  0  0  0
 18 19  1  0  0  0  0
 18 61  1  0  0  0  0
 19 20  2  0  0  0  0
 19 62  1  0  0  0  0
 20 21  1  0  0  0  0
 20 63  1  0  0  0  0
 21 22  2  0  0  0  0
 21 23  1  0  0  0  0
 22 64  1  0  0  0  0
 23 24  1  0  0  0  0
 23 65  1  0  0  0  0
 23 66  1  0  0  0  0
 24 25  2  0  0  0  0
 24 26  2  0  0  0  0
 24 27  1  0  0  0  0
 27 28  1  0  0  0  0
 27 67  1  0  0  0  0
 27 68  1  0  0  0  0
 28 39  1  6  0  0  0
 28 29  1  0  0  0  0
 28 32  1  0  0  0  0
 29 30  2  0  0  0  0
 29 31  1  0  0  0  0
 31 69  1  0  0  0  0
 32 70  1  0  0  0  0
 32 71  1  0  0  0  0
 32 72  1  0  0  0  0
 33 73  1  0  0  0  0
 33 74  1  0  0  0  0
 33 75  1  0  0  0  0
 34 76  1  0  0  0  0
M  END
