REMARK energy -3.00553
 OpenBabel09281823033D
Structure written by MMmdl.
 76 79  0  0  1  0  0  0  0  0999 V2000
   22.7244   43.3827   -3.2826 C   0  0  0  0  0  0  0  0  0  0  0  0
   21.6480   42.6117   -2.7760 O   0  0  0  0  0  0  0  0  0  0  0  0
   21.5604   41.3082   -3.3324 C   0  0  0  0  0  0  0  0  0  0  0  0
   21.1907   41.2656   -4.8083 C   0  0  0  0  0  0  0  0  0  0  0  0
   20.4608   42.3116   -5.4149 C   0  0  0  0  0  0  0  0  0  0  0  0
   20.0602   42.2201   -6.7666 C   0  0  0  0  0  0  0  0  0  0  0  0
   20.4142   41.0720   -7.5131 C   0  0  0  0  0  0  0  0  0  0  0  0
   21.1431   40.0140   -6.9137 C   0  0  0  0  0  0  0  0  0  0  0  0
   21.5314   40.1285   -5.5652 C   0  0  0  0  0  0  0  0  0  0  0  0
   21.4956   38.8394   -7.5999 N   0  0  0  0  0  0  0  0  0  0  0  0
   20.7247   38.4365   -8.7665 C   0  0  0  0  0  0  0  0  0  0  0  0
   21.3029   39.0029  -10.0682 C   0  0  0  0  0  0  0  0  0  0  0  0
   20.2155   39.1946  -11.1355 C   0  0  0  0  0  0  0  0  0  0  0  0
   20.7351   39.8321  -12.4364 C   0  0  0  0  0  0  0  0  0  0  0  0
   21.6470   40.9009  -12.2049 O   0  0  0  0  0  0  0  0  0  0  0  0
   21.2186   42.0810  -11.6387 C   0  0  0  0  0  0  0  0  0  0  0  0
   22.2230   42.9865  -11.2441 C   0  0  0  0  0  0  0  0  0  0  0  0
   21.8910   44.2211  -10.6587 C   0  0  0  0  0  0  0  0  0  0  0  0
   20.5421   44.5609  -10.4583 C   0  0  0  0  0  0  0  0  0  0  0  0
   19.5250   43.6640  -10.8397 C   0  0  0  0  0  0  0  0  0  0  0  0
   19.8614   42.4321  -11.4392 C   0  0  0  0  0  0  0  0  0  0  0  0
   18.0680   44.0248  -10.5986 C   0  0  0  0  0  0  0  0  0  0  0  0
   17.5912   43.9744   -9.1188 C   0  0  2  0  0  0  0  0  0  0  0  0
   18.3825   43.0305   -8.3161 N   0  0  0  0  0  0  0  0  0  0  0  0
   19.3096   43.3595   -7.3987 C   0  0  0  0  0  0  0  0  0  0  0  0
   19.5309   44.5200   -7.0471 O   0  0  0  0  0  0  0  0  0  0  0  0
   16.0524   43.7334   -9.0248 C   0  0  1  0  0  0  0  0  0  0  0  0
   15.4655   42.2949   -8.9249 C   0  0  1  0  0  0  0  0  0  0  0  0
   15.7348   41.4762  -10.2017 C   0  0  0  0  0  0  0  0  0  0  0  0
   15.0875   40.2135  -10.1137 O   0  0  0  0  0  0  0  0  0  0  0  0
   15.5452   39.4286   -9.0103 C   0  0  2  0  0  0  0  0  0  0  0  0
   15.3764   40.1970   -7.6801 C   0  0  0  0  0  0  0  0  0  0  0  0
   15.9381   41.5521   -7.7488 N   0  0  0  0  0  0  0  0  0  0  0  0
   16.9802   38.9104   -9.2678 C   0  0  0  0  0  0  0  0  0  0  0  0
   17.3457   37.7954   -8.4669 O   0  0  0  0  0  0  0  0  0  0  0  0
   16.7393   36.5686   -8.8443 C   0  0  0  0  0  0  0  0  0  0  0  0
   15.4793   44.5628   -8.0399 O   0  0  0  0  0  0  0  0  0  0  0  0
   17.7857   44.9769   -8.7338 H   0  0  0  0  0  0  0  0  0  0  0  0
   15.6282   44.1580   -9.9345 H   0  0  0  0  0  0  0  0  0  0  0  0
   14.3824   42.3969   -8.8478 H   0  0  0  0  0  0  0  0  0  0  0  0
   14.8641   38.5805   -8.9846 H   0  0  0  0  0  0  0  0  0  0  0  0
   22.8600   44.2700   -2.6670 H   0  0  0  0  0  0  0  0  0  0  0  0
   22.5555   43.7100   -4.3080 H   0  0  0  0  0  0  0  0  0  0  0  0
   23.6601   42.8353   -3.2539 H   0  0  0  0  0  0  0  0  0  0  0  0
   20.7931   40.7614   -2.7869 H   0  0  0  0  0  0  0  0  0  0  0  0
   22.4975   40.7750   -3.1595 H   0  0  0  0  0  0  0  0  0  0  0  0
   20.1828   43.1757   -4.8279 H   0  0  0  0  0  0  0  0  0  0  0  0
   20.1260   41.0125   -8.5502 H   0  0  0  0  0  0  0  0  0  0  0  0
   22.0788   39.3234   -5.0947 H   0  0  0  0  0  0  0  0  0  0  0  0
   21.9077   38.0951   -7.0545 H   0  0  0  0  0  0  0  0  0  0  0  0
   19.6932   38.7517   -8.6253 H   0  0  0  0  0  0  0  0  0  0  0  0
   20.6902   37.3501   -8.8385 H   0  0  0  0  0  0  0  0  0  0  0  0
   22.1020   38.3601  -10.4340 H   0  0  0  0  0  0  0  0  0  0  0  0
   21.7711   39.9646   -9.8613 H   0  0  0  0  0  0  0  0  0  0  0  0
   19.4300   39.8201  -10.7152 H   0  0  0  0  0  0  0  0  0  0  0  0
   19.7372   38.2401  -11.3602 H   0  0  0  0  0  0  0  0  0  0  0  0
   19.9149   40.1528  -13.0794 H   0  0  0  0  0  0  0  0  0  0  0  0
   21.2783   39.0755  -13.0031 H   0  0  0  0  0  0  0  0  0  0  0  0
   23.2610   42.7238  -11.3975 H   0  0  0  0  0  0  0  0  0  0  0  0
   22.6717   44.9029  -10.3568 H   0  0  0  0  0  0  0  0  0  0  0  0
   20.2894   45.5041   -9.9965 H   0  0  0  0  0  0  0  0  0  0  0  0
   19.0685   41.7663  -11.7389 H   0  0  0  0  0  0  0  0  0  0  0  0
   17.4628   43.3684  -11.2171 H   0  0  0  0  0  0  0  0  0  0  0  0
   17.8918   45.0223  -10.9987 H   0  0  0  0  0  0  0  0  0  0  0  0
   18.1714   42.0487   -8.4266 H   0  0  0  0  0  0  0  0  0  0  0  0
   16.8014   41.3415  -10.3702 H   0  0  0  0  0  0  0  0  0  0  0  0
   15.3410   41.9985  -11.0738 H   0  0  0  0  0  0  0  0  0  0  0  0
   15.8310   39.6359   -6.8602 H   0  0  0  0  0  0  0  0  0  0  0  0
   14.3135   40.2587   -7.4442 H   0  0  0  0  0  0  0  0  0  0  0  0
   15.6770   42.0401   -6.8923 H   0  0  0  0  0  0  0  0  0  0  0  0
   17.1083   38.6534  -10.3189 H   0  0  0  0  0  0  0  0  0  0  0  0
   17.6928   39.7088   -9.0598 H   0  0  0  0  0  0  0  0  0  0  0  0
   17.1875   35.7543   -8.2723 H   0  0  0  0  0  0  0  0  0  0  0  0
   16.8896   36.3612   -9.9060 H   0  0  0  0  0  0  0  0  0  0  0  0
   15.6666   36.5666   -8.6389 H   0  0  0  0  0  0  0  0  0  0  0  0
   15.6589   44.1802   -7.1845 H   0  0  0  0  0  0  0  0  0  0  0  0
  1  2  1  0  0  0  0
  1 42  1  0  0  0  0
  1 43  1  0  0  0  0
  1 44  1  0  0  0  0
  2  3  1  0  0  0  0
  3  4  1  0  0  0  0
  3 45  1  0  0  0  0
  3 46  1  0  0  0  0
  4  9  1  0  0  0  0
  4  5  2  0  0  0  0
  5  6  1  0  0  0  0
  5 47  1  0  0  0  0
  6 25  1  0  0  0  0
  6  7  2  0  0  0  0
  7  8  1  0  0  0  0
  7 48  1  0  0  0  0
  8  9  2  0  0  0  0
  8 10  1  0  0  0  0
  9 49  1  0  0  0  0
 10 11  1  0  0  0  0
 10 50  1  0  0  0  0
 11 12  1  0  0  0  0
 11 51  1  0  0  0  0
 11 52  1  0  0  0  0
 12 13  1  0  0  0  0
 12 53  1  0  0  0  0
 12 54  1  0  0  0  0
 13 14  1  0  0  0  0
 13 55  1  0  0  0  0
 13 56  1  0  0  0  0
 14 15  1  0  0  0  0
 14 57  1  0  0  0  0
 14 58  1  0  0  0  0
 15 16  1  0  0  0  0
 16 21  1  0  0  0  0
 16 17  2  0  0  0  0
 17 18  1  0  0  0  0
 17 59  1  0  0  0  0
 18 19  2  0  0  0  0
 18 60  1  0  0  0  0
 19 20  1  0  0  0  0
 19 61  1  0  0  0  0
 20 21  2  0  0  0  0
 20 22  1  0  0  0  0
 21 62  1  0  0  0  0
 22 23  1  0  0  0  0
 22 63  1  0  0  0  0
 22 64  1  0  0  0  0
 23 38  1  1  0  0  0
 23 24  1  0  0  0  0
 23 27  1  0  0  0  0
 24 25  1  0  0  0  0
 24 65  1  0  0  0  0
 25 26  2  0  0  0  0
 27 39  1  6  0  0  0
 27 28  1  0  0  0  0
 27 37  1  0  0  0  0
 28 40  1  1  0  0  0
 28 33  1  0  0  0  0
 28 29  1  0  0  0  0
 29 30  1  0  0  0  0
 29 66  1  0  0  0  0
 29 67  1  0  0  0  0
 30 31  1  0  0  0  0
 31 41  1  1  0  0  0
 31 32  1  0  0  0  0
 31 34  1  0  0  0  0
 32 33  1  0  0  0  0
 32 68  1  0  0  0  0
 32 69  1  0  0  0  0
 33 70  1  0  0  0  0
 34 35  1  0  0  0  0
 34 71  1  0  0  0  0
 34 72  1  0  0  0  0
 35 36  1  0  0  0  0
 36 73  1  0  0  0  0
 36 74  1  0  0  0  0
 36 75  1  0  0  0  0
 37 76  1  0  0  0  0
M  END
