REMARK energy -2.51882
 OpenBabel09281823033D
Structure written by MMmdl.
 89 91  0  0  1  0  0  0  0  0999 V2000
   21.8015   44.5538   -4.8389 C   0  0  0  0  0  0  0  0  0  0  0  0
   22.8852   43.5563   -5.2683 C   0  0  2  0  0  0  0  0  0  0  0  0
   23.6200   43.8694   -6.6062 C   0  0  0  0  0  0  0  0  0  0  0  0
   23.5257   45.3001   -7.1730 C   0  0  0  0  0  0  0  0  0  0  0  0
   24.2436   46.3980   -6.3666 C   0  0  0  0  0  0  0  0  0  0  0  0
   24.1103   47.8093   -6.9816 C   0  0  0  0  0  0  0  0  0  0  0  0
   22.6739   48.2745   -7.3033 C   0  0  0  0  0  0  0  0  0  0  0  0
   21.7013   48.2547   -6.1100 C   0  0  0  0  0  0  0  0  0  0  0  0
   20.4183   48.8001   -6.4162 O   0  0  0  0  0  0  0  0  0  0  0  0
   19.6057   48.0894   -7.3536 C   0  0  0  0  0  0  0  0  0  0  0  0
   19.1840   46.6959   -6.8270 C   0  0  0  0  0  0  0  0  0  0  0  0
   18.8585   46.6158   -5.6405 O   0  0  0  0  0  0  0  0  0  0  0  0
   19.1995   45.6142   -7.6556 N   0  0  0  0  0  0  0  0  0  0  0  0
   18.9076   44.2451   -7.1472 C   0  0  2  0  0  0  0  0  0  0  0  0
   20.0136   43.2056   -7.4126 C   0  0  0  0  0  0  0  0  0  0  0  0
   20.6304   43.1666   -8.4758 O   0  0  0  0  0  0  0  0  0  0  0  0
   20.2721   42.3723   -6.3987 N   0  0  0  0  0  0  0  0  0  0  0  0
   21.4475   41.5175   -6.2629 C   0  0  1  0  0  0  0  0  0  0  0  0
   22.3781   42.0937   -5.1512 C   0  0  0  0  0  0  0  0  0  0  0  0
   20.9870   40.0667   -5.9687 C   0  0  1  0  0  0  0  0  0  0  0  0
   20.5645   39.2732   -7.2170 C   0  0  0  0  0  0  0  0  0  0  0  0
   19.2661   39.7152   -7.7075 N   0  0  0  0  0  0  0  0  0  0  0  0
   18.7570   39.1288   -8.9504 C   0  0  0  0  0  0  0  0  0  0  0  0
   19.3208   37.8277   -9.4930 C   0  0  0  0  0  0  0  0  0  0  0  0
   19.6159   39.1320  -10.1974 C   0  0  0  0  0  0  0  0  0  0  0  0
   17.2934   39.4026   -9.0584 C   0  0  0  0  0  0  0  0  0  0  0  0
   16.3689   38.5368   -8.4429 C   0  0  0  0  0  0  0  0  0  0  0  0
   14.9929   38.8043   -8.5159 C   0  0  0  0  0  0  0  0  0  0  0  0
   14.5350   39.9378   -9.2092 C   0  0  0  0  0  0  0  0  0  0  0  0
   15.4429   40.8414   -9.8134 C   0  0  0  0  0  0  0  0  0  0  0  0
   16.8269   40.5561   -9.7206 C   0  0  0  0  0  0  0  0  0  0  0  0
   14.9167   42.0965  -10.5331 C   0  0  0  0  0  0  0  0  0  0  0  0
   14.4191   43.1149   -9.4928 C   0  0  0  0  0  0  0  0  0  0  0  0
   15.9942   42.7677  -11.4186 C   0  0  0  0  0  0  0  0  0  0  0  0
   13.7241   41.7149  -11.4284 C   0  0  0  0  0  0  0  0  0  0  0  0
   22.0598   39.3517   -5.4083 O   0  0  0  0  0  0  0  0  0  0  0  0
   17.5192   43.7712   -7.6012 C   0  0  0  0  0  0  0  0  0  0  0  0
   19.4552   45.7652   -9.0960 C   0  0  0  0  0  0  0  0  0  0  0  0
   23.6492   43.6426   -4.4918 H   0  0  0  0  0  0  0  0  0  0  0  0
   18.8351   44.2829   -6.0596 H   0  0  0  0  0  0  0  0  0  0  0  0
   22.0116   41.4839   -7.1962 H   0  0  0  0  0  0  0  0  0  0  0  0
   20.1846   40.0644   -5.2317 H   0  0  0  0  0  0  0  0  0  0  0  0
   22.2437   45.4599   -4.4409 H   0  0  0  0  0  0  0  0  0  0  0  0
   21.1651   44.1457   -4.0542 H   0  0  0  0  0  0  0  0  0  0  0  0
   21.1585   44.8529   -5.6529 H   0  0  0  0  0  0  0  0  0  0  0  0
   24.6684   43.5805   -6.5112 H   0  0  0  0  0  0  0  0  0  0  0  0
   23.2320   43.2263   -7.3935 H   0  0  0  0  0  0  0  0  0  0  0  0
   22.4781   45.5491   -7.3218 H   0  0  0  0  0  0  0  0  0  0  0  0
   23.9546   45.2868   -8.1756 H   0  0  0  0  0  0  0  0  0  0  0  0
   23.8910   46.4264   -5.3437 H   0  0  0  0  0  0  0  0  0  0  0  0
   25.2972   46.1440   -6.2887 H   0  0  0  0  0  0  0  0  0  0  0  0
   24.6914   47.8378   -7.9032 H   0  0  0  0  0  0  0  0  0  0  0  0
   24.5791   48.5293   -6.3101 H   0  0  0  0  0  0  0  0  0  0  0  0
   22.7146   49.2882   -7.7001 H   0  0  0  0  0  0  0  0  0  0  0  0
   22.2906   47.6615   -8.1153 H   0  0  0  0  0  0  0  0  0  0  0  0
   22.1146   48.8550   -5.3004 H   0  0  0  0  0  0  0  0  0  0  0  0
   21.5994   47.2517   -5.7031 H   0  0  0  0  0  0  0  0  0  0  0  0
   20.1103   48.0703   -8.3179 H   0  0  0  0  0  0  0  0  0  0  0  0
   18.6953   48.6654   -7.5027 H   0  0  0  0  0  0  0  0  0  0  0  0
   19.6399   42.3851   -5.6101 H   0  0  0  0  0  0  0  0  0  0  0  0
   21.8857   41.9651   -4.1861 H   0  0  0  0  0  0  0  0  0  0  0  0
   23.2601   41.4667   -5.0863 H   0  0  0  0  0  0  0  0  0  0  0  0
   20.4978   38.2120   -6.9674 H   0  0  0  0  0  0  0  0  0  0  0  0
   21.3276   39.3716   -7.9903 H   0  0  0  0  0  0  0  0  0  0  0  0
   19.2959   40.7240   -7.8119 H   0  0  0  0  0  0  0  0  0  0  0  0
   20.1678   37.3505   -9.0084 H   0  0  0  0  0  0  0  0  0  0  0  0
   18.6286   37.1478   -9.9890 H   0  0  0  0  0  0  0  0  0  0  0  0
   19.1267   39.2887  -11.1578 H   0  0  0  0  0  0  0  0  0  0  0  0
   20.6361   39.5027  -10.1371 H   0  0  0  0  0  0  0  0  0  0  0  0
   16.7143   37.6708   -7.8939 H   0  0  0  0  0  0  0  0  0  0  0  0
   14.2873   38.1472   -8.0292 H   0  0  0  0  0  0  0  0  0  0  0  0
   13.4738   40.1149   -9.2459 H   0  0  0  0  0  0  0  0  0  0  0  0
   17.5638   41.2207  -10.1433 H   0  0  0  0  0  0  0  0  0  0  0  0
   13.6322   42.6909   -8.8718 H   0  0  0  0  0  0  0  0  0  0  0  0
   14.0154   44.0110   -9.9666 H   0  0  0  0  0  0  0  0  0  0  0  0
   15.2166   43.4251   -8.8212 H   0  0  0  0  0  0  0  0  0  0  0  0
   16.4607   42.0416  -12.0852 H   0  0  0  0  0  0  0  0  0  0  0  0
   16.7881   43.2126  -10.8198 H   0  0  0  0  0  0  0  0  0  0  0  0
   15.5786   43.5701  -12.0309 H   0  0  0  0  0  0  0  0  0  0  0  0
   13.9720   40.8499  -12.0391 H   0  0  0  0  0  0  0  0  0  0  0  0
   13.4042   42.5354  -12.0687 H   0  0  0  0  0  0  0  0  0  0  0  0
   12.8608   41.4352  -10.8278 H   0  0  0  0  0  0  0  0  0  0  0  0
   21.7730   38.4665   -5.2540 H   0  0  0  0  0  0  0  0  0  0  0  0
   17.2483   42.8204   -7.1384 H   0  0  0  0  0  0  0  0  0  0  0  0
   17.4940   43.6328   -8.6808 H   0  0  0  0  0  0  0  0  0  0  0  0
   16.7510   44.4972   -7.3312 H   0  0  0  0  0  0  0  0  0  0  0  0
   19.1812   44.8759   -9.6652 H   0  0  0  0  0  0  0  0  0  0  0  0
   20.5154   45.9601   -9.2693 H   0  0  0  0  0  0  0  0  0  0  0  0
   18.8666   46.5790   -9.5222 H   0  0  0  0  0  0  0  0  0  0  0  0
  1  2  1  0  0  0  0
  1 43  1  0  0  0  0
  1 44  1  0  0  0  0
  1 45  1  0  0  0  0
  2 39  1  1  0  0  0
  2 19  1  0  0  0  0
  2  3  1  0  0  0  0
  3  4  1  0  0  0  0
  3 46  1  0  0  0  0
  3 47  1  0  0  0  0
  4  5  1  0  0  0  0
  4 48  1  0  0  0  0
  4 49  1  0  0  0  0
  5  6  1  0  0  0  0
  5 50  1  0  0  0  0
  5 51  1  0  0  0  0
  6  7  1  0  0  0  0
  6 52  1  0  0  0  0
  6 53  1  0  0  0  0
  7  8  1  0  0  0  0
  7 54  1  0  0  0  0
  7 55  1  0  0  0  0
  8  9  1  0  0  0  0
  8 56  1  0  0  0  0
  8 57  1  0  0  0  0
  9 10  1  0  0  0  0
 10 11  1  0  0  0  0
 10 58  1  0  0  0  0
 10 59  1  0  0  0  0
 11 12  2  0  0  0  0
 11 13  1  0  0  0  0
 13 14  1  0  0  0  0
 13 38  1  0  0  0  0
 14 40  1  1  0  0  0
 14 15  1  0  0  0  0
 14 37  1  0  0  0  0
 15 16  2  0  0  0  0
 15 17  1  0  0  0  0
 17 18  1  0  0  0  0
 17 60  1  0  0  0  0
 18 41  1  6  0  0  0
 18 19  1  0  0  0  0
 18 20  1  0  0  0  0
 19 61  1  0  0  0  0
 19 62  1  0  0  0  0
 20 42  1  1  0  0  0
 20 21  1  0  0  0  0
 20 36  1  0  0  0  0
 21 22  1  0  0  0  0
 21 63  1  0  0  0  0
 21 64  1  0  0  0  0
 22 23  1  0  0  0  0
 22 65  1  0  0  0  0
 23 25  1  0  0  0  0
 23 24  1  0  0  0  0
 23 26  1  0  0  0  0
 24 25  1  0  0  0  0
 24 66  1  0  0  0  0
 24 67  1  0  0  0  0
 25 68  1  0  0  0  0
 25 69  1  0  0  0  0
 26 31  1  0  0  0  0
 26 27  2  0  0  0  0
 27 28  1  0  0  0  0
 27 70  1  0  0  0  0
 28 29  2  0  0  0  0
 28 71  1  0  0  0  0
 29 30  1  0  0  0  0
 29 72  1  0  0  0  0
 30 31  2  0  0  0  0
 30 32  1  0  0  0  0
 31 73  1  0  0  0  0
 32 33  1  0  0  0  0
 32 34  1  0  0  0  0
 32 35  1  0  0  0  0
 33 74  1  0  0  0  0
 33 75  1  0  0  0  0
 33 76  1  0  0  0  0
 34 77  1  0  0  0  0
 34 78  1  0  0  0  0
 34 79  1  0  0  0  0
 35 80  1  0  0  0  0
 35 81  1  0  0  0  0
 35 82  1  0  0  0  0
 36 83  1  0  0  0  0
 37 84  1  0  0  0  0
 37 85  1  0  0  0  0
 37 86  1  0  0  0  0
 38 87  1  0  0  0  0
 38 88  1  0  0  0  0
 38 89  1  0  0  0  0
M  END
