REMARK energy -5.13053
 OpenBabel09281823033D
Structure written by MMmdl.
 78 79  0  0  1  0  0  0  0  0999 V2000
   22.5408   47.4852  -15.9147 C   0  0  0  0  0  0  0  0  0  0  0  0
   23.0673   47.2389  -14.4955 C   0  0  0  0  0  0  0  0  0  0  0  0
   24.3097   46.3348  -14.4674 C   0  0  0  0  0  0  0  0  0  0  0  0
   24.8451   46.1111  -13.0455 C   0  0  0  0  0  0  0  0  0  0  0  0
   26.0357   45.2708  -13.0502 N   0  0  0  0  0  0  0  0  0  0  0  0
   26.0958   44.0800  -12.3096 C   0  0  0  0  0  0  0  0  0  0  0  0
   24.9400   43.6575  -11.6207 C   0  0  0  0  0  0  0  0  0  0  0  0
   24.9809   42.4572  -10.8768 C   0  0  0  0  0  0  0  0  0  0  0  0
   26.1984   41.7367  -10.8396 C   0  0  0  0  0  0  0  0  0  0  0  0
   27.3135   42.2353  -11.5618 C   0  0  0  0  0  0  0  0  0  0  0  0
   27.2539   43.3791  -12.2789 N   0  0  0  0  0  0  0  0  0  0  0  0
   28.5533   41.6330  -11.6135 O   0  0  0  0  0  0  0  0  0  0  0  0
   29.5400   42.1808  -12.4769 C   0  0  0  0  0  0  0  0  0  0  0  0
   23.7689   41.9952  -10.1140 C   0  0  0  0  0  0  0  0  0  0  0  0
   22.6728   42.5269  -10.2976 O   0  0  0  0  0  0  0  0  0  0  0  0
   23.9675   40.9522   -9.2852 N   0  0  0  0  0  0  0  0  0  0  0  0
   23.2415   40.6630   -8.0438 C   0  0  1  0  0  0  0  0  0  0  0  0
   23.0191   42.0025   -7.2877 C   0  0  0  0  0  0  0  0  0  0  0  0
   22.4419   41.8779   -5.8822 C   0  0  0  0  0  0  0  0  0  0  0  0
   21.3825   40.9791   -5.6257 C   0  0  0  0  0  0  0  0  0  0  0  0
   20.8602   40.8475   -4.3238 C   0  0  0  0  0  0  0  0  0  0  0  0
   21.3975   41.6089   -3.2682 C   0  0  0  0  0  0  0  0  0  0  0  0
   22.4600   42.4994   -3.5148 C   0  0  0  0  0  0  0  0  0  0  0  0
   22.9828   42.6315   -4.8166 C   0  0  0  0  0  0  0  0  0  0  0  0
   21.9692   39.8171   -8.3606 C   0  0  2  0  0  0  0  0  0  0  0  0
   21.5499   38.7980   -7.2666 C   0  0  0  0  0  0  0  0  0  0  0  0
   20.0185   38.5851   -7.0997 C   0  0  1  0  0  0  0  0  0  0  0  0
   19.2721   39.7661   -6.4434 C   0  0  0  0  0  0  0  0  0  0  0  0
   19.3494   38.1901   -8.4290 C   0  0  0  0  0  0  0  0  0  0  0  0
   19.9214   38.4272   -9.4941 O   0  0  0  0  0  0  0  0  0  0  0  0
   18.1468   37.5914   -8.3543 N   0  0  0  0  0  0  0  0  0  0  0  0
   17.3072   37.2073   -9.4860 C   0  0  0  0  0  0  0  0  0  0  0  0
   15.8594   37.7013   -9.3143 C   0  0  0  0  0  0  0  0  0  0  0  0
   15.7418   39.2327   -9.3820 C   0  0  0  0  0  0  0  0  0  0  0  0
   14.2965   39.7265   -9.2425 C   0  0  0  0  0  0  0  0  0  0  0  0
   22.1247   39.1821   -9.6143 O   0  0  0  0  0  0  0  0  0  0  0  0
   23.8981   40.0526   -7.4213 H   0  0  0  0  0  0  0  0  0  0  0  0
   21.1452   40.5177   -8.5016 H   0  0  0  0  0  0  0  0  0  0  0  0
   19.8754   37.7221   -6.4474 H   0  0  0  0  0  0  0  0  0  0  0  0
   21.6613   48.1291  -15.8946 H   0  0  0  0  0  0  0  0  0  0  0  0
   22.2556   46.5509  -16.3992 H   0  0  0  0  0  0  0  0  0  0  0  0
   23.2924   47.9714  -16.5374 H   0  0  0  0  0  0  0  0  0  0  0  0
   22.2748   46.7913  -13.8947 H   0  0  0  0  0  0  0  0  0  0  0  0
   23.3013   48.1977  -14.0315 H   0  0  0  0  0  0  0  0  0  0  0  0
   25.0938   46.7768  -15.0838 H   0  0  0  0  0  0  0  0  0  0  0  0
   24.0674   45.3715  -14.9184 H   0  0  0  0  0  0  0  0  0  0  0  0
   24.0753   45.6402  -12.4327 H   0  0  0  0  0  0  0  0  0  0  0  0
   25.0851   47.0718  -12.5878 H   0  0  0  0  0  0  0  0  0  0  0  0
   26.8317   45.5592  -13.6009 H   0  0  0  0  0  0  0  0  0  0  0  0
   24.0362   44.2485  -11.6728 H   0  0  0  0  0  0  0  0  0  0  0  0
   26.2659   40.8273  -10.2615 H   0  0  0  0  0  0  0  0  0  0  0  0
   30.4532   41.5917  -12.3923 H   0  0  0  0  0  0  0  0  0  0  0  0
   29.7893   43.2074  -12.2047 H   0  0  0  0  0  0  0  0  0  0  0  0
   29.2264   42.1455  -13.5212 H   0  0  0  0  0  0  0  0  0  0  0  0
   24.6826   40.2876   -9.5441 H   0  0  0  0  0  0  0  0  0  0  0  0
   23.9788   42.5108   -7.1798 H   0  0  0  0  0  0  0  0  0  0  0  0
   22.4072   42.6831   -7.8804 H   0  0  0  0  0  0  0  0  0  0  0  0
   20.9664   40.3844   -6.4258 H   0  0  0  0  0  0  0  0  0  0  0  0
   20.0485   40.1605   -4.1348 H   0  0  0  0  0  0  0  0  0  0  0  0
   20.9976   41.5074   -2.2700 H   0  0  0  0  0  0  0  0  0  0  0  0
   22.8760   43.0803   -2.7048 H   0  0  0  0  0  0  0  0  0  0  0  0
   23.8020   43.3140   -4.9893 H   0  0  0  0  0  0  0  0  0  0  0  0
   21.9471   39.1528   -6.3144 H   0  0  0  0  0  0  0  0  0  0  0  0
   22.0381   37.8392   -7.4442 H   0  0  0  0  0  0  0  0  0  0  0  0
   19.5213   39.8565   -5.3866 H   0  0  0  0  0  0  0  0  0  0  0  0
   18.1900   39.6365   -6.4949 H   0  0  0  0  0  0  0  0  0  0  0  0
   19.5133   40.7160   -6.9222 H   0  0  0  0  0  0  0  0  0  0  0  0
   17.7821   37.3867   -7.4350 H   0  0  0  0  0  0  0  0  0  0  0  0
   17.3318   36.1267   -9.6363 H   0  0  0  0  0  0  0  0  0  0  0  0
   17.7427   37.6492  -10.3828 H   0  0  0  0  0  0  0  0  0  0  0  0
   15.4701   37.3510   -8.3573 H   0  0  0  0  0  0  0  0  0  0  0  0
   15.2267   37.2587  -10.0847 H   0  0  0  0  0  0  0  0  0  0  0  0
   16.1497   39.5906  -10.3279 H   0  0  0  0  0  0  0  0  0  0  0  0
   16.3483   39.6826   -8.5951 H   0  0  0  0  0  0  0  0  0  0  0  0
   14.2529   40.8146   -9.2949 H   0  0  0  0  0  0  0  0  0  0  0  0
   13.8647   39.4240   -8.2880 H   0  0  0  0  0  0  0  0  0  0  0  0
   13.6642   39.3316  -10.0381 H   0  0  0  0  0  0  0  0  0  0  0  0
   22.9775   38.7760   -9.6409 H   0  0  0  0  0  0  0  0  0  0  0  0
  1  2  1  0  0  0  0
  1 40  1  0  0  0  0
  1 41  1  0  0  0  0
  1 42  1  0  0  0  0
  2  3  1  0  0  0  0
  2 43  1  0  0  0  0
  2 44  1  0  0  0  0
  3  4  1  0  0  0  0
  3 45  1  0  0  0  0
  3 46  1  0  0  0  0
  4  5  1  0  0  0  0
  4 47  1  0  0  0  0
  4 48  1  0  0  0  0
  5  6  1  0  0  0  0
  5 49  1  0  0  0  0
  6 11  1  0  0  0  0
  6  7  2  0  0  0  0
  7  8  1  0  0  0  0
  7 50  1  0  0  0  0
  8  9  2  0  0  0  0
  8 14  1  0  0  0  0
  9 10  1  0  0  0  0
  9 51  1  0  0  0  0
 10 11  2  0  0  0  0
 10 12  1  0  0  0  0
 12 13  1  0  0  0  0
 13 52  1  0  0  0  0
 13 53  1  0  0  0  0
 13 54  1  0  0  0  0
 14 15  2  0  0  0  0
 14 16  1  0  0  0  0
 16 17  1  0  0  0  0
 16 55  1  0  0  0  0
 17 37  1  1  0  0  0
 17 18  1  0  0  0  0
 17 25  1  0  0  0  0
 18 19  1  0  0  0  0
 18 56  1  0  0  0  0
 18 57  1  0  0  0  0
 19 24  1  0  0  0  0
 19 20  2  0  0  0  0
 20 21  1  0  0  0  0
 20 58  1  0  0  0  0
 21 22  2  0  0  0  0
 21 59  1  0  0  0  0
 22 23  1  0  0  0  0
 22 60  1  0  0  0  0
 23 24  2  0  0  0  0
 23 61  1  0  0  0  0
 24 62  1  0  0  0  0
 25 38  1  6  0  0  0
 25 26  1  0  0  0  0
 25 36  1  0  0  0  0
 26 27  1  0  0  0  0
 26 63  1  0  0  0  0
 26 64  1  0  0  0  0
 27 39  1  1  0  0  0
 27 28  1  0  0  0  0
 27 29  1  0  0  0  0
 28 65  1  0  0  0  0
 28 66  1  0  0  0  0
 28 67  1  0  0  0  0
 29 30  2  0  0  0  0
 29 31  1  0  0  0  0
 31 32  1  0  0  0  0
 31 68  1  0  0  0  0
 32 33  1  0  0  0  0
 32 69  1  0  0  0  0
 32 70  1  0  0  0  0
 33 34  1  0  0  0  0
 33 71  1  0  0  0  0
 33 72  1  0  0  0  0
 34 35  1  0  0  0  0
 34 73  1  0  0  0  0
 34 74  1  0  0  0  0
 35 75  1  0  0  0  0
 35 76  1  0  0  0  0
 35 77  1  0  0  0  0
 36 78  1  0  0  0  0
M  END
