REMARK energy -6.14676
 OpenBabel09281823033D
Structure written by MMmdl.
 81 83  0  0  1  0  0  0  0  0999 V2000
   21.2994   42.3886   -4.5207 C   0  0  0  0  0  0  0  0  0  0  0  0
   21.1769   42.0462   -6.0190 C   0  0  1  0  0  0  0  0  0  0  0  0
   20.4602   40.7123   -6.3197 C   0  0  0  0  0  0  0  0  0  0  0  0
   20.7440   39.7329   -5.6423 O   0  0  0  0  0  0  0  0  0  0  0  0
   19.5983   40.6496   -7.3513 N   0  0  0  0  0  0  0  0  0  0  0  0
   19.0184   39.4458   -7.9652 C   0  0  1  0  0  0  0  0  0  0  0  0
   20.1259   38.5856   -8.6371 C   0  0  0  0  0  0  0  0  0  0  0  0
   20.7632   39.3724   -9.7711 C   0  0  0  0  0  0  0  0  0  0  0  0
   20.2151   39.2945  -11.0658 C   0  0  0  0  0  0  0  0  0  0  0  0
   20.6737   40.1632  -12.0705 C   0  0  0  0  0  0  0  0  0  0  0  0
   21.6639   41.1222  -11.7806 C   0  0  0  0  0  0  0  0  0  0  0  0
   22.2493   41.1816  -10.4929 C   0  0  0  0  0  0  0  0  0  0  0  0
   21.8093   40.2797   -9.5077 C   0  0  0  0  0  0  0  0  0  0  0  0
   23.2203   42.0792  -10.1115 O   0  0  0  0  0  0  0  0  0  0  0  0
   23.6586   43.0524  -11.0457 C   0  0  0  0  0  0  0  0  0  0  0  0
   24.6237   44.0327  -10.3600 C   0  0  0  0  0  0  0  0  0  0  0  0
   23.9335   45.1259   -9.5147 C   0  0  0  0  0  0  0  0  0  0  0  0
   24.0191   44.9504   -7.9805 C   0  0  0  0  0  0  0  0  0  0  0  0
   23.1377   43.8461   -7.3529 C   0  0  0  0  0  0  0  0  0  0  0  0
   21.6150   44.1091   -7.3976 C   0  0  0  0  0  0  0  0  0  0  0  0
   21.2034   45.1212   -7.9672 O   0  0  0  0  0  0  0  0  0  0  0  0
   20.7601   43.2415   -6.7910 N   0  0  0  0  0  0  0  0  0  0  0  0
   19.3349   43.5901   -6.7435 C   0  0  0  0  0  0  0  0  0  0  0  0
   17.9795   38.7053   -7.0709 C   0  0  1  0  0  0  0  0  0  0  0  0
   16.6966   39.5654   -6.8262 C   0  0  0  0  0  0  0  0  0  0  0  0
   15.3808   38.9502   -7.1336 N   0  3  0  0  0  0  0  0  0  0  0  0
   14.9854   38.8113   -8.5597 C   0  0  0  0  0  0  0  0  0  0  0  0
   15.4438   39.9443   -9.4741 C   0  0  0  0  0  0  0  0  0  0  0  0
   16.4662   39.7154  -10.4150 C   0  0  0  0  0  0  0  0  0  0  0  0
   16.9183   40.7565  -11.2438 C   0  0  0  0  0  0  0  0  0  0  0  0
   16.3321   42.0306  -11.1752 C   0  0  0  0  0  0  0  0  0  0  0  0
   15.3024   42.2768  -10.2387 C   0  0  0  0  0  0  0  0  0  0  0  0
   14.8599   41.2287   -9.3965 C   0  0  0  0  0  0  0  0  0  0  0  0
   14.6644   43.6547  -10.1248 C   0  0  0  0  0  0  0  0  0  0  0  0
   13.6215   43.8691  -11.2353 C   0  0  0  0  0  0  0  0  0  0  0  0
   15.7074   44.7861  -10.0985 C   0  0  0  0  0  0  0  0  0  0  0  0
   17.6603   37.4465   -7.6407 O   0  0  0  0  0  0  0  0  0  0  0  0
   22.1870   41.7757   -6.3206 H   0  0  0  0  0  0  0  0  0  0  0  0
   18.4399   39.8440   -8.7926 H   0  0  0  0  0  0  0  0  0  0  0  0
   18.4400   38.4813   -6.1070 H   0  0  0  0  0  0  0  0  0  0  0  0
   21.6677   41.5413   -3.9415 H   0  0  0  0  0  0  0  0  0  0  0  0
   20.3311   42.6713   -4.1017 H   0  0  0  0  0  0  0  0  0  0  0  0
   21.9895   43.2156   -4.3549 H   0  0  0  0  0  0  0  0  0  0  0  0
   19.4177   41.5177   -7.8323 H   0  0  0  0  0  0  0  0  0  0  0  0
   20.8790   38.2727   -7.9142 H   0  0  0  0  0  0  0  0  0  0  0  0
   19.7161   37.6699   -9.0627 H   0  0  0  0  0  0  0  0  0  0  0  0
   19.4234   38.5923  -11.2840 H   0  0  0  0  0  0  0  0  0  0  0  0
   20.2474   40.1091  -13.0610 H   0  0  0  0  0  0  0  0  0  0  0  0
   21.9873   41.7830  -12.5719 H   0  0  0  0  0  0  0  0  0  0  0  0
   22.2428   40.3335   -8.5210 H   0  0  0  0  0  0  0  0  0  0  0  0
   24.1834   42.5512  -11.8598 H   0  0  0  0  0  0  0  0  0  0  0  0
   22.8209   43.5994  -11.4789 H   0  0  0  0  0  0  0  0  0  0  0  0
   25.3720   43.4885   -9.7787 H   0  0  0  0  0  0  0  0  0  0  0  0
   25.1789   44.5321  -11.1557 H   0  0  0  0  0  0  0  0  0  0  0  0
   24.4340   46.0701   -9.7369 H   0  0  0  0  0  0  0  0  0  0  0  0
   22.9029   45.2760   -9.8437 H   0  0  0  0  0  0  0  0  0  0  0  0
   25.0571   44.7678   -7.7021 H   0  0  0  0  0  0  0  0  0  0  0  0
   23.7620   45.9027   -7.5145 H   0  0  0  0  0  0  0  0  0  0  0  0
   23.3653   42.8895   -7.8178 H   0  0  0  0  0  0  0  0  0  0  0  0
   23.4264   43.7606   -6.3038 H   0  0  0  0  0  0  0  0  0  0  0  0
   18.8723   43.4762   -7.7237 H   0  0  0  0  0  0  0  0  0  0  0  0
   19.1833   44.6183   -6.4091 H   0  0  0  0  0  0  0  0  0  0  0  0
   18.8021   42.9499   -6.0413 H   0  0  0  0  0  0  0  0  0  0  0  0
   16.6187   39.7497   -5.7620 H   0  0  0  0  0  0  0  0  0  0  0  0
   16.7768   40.5578   -7.2723 H   0  0  0  0  0  0  0  0  0  0  0  0
   15.3367   38.0428   -6.6691 H   0  0  0  0  0  0  0  0  0  0  0  0
   15.3690   37.8648   -8.9433 H   0  0  0  0  0  0  0  0  0  0  0  0
   13.8967   38.7299   -8.6047 H   0  0  0  0  0  0  0  0  0  0  0  0
   16.9221   38.7394  -10.4868 H   0  0  0  0  0  0  0  0  0  0  0  0
   17.7067   40.5701  -11.9550 H   0  0  0  0  0  0  0  0  0  0  0  0
   16.6948   42.8130  -11.8243 H   0  0  0  0  0  0  0  0  0  0  0  0
   14.0626   41.4041   -8.6913 H   0  0  0  0  0  0  0  0  0  0  0  0
   14.1376   43.6900   -9.1667 H   0  0  0  0  0  0  0  0  0  0  0  0
   12.8417   43.1074  -11.1854 H   0  0  0  0  0  0  0  0  0  0  0  0
   14.0784   43.8239  -12.2246 H   0  0  0  0  0  0  0  0  0  0  0  0
   13.1332   44.8392  -11.1408 H   0  0  0  0  0  0  0  0  0  0  0  0
   16.4481   44.6123   -9.3173 H   0  0  0  0  0  0  0  0  0  0  0  0
   15.2424   45.7523   -9.9017 H   0  0  0  0  0  0  0  0  0  0  0  0
   16.2372   44.8786  -11.0476 H   0  0  0  0  0  0  0  0  0  0  0  0
   17.1115   36.9557   -7.0207 H   0  0  0  0  0  0  0  0  0  0  0  0
   14.6908   39.5373   -6.6798 H   0  0  0  0  0  0  0  0  0  0  0  0
  1  2  1  0  0  0  0
  1 41  1  0  0  0  0
  1 42  1  0  0  0  0
  1 43  1  0  0  0  0
  2 38  1  6  0  0  0
  2 22  1  0  0  0  0
  2  3  1  0  0  0  0
  3  4  2  0  0  0  0
  3  5  1  0  0  0  0
  5  6  1  0  0  0  0
  5 44  1  0  0  0  0
  6 39  1  6  0  0  0
  6  7  1  0  0  0  0
  6 24  1  0  0  0  0
  7  8  1  0  0  0  0
  7 45  1  0  0  0  0
  7 46  1  0  0  0  0
  8 13  1  0  0  0  0
  8  9  2  0  0  0  0
  9 10  1  0  0  0  0
  9 47  1  0  0  0  0
 10 11  2  0  0  0  0
 10 48  1  0  0  0  0
 11 12  1  0  0  0  0
 11 49  1  0  0  0  0
 12 13  2  0  0  0  0
 12 14  1  0  0  0  0
 13 50  1  0  0  0  0
 14 15  1  0  0  0  0
 15 16  1  0  0  0  0
 15 51  1  0  0  0  0
 15 52  1  0  0  0  0
 16 17  1  0  0  0  0
 16 53  1  0  0  0  0
 16 54  1  0  0  0  0
 17 18  1  0  0  0  0
 17 55  1  0  0  0  0
 17 56  1  0  0  0  0
 18 19  1  0  0  0  0
 18 57  1  0  0  0  0
 18 58  1  0  0  0  0
 19 20  1  0  0  0  0
 19 59  1  0  0  0  0
 19 60  1  0  0  0  0
 20 21  2  0  0  0  0
 20 22  1  0  0  0  0
 22 23  1  0  0  0  0
 23 61  1  0  0  0  0
 23 62  1  0  0  0  0
 23 63  1  0  0  0  0
 24 40  1  1  0  0  0
 24 25  1  0  0  0  0
 24 37  1  0  0  0  0
 25 26  1  0  0  0  0
 25 64  1  0  0  0  0
 25 65  1  0  0  0  0
 26 27  1  0  0  0  0
 26 66  1  0  0  0  0
 26 81  1  0  0  0  0
 27 28  1  0  0  0  0
 27 67  1  0  0  0  0
 27 68  1  0  0  0  0
 28 33  1  0  0  0  0
 28 29  2  0  0  0  0
 29 30  1  0  0  0  0
 29 69  1  0  0  0  0
 30 31  2  0  0  0  0
 30 70  1  0  0  0  0
 31 32  1  0  0  0  0
 31 71  1  0  0  0  0
 32 33  2  0  0  0  0
 32 34  1  0  0  0  0
 33 72  1  0  0  0  0
 34 35  1  0  0  0  0
 34 36  1  0  0  0  0
 34 73  1  0  0  0  0
 35 74  1  0  0  0  0
 35 75  1  0  0  0  0
 35 76  1  0  0  0  0
 36 77  1  0  0  0  0
 36 78  1  0  0  0  0
 36 79  1  0  0  0  0
 37 80  1  0  0  0  0
M  CHG  1  26   1
M  END
