REMARK energy -3.93723
 OpenBabel09281823033D
Structure written by MMmdl.
 79 80  0  0  1  0  0  0  0  0999 V2000
   22.1837   43.6727    1.4115 C   0  0  0  0  0  0  0  0  0  0  0  0
   22.0236   43.8835   -0.1006 C   0  0  0  0  0  0  0  0  0  0  0  0
   20.7097   43.3103   -0.6586 C   0  0  0  0  0  0  0  0  0  0  0  0
   20.8764   42.4728   -1.8874 C   0  0  0  0  0  0  0  0  0  0  0  0
   21.7423   42.5541   -2.9439 C   0  0  0  0  0  0  0  0  0  0  0  0
   21.4333   41.4313   -3.7637 C   0  0  0  0  0  0  0  0  0  0  0  0
   20.4604   40.6960   -3.2377 N   0  0  0  0  0  0  0  0  0  0  0  0
   20.1125   41.3506   -2.1149 N   0  0  0  0  0  0  0  0  0  0  0  0
   22.0803   41.0569   -5.0788 C   0  0  0  0  0  0  0  0  0  0  0  0
   21.6492   39.7468   -5.5763 N   0  0  0  0  0  0  0  0  0  0  0  0
   22.1637   39.3112   -6.8792 C   0  0  0  0  0  0  0  0  0  0  0  0
   21.7228   40.1827   -8.0771 C   0  0  2  0  0  0  0  0  0  0  0  0
   20.1952   40.3934   -8.2061 C   0  0  2  0  0  0  0  0  0  0  0  0
   19.3924   39.1074   -8.5191 C   0  0  0  0  0  0  0  0  0  0  0  0
   17.9929   39.0863   -7.8697 C   0  0  1  0  0  0  0  0  0  0  0  0
   16.9923   38.2071   -8.6481 C   0  0  0  0  0  0  0  0  0  0  0  0
   16.4233   38.8528   -9.9277 C   0  0  0  0  0  0  0  0  0  0  0  0
   15.5113   40.0600   -9.6496 C   0  0  0  0  0  0  0  0  0  0  0  0
   14.7722   40.5791  -10.8959 C   0  0  0  0  0  0  0  0  0  0  0  0
   13.7892   41.7163  -10.5580 C   0  0  0  0  0  0  0  0  0  0  0  0
   14.4612   43.0797  -10.3570 C   0  0  0  0  0  0  0  0  0  0  0  0
   14.7227   43.6356  -11.6397 O   0  0  0  0  0  0  0  0  0  0  0  0
   15.7031   44.6639  -11.6716 C   0  0  0  0  0  0  0  0  0  0  0  0
   17.1047   44.0297  -11.6279 C   0  0  0  0  0  0  0  0  0  0  0  0
   17.4328   43.3527  -12.6069 O   0  0  0  0  0  0  0  0  0  0  0  0
   17.8906   44.1844  -10.5297 N   0  0  0  0  0  0  0  0  0  0  0  0
   19.1513   43.4151  -10.3767 C   0  0  2  0  0  0  0  0  0  0  0  0
   19.1627   42.4753   -9.1499 C   0  0  0  0  0  0  0  0  0  0  0  0
   18.5064   42.7259   -8.1438 O   0  0  0  0  0  0  0  0  0  0  0  0
   19.9565   41.4003   -9.2408 N   0  0  0  0  0  0  0  0  0  0  0  0
   20.3678   44.3732  -10.3769 C   0  0  0  0  0  0  0  0  0  0  0  0
   17.5313   45.1384   -9.4630 C   0  0  0  0  0  0  0  0  0  0  0  0
   18.0786   38.6298   -6.4057 C   0  0  0  0  0  0  0  0  0  0  0  0
   22.1866   39.5740   -9.2675 O   0  0  0  0  0  0  0  0  0  0  0  0
   19.3682   41.0149   -1.5128 H   0  0  0  0  0  0  0  0  0  0  0  0
   22.2154   41.1511   -7.9928 H   0  0  0  0  0  0  0  0  0  0  0  0
   19.8593   40.7928   -7.2504 H   0  0  0  0  0  0  0  0  0  0  0  0
   17.5996   40.1011   -7.8481 H   0  0  0  0  0  0  0  0  0  0  0  0
   19.3034   42.7628  -11.2430 H   0  0  0  0  0  0  0  0  0  0  0  0
   23.1215   44.1001    1.7691 H   0  0  0  0  0  0  0  0  0  0  0  0
   22.1913   42.6074    1.6511 H   0  0  0  0  0  0  0  0  0  0  0  0
   21.3695   44.1483    1.9587 H   0  0  0  0  0  0  0  0  0  0  0  0
   22.8714   43.4234   -0.6040 H   0  0  0  0  0  0  0  0  0  0  0  0
   22.0827   44.9450   -0.3438 H   0  0  0  0  0  0  0  0  0  0  0  0
   20.0482   44.1423   -0.8846 H   0  0  0  0  0  0  0  0  0  0  0  0
   20.2013   42.7270    0.1111 H   0  0  0  0  0  0  0  0  0  0  0  0
   22.4927   43.3117   -3.1117 H   0  0  0  0  0  0  0  0  0  0  0  0
   23.1638   41.0599   -4.9614 H   0  0  0  0  0  0  0  0  0  0  0  0
   21.8515   41.8304   -5.8139 H   0  0  0  0  0  0  0  0  0  0  0  0
   20.6325   39.6962   -5.5399 H   0  0  0  0  0  0  0  0  0  0  0  0
   21.8538   38.2809   -7.0464 H   0  0  0  0  0  0  0  0  0  0  0  0
   23.2527   39.2888   -6.8498 H   0  0  0  0  0  0  0  0  0  0  0  0
   19.3224   38.9833   -9.5975 H   0  0  0  0  0  0  0  0  0  0  0  0
   19.9328   38.2253   -8.1846 H   0  0  0  0  0  0  0  0  0  0  0  0
   17.4682   37.2589   -8.8971 H   0  0  0  0  0  0  0  0  0  0  0  0
   16.1497   37.9469   -8.0042 H   0  0  0  0  0  0  0  0  0  0  0  0
   15.8371   38.0925  -10.4405 H   0  0  0  0  0  0  0  0  0  0  0  0
   17.2256   39.1371  -10.6110 H   0  0  0  0  0  0  0  0  0  0  0  0
   14.7785   39.7744   -8.8943 H   0  0  0  0  0  0  0  0  0  0  0  0
   16.0921   40.8724   -9.2159 H   0  0  0  0  0  0  0  0  0  0  0  0
   14.2119   39.7518  -11.3314 H   0  0  0  0  0  0  0  0  0  0  0  0
   15.4878   40.9051  -11.6502 H   0  0  0  0  0  0  0  0  0  0  0  0
   13.0297   41.8083  -11.3365 H   0  0  0  0  0  0  0  0  0  0  0  0
   13.2542   41.4497   -9.6471 H   0  0  0  0  0  0  0  0  0  0  0  0
   15.3614   42.9724   -9.7510 H   0  0  0  0  0  0  0  0  0  0  0  0
   13.7931   43.7503   -9.8153 H   0  0  0  0  0  0  0  0  0  0  0  0
   15.4928   45.4075  -10.9034 H   0  0  0  0  0  0  0  0  0  0  0  0
   15.6056   45.1870  -12.6239 H   0  0  0  0  0  0  0  0  0  0  0  0
   20.4780   41.2665  -10.0913 H   0  0  0  0  0  0  0  0  0  0  0  0
   21.3056   43.8190  -10.4495 H   0  0  0  0  0  0  0  0  0  0  0  0
   20.4168   44.9689   -9.4592 H   0  0  0  0  0  0  0  0  0  0  0  0
   20.3301   45.0595  -11.2252 H   0  0  0  0  0  0  0  0  0  0  0  0
   18.3126   45.2483   -8.7094 H   0  0  0  0  0  0  0  0  0  0  0  0
   16.6333   44.8087   -8.9338 H   0  0  0  0  0  0  0  0  0  0  0  0
   17.3590   46.1368   -9.8704 H   0  0  0  0  0  0  0  0  0  0  0  0
   17.0828   38.5827   -5.9661 H   0  0  0  0  0  0  0  0  0  0  0  0
   18.6597   39.3381   -5.8111 H   0  0  0  0  0  0  0  0  0  0  0  0
   18.5092   37.6297   -6.3098 H   0  0  0  0  0  0  0  0  0  0  0  0
   23.1177   39.4037   -9.2093 H   0  0  0  0  0  0  0  0  0  0  0  0
  1  2  1  0  0  0  0
  1 40  1  0  0  0  0
  1 41  1  0  0  0  0
  1 42  1  0  0  0  0
  2  3  1  0  0  0  0
  2 43  1  0  0  0  0
  2 44  1  0  0  0  0
  3  4  1  0  0  0  0
  3 45  1  0  0  0  0
  3 46  1  0  0  0  0
  4  8  1  0  0  0  0
  4  5  2  0  0  0  0
  5  6  1  0  0  0  0
  5 47  1  0  0  0  0
  6  7  2  0  0  0  0
  6  9  1  0  0  0  0
  7  8  1  0  0  0  0
  8 35  1  0  0  0  0
  9 10  1  0  0  0  0
  9 48  1  0  0  0  0
  9 49  1  0  0  0  0
 10 11  1  0  0  0  0
 10 50  1  0  0  0  0
 11 12  1  0  0  0  0
 11 51  1  0  0  0  0
 11 52  1  0  0  0  0
 12 36  1  1  0  0  0
 12 13  1  0  0  0  0
 12 34  1  0  0  0  0
 13 37  1  1  0  0  0
 13 30  1  0  0  0  0
 13 14  1  0  0  0  0
 14 15  1  0  0  0  0
 14 53  1  0  0  0  0
 14 54  1  0  0  0  0
 15 38  1  6  0  0  0
 15 16  1  0  0  0  0
 15 33  1  0  0  0  0
 16 17  1  0  0  0  0
 16 55  1  0  0  0  0
 16 56  1  0  0  0  0
 17 18  1  0  0  0  0
 17 57  1  0  0  0  0
 17 58  1  0  0  0  0
 18 19  1  0  0  0  0
 18 59  1  0  0  0  0
 18 60  1  0  0  0  0
 19 20  1  0  0  0  0
 19 61  1  0  0  0  0
 19 62  1  0  0  0  0
 20 21  1  0  0  0  0
 20 63  1  0  0  0  0
 20 64  1  0  0  0  0
 21 22  1  0  0  0  0
 21 65  1  0  0  0  0
 21 66  1  0  0  0  0
 22 23  1  0  0  0  0
 23 24  1  0  0  0  0
 23 67  1  0  0  0  0
 23 68  1  0  0  0  0
 24 25  2  0  0  0  0
 24 26  1  0  0  0  0
 26 27  1  0  0  0  0
 26 32  1  0  0  0  0
 27 39  1  6  0  0  0
 27 28  1  0  0  0  0
 27 31  1  0  0  0  0
 28 29  2  0  0  0  0
 28 30  1  0  0  0  0
 30 69  1  0  0  0  0
 31 70  1  0  0  0  0
 31 71  1  0  0  0  0
 31 72  1  0  0  0  0
 32 73  1  0  0  0  0
 32 74  1  0  0  0  0
 32 75  1  0  0  0  0
 33 76  1  0  0  0  0
 33 77  1  0  0  0  0
 33 78  1  0  0  0  0
 34 79  1  0  0  0  0
M  END
