REMARK energy -4.32929
 OpenBabel09281823033D
Structure written by MMmdl.
 83 85  0  0  1  0  0  0  0  0999 V2000
   25.0785   46.9975   -5.8101 C   0  0  0  0  0  0  0  0  0  0  0  0
   24.1249   46.7565   -6.9885 C   0  0  0  0  0  0  0  0  0  0  0  0
   23.4428   45.4557   -6.8781 N   0  0  0  0  0  0  0  0  0  0  0  0
   23.3569   44.7114   -8.1560 C   0  0  0  0  0  0  0  0  0  0  0  0
   24.1293   43.3703   -8.1686 C   0  0  0  0  0  0  0  0  0  0  0  0
   24.2897   42.7690   -9.5788 C   0  0  0  0  0  0  0  0  0  0  0  0
   22.9851   42.3690  -10.2986 C   0  0  0  0  0  0  0  0  0  0  0  0
   22.3473   41.0525   -9.8030 C   0  0  0  0  0  0  0  0  0  0  0  0
   21.0137   40.6827  -10.5058 C   0  0  2  0  0  0  0  0  0  0  0  0
   20.3507   39.4038   -9.9165 C   0  0  0  0  0  0  0  0  0  0  0  0
   19.2677   39.6576   -8.8315 C   0  0  2  0  0  0  0  0  0  0  0  0
   19.8713   40.2800   -7.6632 N   0  0  0  0  0  0  0  0  0  0  0  0
   19.6915   41.5389   -7.2362 C   0  0  0  0  0  0  0  0  0  0  0  0
   18.8661   42.3145   -7.7157 O   0  0  0  0  0  0  0  0  0  0  0  0
   20.7103   41.9993   -6.2407 C   0  0  0  0  0  0  0  0  0  0  0  0
   21.2009   41.1199   -5.2509 C   0  0  0  0  0  0  0  0  0  0  0  0
   22.2524   41.5245   -4.4099 C   0  0  0  0  0  0  0  0  0  0  0  0
   22.8254   42.7994   -4.5714 C   0  0  0  0  0  0  0  0  0  0  0  0
   22.3252   43.6993   -5.5331 C   0  0  0  0  0  0  0  0  0  0  0  0
   21.2241   43.3115   -6.3285 C   0  0  0  0  0  0  0  0  0  0  0  0
   22.9760   45.0488   -5.6646 C   0  0  0  0  0  0  0  0  0  0  0  0
   23.1433   45.7058   -4.6329 O   0  0  0  0  0  0  0  0  0  0  0  0
   18.4806   38.3937   -8.3751 C   0  0  1  0  0  0  0  0  0  0  0  0
   16.9436   38.5593   -8.3590 C   0  0  0  0  0  0  0  0  0  0  0  0
   16.4590   39.0786   -7.0502 N   0  3  0  0  0  0  0  0  0  0  0  0
   15.2703   39.9672   -7.0695 C   0  0  0  0  0  0  0  0  0  0  0  0
   15.3229   40.9892   -8.1907 C   0  0  0  0  0  0  0  0  0  0  0  0
   14.5754   40.7984   -9.3696 C   0  0  0  0  0  0  0  0  0  0  0  0
   14.5366   41.8050  -10.3505 C   0  0  0  0  0  0  0  0  0  0  0  0
   15.2802   42.9889  -10.1815 C   0  0  0  0  0  0  0  0  0  0  0  0
   16.0764   43.1682   -9.0280 C   0  0  0  0  0  0  0  0  0  0  0  0
   16.0890   42.1588   -8.0394 C   0  0  0  0  0  0  0  0  0  0  0  0
   16.8855   44.4453   -8.8186 C   0  0  0  0  0  0  0  0  0  0  0  0
   15.9630   45.6475   -8.5669 C   0  0  0  0  0  0  0  0  0  0  0  0
   17.8736   44.7317   -9.9648 C   0  0  0  0  0  0  0  0  0  0  0  0
   18.7897   37.3228   -9.2492 O   0  0  0  0  0  0  0  0  0  0  0  0
   21.2081   40.5215  -12.0268 C   0  0  0  0  0  0  0  0  0  0  0  0
   20.3204   41.5134  -10.3730 H   0  0  0  0  0  0  0  0  0  0  0  0
   18.5481   40.3562   -9.2579 H   0  0  0  0  0  0  0  0  0  0  0  0
   18.8075   38.1111   -7.3723 H   0  0  0  0  0  0  0  0  0  0  0  0
   25.5852   47.9557   -5.9149 H   0  0  0  0  0  0  0  0  0  0  0  0
   25.8436   46.2227   -5.7552 H   0  0  0  0  0  0  0  0  0  0  0  0
   24.5463   47.0111   -4.8602 H   0  0  0  0  0  0  0  0  0  0  0  0
   23.3927   47.5620   -7.0313 H   0  0  0  0  0  0  0  0  0  0  0  0
   24.6723   46.8442   -7.9264 H   0  0  0  0  0  0  0  0  0  0  0  0
   22.3148   44.5668   -8.4377 H   0  0  0  0  0  0  0  0  0  0  0  0
   23.7626   45.3138   -8.9691 H   0  0  0  0  0  0  0  0  0  0  0  0
   25.1250   43.5425   -7.7595 H   0  0  0  0  0  0  0  0  0  0  0  0
   23.6613   42.6316   -7.5207 H   0  0  0  0  0  0  0  0  0  0  0  0
   24.8189   43.4942  -10.1989 H   0  0  0  0  0  0  0  0  0  0  0  0
   24.9485   41.9019   -9.5254 H   0  0  0  0  0  0  0  0  0  0  0  0
   22.2573   43.1801  -10.2563 H   0  0  0  0  0  0  0  0  0  0  0  0
   23.2363   42.2595  -11.3515 H   0  0  0  0  0  0  0  0  0  0  0  0
   23.0634   40.2409   -9.9329 H   0  0  0  0  0  0  0  0  0  0  0  0
   22.1869   41.1315   -8.7297 H   0  0  0  0  0  0  0  0  0  0  0  0
   19.8850   38.8449  -10.7269 H   0  0  0  0  0  0  0  0  0  0  0  0
   21.1240   38.7344   -9.5324 H   0  0  0  0  0  0  0  0  0  0  0  0
   20.5799   39.7285   -7.2009 H   0  0  0  0  0  0  0  0  0  0  0  0
   20.7916   40.1262   -5.1403 H   0  0  0  0  0  0  0  0  0  0  0  0
   22.6322   40.8509   -3.6571 H   0  0  0  0  0  0  0  0  0  0  0  0
   23.6666   43.0945   -3.9627 H   0  0  0  0  0  0  0  0  0  0  0  0
   20.8039   43.9963   -7.0506 H   0  0  0  0  0  0  0  0  0  0  0  0
   16.6549   39.2132   -9.1812 H   0  0  0  0  0  0  0  0  0  0  0  0
   16.4730   37.5991   -8.5618 H   0  0  0  0  0  0  0  0  0  0  0  0
   16.2707   38.2962   -6.4388 H   0  0  0  0  0  0  0  0  0  0  0  0
   14.3713   39.3581   -7.1579 H   0  0  0  0  0  0  0  0  0  0  0  0
   15.1941   40.4885   -6.1119 H   0  0  0  0  0  0  0  0  0  0  0  0
   14.0049   39.8935   -9.5167 H   0  0  0  0  0  0  0  0  0  0  0  0
   13.9381   41.6691  -11.2394 H   0  0  0  0  0  0  0  0  0  0  0  0
   15.2278   43.7503  -10.9433 H   0  0  0  0  0  0  0  0  0  0  0  0
   16.6835   42.2793   -7.1472 H   0  0  0  0  0  0  0  0  0  0  0  0
   17.4875   44.3032   -7.9188 H   0  0  0  0  0  0  0  0  0  0  0  0
   15.3301   45.4847   -7.6945 H   0  0  0  0  0  0  0  0  0  0  0  0
   15.3081   45.8315   -9.4199 H   0  0  0  0  0  0  0  0  0  0  0  0
   16.5378   46.5553   -8.3910 H   0  0  0  0  0  0  0  0  0  0  0  0
   18.5782   43.9081  -10.0881 H   0  0  0  0  0  0  0  0  0  0  0  0
   18.4561   45.6287   -9.7610 H   0  0  0  0  0  0  0  0  0  0  0  0
   17.3710   44.8971  -10.9171 H   0  0  0  0  0  0  0  0  0  0  0  0
   19.7347   37.2157   -9.3120 H   0  0  0  0  0  0  0  0  0  0  0  0
   21.9392   39.7459  -12.2543 H   0  0  0  0  0  0  0  0  0  0  0  0
   21.5406   41.4446  -12.5000 H   0  0  0  0  0  0  0  0  0  0  0  0
   20.2766   40.2485  -12.5173 H   0  0  0  0  0  0  0  0  0  0  0  0
   17.2129   39.6161   -6.6519 H   0  0  0  0  0  0  0  0  0  0  0  0
  1  2  1  0  0  0  0
  1 41  1  0  0  0  0
  1 42  1  0  0  0  0
  1 43  1  0  0  0  0
  2  3  1  0  0  0  0
  2 44  1  0  0  0  0
  2 45  1  0  0  0  0
  3 21  1  0  0  0  0
  3  4  1  0  0  0  0
  4  5  1  0  0  0  0
  4 46  1  0  0  0  0
  4 47  1  0  0  0  0
  5  6  1  0  0  0  0
  5 48  1  0  0  0  0
  5 49  1  0  0  0  0
  6  7  1  0  0  0  0
  6 50  1  0  0  0  0
  6 51  1  0  0  0  0
  7  8  1  0  0  0  0
  7 52  1  0  0  0  0
  7 53  1  0  0  0  0
  8  9  1  0  0  0  0
  8 54  1  0  0  0  0
  8 55  1  0  0  0  0
  9 38  1  1  0  0  0
  9 10  1  0  0  0  0
  9 37  1  0  0  0  0
 10 11  1  0  0  0  0
 10 56  1  0  0  0  0
 10 57  1  0  0  0  0
 11 39  1  6  0  0  0
 11 12  1  0  0  0  0
 11 23  1  0  0  0  0
 12 13  1  0  0  0  0
 12 58  1  0  0  0  0
 13 14  2  0  0  0  0
 13 15  1  0  0  0  0
 15 20  1  0  0  0  0
 15 16  2  0  0  0  0
 16 17  1  0  0  0  0
 16 59  1  0  0  0  0
 17 18  2  0  0  0  0
 17 60  1  0  0  0  0
 18 19  1  0  0  0  0
 18 61  1  0  0  0  0
 19 20  2  0  0  0  0
 19 21  1  0  0  0  0
 20 62  1  0  0  0  0
 21 22  2  0  0  0  0
 23 40  1  1  0  0  0
 23 24  1  0  0  0  0
 23 36  1  0  0  0  0
 24 25  1  0  0  0  0
 24 63  1  0  0  0  0
 24 64  1  0  0  0  0
 25 26  1  0  0  0  0
 25 65  1  0  0  0  0
 25 83  1  0  0  0  0
 26 27  1  0  0  0  0
 26 66  1  0  0  0  0
 26 67  1  0  0  0  0
 27 32  1  0  0  0  0
 27 28  2  0  0  0  0
 28 29  1  0  0  0  0
 28 68  1  0  0  0  0
 29 30  2  0  0  0  0
 29 69  1  0  0  0  0
 30 31  1  0  0  0  0
 30 70  1  0  0  0  0
 31 32  2  0  0  0  0
 31 33  1  0  0  0  0
 32 71  1  0  0  0  0
 33 34  1  0  0  0  0
 33 35  1  0  0  0  0
 33 72  1  0  0  0  0
 34 73  1  0  0  0  0
 34 74  1  0  0  0  0
 34 75  1  0  0  0  0
 35 76  1  0  0  0  0
 35 77  1  0  0  0  0
 35 78  1  0  0  0  0
 36 79  1  0  0  0  0
 37 80  1  0  0  0  0
 37 81  1  0  0  0  0
 37 82  1  0  0  0  0
M  CHG  1  25   1
M  END
