BACE_3.smi:1
                    3D
 Structure written by MMmdl.
 86 87  0  0  1  0            999 V2000
   -2.1299    3.4899   -1.5932 C   0  0  0  0  0  0
   -2.1441    3.8605   -2.9509 C   0  0  0  0  0  0
   -2.3658    2.8886   -3.9449 C   0  0  0  0  0  0
   -2.5816    1.5394   -3.5875 C   0  0  0  0  0  0
   -2.8063    0.4790   -4.6577 C   0  0  0  0  0  0
   -4.0504    0.7787   -5.5087 C   0  0  0  0  0  0
   -1.5543    0.2881   -5.5279 C   0  0  0  0  0  0
   -2.5740    1.1756   -2.2237 C   0  0  0  0  0  0
   -2.3410    2.1451   -1.2252 C   0  0  0  0  0  0
   -2.3028    1.7445    0.2389 C   0  0  0  0  0  0
   -0.9192    1.5265    0.7101 N   0  3  0  0  0  0
   -0.2775    0.2869    0.2169 C   0  0  0  0  0  0
    1.2028    0.1801    0.6598 C   0  0  0  0  0  0
    1.1936    0.2097    2.0749 O   0  0  0  0  0  0
    1.8942    1.2886    0.1182 O   0  0  0  0  0  0
    1.9120   -1.1552    0.2399 C   0  0  1  0  0  0
    1.3287   -1.8019   -0.9384 N   0  0  0  0  0  0
    1.4389   -1.4183   -2.2220 C   0  0  0  0  0  0
    2.0169   -0.3917   -2.5756 O   0  0  0  0  0  0
    0.7951   -2.3388   -3.2682 C   0  0  2  0  0  0
   -0.7012   -2.6393   -3.0182 C   0  0  0  0  0  0
    3.4641   -1.1291    0.1488 C   0  0  0  0  0  0
    4.2221   -0.9930    1.4911 C   0  0  2  0  0  0
    5.7139   -0.6898    1.2617 C   0  0  0  0  0  0
    4.0086   -2.1666    2.4873 C   0  0  0  0  0  0
    3.8869   -3.5964    1.9130 C   0  0  0  0  0  0
    5.1284   -4.1360    1.1800 C   0  0  0  0  0  0
    4.9288   -5.5375    0.5764 C   0  0  0  0  0  0
    3.8131   -5.5853   -0.4827 C   0  0  0  0  0  0
    3.8422   -6.8552   -1.3454 C   0  0  0  0  0  0
    2.6309   -7.0223   -2.2864 C   0  0  0  0  0  0
    2.4447   -5.8913   -3.3277 C   0  0  0  0  0  0
    1.6001   -4.6834   -2.8567 C   0  0  0  0  0  0
    0.9092   -4.8114   -1.8456 O   0  0  0  0  0  0
    1.6358   -3.5248   -3.5711 N   0  0  0  0  0  0
    2.6037   -3.3519   -4.6639 C   0  0  0  0  0  0
    1.6512   -1.8856    1.0050 H   0  0  0  0  0  0
    0.7649   -1.7402   -4.1788 H   0  0  0  0  0  0
    3.8404   -0.1007    1.9870 H   0  0  0  0  0  0
   -1.9511    4.2403   -0.8369 H   0  0  0  0  0  0
   -1.9794    4.8905   -3.2312 H   0  0  0  0  0  0
   -2.3662    3.1837   -4.9840 H   0  0  0  0  0  0
   -2.9930   -0.4684   -4.1508 H   0  0  0  0  0  0
   -4.9407    0.8635   -4.8845 H   0  0  0  0  0  0
   -4.2306   -0.0185   -6.2305 H   0  0  0  0  0  0
   -3.9444    1.7090   -6.0671 H   0  0  0  0  0  0
   -0.6867    0.0417   -4.9155 H   0  0  0  0  0  0
   -1.3157    1.1902   -6.0920 H   0  0  0  0  0  0
   -1.6933   -0.5224   -6.2439 H   0  0  0  0  0  0
   -2.7330    0.1452   -1.9402 H   0  0  0  0  0  0
   -2.7493    2.5416    0.8342 H   0  0  0  0  0  0
   -2.9049    0.8509    0.4098 H   0  0  0  0  0  0
   -0.3539    2.3131    0.4233 H   0  0  0  0  0  0
   -0.8462   -0.5736    0.5727 H   0  0  0  0  0  0
   -0.3397    0.2821   -0.8701 H   0  0  0  0  0  0
    0.8434   -0.6093    2.3919 H   0  0  0  0  0  0
    2.8218    1.1519    0.2390 H   0  0  0  0  0  0
    0.8316   -2.6646   -0.7661 H   0  0  0  0  0  0
   -1.2757   -1.7134   -3.0008 H   0  0  0  0  0  0
   -0.8911   -3.1361   -2.0677 H   0  0  0  0  0  0
   -1.1142   -3.2611   -3.8129 H   0  0  0  0  0  0
    3.8043   -2.0330   -0.3556 H   0  0  0  0  0  0
    3.7754   -0.3241   -0.5169 H   0  0  0  0  0  0
    6.2264   -1.4834    0.7224 H   0  0  0  0  0  0
    6.2357   -0.5440    2.2080 H   0  0  0  0  0  0
    5.8394    0.2254    0.6827 H   0  0  0  0  0  0
    4.7897   -2.1497    3.2482 H   0  0  0  0  0  0
    3.0857   -1.9691    3.0338 H   0  0  0  0  0  0
    3.6560   -4.2744    2.7352 H   0  0  0  0  0  0
    3.0210   -3.6427    1.2567 H   0  0  0  0  0  0
    5.4104   -3.4687    0.3692 H   0  0  0  0  0  0
    5.9741   -4.1541    1.8682 H   0  0  0  0  0  0
    5.8692   -5.8473    0.1188 H   0  0  0  0  0  0
    4.7218   -6.2612    1.3655 H   0  0  0  0  0  0
    2.8436   -5.5147    0.0103 H   0  0  0  0  0  0
    3.9010   -4.7127   -1.1307 H   0  0  0  0  0  0
    4.7609   -6.8694   -1.9330 H   0  0  0  0  0  0
    3.8908   -7.7264   -0.6912 H   0  0  0  0  0  0
    2.7673   -7.9570   -2.8314 H   0  0  0  0  0  0
    1.7249   -7.1755   -1.6992 H   0  0  0  0  0  0
    3.4320   -5.5821   -3.6682 H   0  0  0  0  0  0
    1.9360   -6.3033   -4.2000 H   0  0  0  0  0  0
    2.4672   -4.1141   -5.4322 H   0  0  0  0  0  0
    3.6246   -3.4161   -4.2851 H   0  0  0  0  0  0
    2.5245   -2.3858   -5.1620 H   0  0  0  0  0  0
   -0.9239    1.4891    1.7192 H   0  0  0  0  0  0
  1  9  1  0  0  0
  1  2  2  0  0  0
  1 40  1  0  0  0
  2  3  1  0  0  0
  2 41  1  0  0  0
  3  4  2  0  0  0
  3 42  1  0  0  0
  4  5  1  0  0  0
  4  8  1  0  0  0
  5  6  1  0  0  0
  5  7  1  0  0  0
  5 43  1  0  0  0
  6 44  1  0  0  0
  6 45  1  0  0  0
  6 46  1  0  0  0
  7 47  1  0  0  0
  7 48  1  0  0  0
  7 49  1  0  0  0
  8  9  2  0  0  0
  8 50  1  0  0  0
  9 10  1  0  0  0
 10 11  1  0  0  0
 10 51  1  0  0  0
 10 52  1  0  0  0
 11 12  1  0  0  0
 11 53  1  0  0  0
 11 86  1  0  0  0
 12 13  1  0  0  0
 12 54  1  0  0  0
 12 55  1  0  0  0
 13 14  1  0  0  0
 13 15  1  0  0  0
 13 16  1  0  0  0
 14 56  1  0  0  0
 15 57  1  0  0  0
 16 37  1  0  0  0
 16 17  1  0  0  0
 16 22  1  0  0  0
 17 18  1  0  0  0
 17 58  1  0  0  0
 18 19  2  0  0  0
 18 20  1  0  0  0
 20 38  1  0  0  0
 20 35  1  0  0  0
 20 21  1  0  0  0
 21 59  1  0  0  0
 21 60  1  0  0  0
 21 61  1  0  0  0
 22 23  1  0  0  0
 22 62  1  0  0  0
 22 63  1  0  0  0
 23 39  1  0  0  0
 23 24  1  0  0  0
 23 25  1  0  0  0
 24 64  1  0  0  0
 24 65  1  0  0  0
 24 66  1  0  0  0
 25 26  1  0  0  0
 25 67  1  0  0  0
 25 68  1  0  0  0
 26 27  1  0  0  0
 26 69  1  0  0  0
 26 70  1  0  0  0
 27 28  1  0  0  0
 27 71  1  0  0  0
 27 72  1  0  0  0
 28 29  1  0  0  0
 28 73  1  0  0  0
 28 74  1  0  0  0
 29 30  1  0  0  0
 29 75  1  0  0  0
 29 76  1  0  0  0
 30 31  1  0  0  0
 30 77  1  0  0  0
 30 78  1  0  0  0
 31 32  1  0  0  0
 31 79  1  0  0  0
 31 80  1  0  0  0
 32 33  1  0  0  0
 32 81  1  0  0  0
 32 82  1  0  0  0
 33 34  2  0  0  0
 33 35  1  0  0  0
 35 36  1  0  0  0
 36 83  1  0  0  0
 36 84  1  0  0  0
 36 85  1  0  0  0
M  CHG  1  11   1
M  END
> <i_f3d_flags>
0

> <chiral flag>
1

> <version>
0

> <s_i_glide_gridfile>
base1a_gride_6

> <i_i_glide_lignum>
5

> <i_i_glide_rotatable_bonds>
8

> <r_i_docking_score>
-1.45667977940423

> <r_i_glide_ligand_efficiency>
-0.0404633272056732

> <r_i_glide_ligand_efficiency_sa>
-0.133606962521757

> <r_i_glide_ligand_efficiency_ln>
-0.317808172926388

> <r_glide_XP_GScore>
-3.66477977940423

> <r_i_glide_gscore>
-3.66477977940423

> <r_i_glide_evdw>
-30.1041774749756

> <r_i_glide_ecoul>
-8.64245700836182

> <r_i_glide_energy>
-38.7466344833374

> <r_i_glide_einternal>
8.49465084075928

> <r_i_glide_emodel>
-41.1334589868347

> <r_glide_XP_HBond>
-1.71836638430302

> <i_i_glide_confnum>
1

> <i_i_glide_posenum>
3

> <r_i_glide_eff_state_penalty>
2.2081

> <i_glide_XP_PoseRank>
1

> <s_m_source_file>
glide-dock_pose_2-0003_raw.maegz

> <i_m_source_file_index>
1

> <i_lp_mmshare_version>
42013

> <s_epik_input>
W0NIM11bQ0hdKFtDSDNdKWMxW2NIXVtjSF1bY0hdYyhbY0hdMSlbQ0gyXVtOSF1bQ0gyXUMoW09IXSkoW09IXSlbQ0BIXTJbTkhdQyg9TylbQ0BIXShbQ0gzXSlOKFtDSDNdKUMoPU8pW0NIMl1bQ0gyXVtDSDJdW0NIMl1bQ0gyXVtDSDJdW0NIMl1bQ0gyXVtDQEhdKFtDSDJdMilbQ0gzXQ==

> <s_epik_cmdline>
J2VwaWtfcHl0aG9uJywgJy1waCcsICc3LjAnLCAnLXRuJywgJzgnLCAnLW1hJywgJzIwMCcsICctaW1hZScsICc8aW5maWxlLm1hZT4nLCAnLW9tYWUnLCAnPG91dGZpbGUubWFlPic=

> <r_epik_Ionization_Penalty>
0.0181791

> <r_epik_Ionization_Penalty_Charging>
0.0181594

> <r_epik_Ionization_Penalty_Neutral>
1.97672e-05

> <r_epik_State_Penalty>
0.0144341

> <r_epik_Charging_Adjusted_Penalty>
0.0325934

> <i_epik_Tot_Q>
1

> <i_epik_Tot_abs_Q>
1

> <i_f3d_flags>
0

> <s_lp_Force_Field>
OPLS_2005

> <r_lp_Energy>
32.9582

> <b_lp_Chiralities_Consistent>
1

> <s_lp_Variant>
BACE_3.smi:1-1

$$$$
BACE_3.smi:1
                    3D
 Structure written by MMmdl.
 85 86  0  0  1  0            999 V2000
   -1.3711    3.4376   -1.5355 C   0  0  0  0  0  0
   -1.6482    3.5838   -2.9076 C   0  0  0  0  0  0
   -2.6352    2.7859   -3.5171 C   0  0  0  0  0  0
   -3.3499    1.8328   -2.7585 C   0  0  0  0  0  0
   -4.4291    0.9736   -3.4065 C   0  0  0  0  0  0
   -5.6441    1.8197   -3.8171 C   0  0  0  0  0  0
   -3.8861    0.1535   -4.5884 C   0  0  0  0  0  0
   -3.0655    1.6901   -1.3828 C   0  0  0  0  0  0
   -2.0777    2.4879   -0.7680 C   0  0  0  0  0  0
   -1.7760    2.3170    0.7118 C   0  0  0  0  0  0
   -0.3643    2.0551    0.9848 N   0  0  0  0  0  0
    0.0988    0.7502    0.5087 C   0  0  0  0  0  0
    1.5922    0.4883    0.8316 C   0  0  0  0  0  0
    1.7016    0.5129    2.2427 O   0  0  0  0  0  0
    2.3713    1.4973    0.2193 O   0  0  0  0  0  0
    2.0928   -0.9228    0.3651 C   0  0  1  0  0  0
    1.3656   -1.4530   -0.7910 N   0  0  0  0  0  0
    1.4761   -1.0702   -2.0749 C   0  0  0  0  0  0
    2.2231   -0.1700   -2.4561 O   0  0  0  0  0  0
    0.6072   -1.8276   -3.0880 C   0  0  2  0  0  0
   -0.8934   -1.8961   -2.7183 C   0  0  0  0  0  0
    3.6271   -1.1109    0.1943 C   0  0  0  0  0  0
    4.4600   -1.1447    1.4977 C   0  0  2  0  0  0
    5.9675   -1.0584    1.1970 C   0  0  0  0  0  0
    4.1204   -2.3143    2.4637 C   0  0  0  0  0  0
    3.7558   -3.6857    1.8497 C   0  0  0  0  0  0
    4.8625   -4.3750    1.0309 C   0  0  0  0  0  0
    4.4250   -5.7085    0.3988 C   0  0  0  0  0  0
    3.2568   -5.5581   -0.5927 C   0  0  0  0  0  0
    3.0602   -6.7874   -1.4922 C   0  0  0  0  0  0
    1.7836   -6.7590   -2.3591 C   0  0  0  0  0  0
    1.6915   -5.5828   -3.3626 C   0  0  0  0  0  0
    1.0615   -4.2829   -2.8081 C   0  0  0  0  0  0
    0.4249   -4.3459   -1.7562 O   0  0  0  0  0  0
    1.2212   -3.1172   -3.4939 N   0  0  0  0  0  0
    2.1180   -3.0512   -4.6564 C   0  0  0  0  0  0
    1.7685   -1.6232    1.1339 H   0  0  0  0  0  0
    0.5994   -1.1899   -3.9729 H   0  0  0  0  0  0
    4.2417   -0.2263    2.0424 H   0  0  0  0  0  0
   -0.6116    4.0523   -1.0747 H   0  0  0  0  0  0
   -1.1041    4.3103   -3.4930 H   0  0  0  0  0  0
   -2.8430    2.9125   -4.5694 H   0  0  0  0  0  0
   -4.7737    0.2587   -2.6581 H   0  0  0  0  0  0
   -6.0603    2.3487   -2.9591 H   0  0  0  0  0  0
   -6.4347    1.1946   -4.2334 H   0  0  0  0  0  0
   -5.3794    2.5631   -4.5697 H   0  0  0  0  0  0
   -3.0546   -0.4794   -4.2792 H   0  0  0  0  0  0
   -3.5351    0.7924   -5.3990 H   0  0  0  0  0  0
   -4.6586   -0.4987   -4.9968 H   0  0  0  0  0  0
   -3.6075    0.9650   -0.7934 H   0  0  0  0  0  0
   -2.0769    3.2357    1.2159 H   0  0  0  0  0  0
   -2.3946    1.5223    1.1306 H   0  0  0  0  0  0
   -0.1721    2.1530    1.9766 H   0  0  0  0  0  0
   -0.5108   -0.0396    0.9500 H   0  0  0  0  0  0
   -0.0625    0.6953   -0.5672 H   0  0  0  0  0  0
    1.1301   -0.1502    2.5980 H   0  0  0  0  0  0
    3.2822    1.2592    0.2960 H   0  0  0  0  0  0
    0.7211   -2.2062   -0.5972 H   0  0  0  0  0  0
   -1.3063   -0.8907   -2.6255 H   0  0  0  0  0  0
   -1.0847   -2.3946   -1.7690 H   0  0  0  0  0  0
   -1.4642   -2.4115   -3.4907 H   0  0  0  0  0  0
    3.8108   -2.0304   -0.3602 H   0  0  0  0  0  0
    4.0197   -0.3289   -0.4555 H   0  0  0  0  0  0
    6.3279   -1.9021    0.6121 H   0  0  0  0  0  0
    6.5511   -1.0213    2.1172 H   0  0  0  0  0  0
    6.1993   -0.1537    0.6342 H   0  0  0  0  0  0
    4.9306   -2.4443    3.1819 H   0  0  0  0  0  0
    3.2653   -2.0031    3.0648 H   0  0  0  0  0  0
    3.4661   -4.3539    2.6614 H   0  0  0  0  0  0
    2.8614   -3.5762    1.2409 H   0  0  0  0  0  0
    5.1987   -3.7261    0.2259 H   0  0  0  0  0  0
    5.7306   -4.5442    1.6687 H   0  0  0  0  0  0
    5.2832   -6.1335   -0.1230 H   0  0  0  0  0  0
    4.1584   -6.4238    1.1775 H   0  0  0  0  0  0
    2.3361   -5.3708   -0.0403 H   0  0  0  0  0  0
    3.4310   -4.6826   -1.2188 H   0  0  0  0  0  0
    3.9325   -6.9036   -2.1365 H   0  0  0  0  0  0
    3.0286   -7.6804   -0.8670 H   0  0  0  0  0  0
    1.7574   -7.6867   -2.9317 H   0  0  0  0  0  0
    0.9014   -6.8057   -1.7196 H   0  0  0  0  0  0
    2.6883   -5.4050   -3.7639 H   0  0  0  0  0  0
    1.0728   -5.8928   -4.2056 H   0  0  0  0  0  0
    1.8153   -3.7619   -5.4263 H   0  0  0  0  0  0
    3.1448   -3.2716   -4.3613 H   0  0  0  0  0  0
    2.1406   -2.0688   -5.1281 H   0  0  0  0  0  0
  1  9  1  0  0  0
  1  2  2  0  0  0
  1 40  1  0  0  0
  2  3  1  0  0  0
  2 41  1  0  0  0
  3  4  2  0  0  0
  3 42  1  0  0  0
  4  5  1  0  0  0
  4  8  1  0  0  0
  5  6  1  0  0  0
  5  7  1  0  0  0
  5 43  1  0  0  0
  6 44  1  0  0  0
  6 45  1  0  0  0
  6 46  1  0  0  0
  7 47  1  0  0  0
  7 48  1  0  0  0
  7 49  1  0  0  0
  8  9  2  0  0  0
  8 50  1  0  0  0
  9 10  1  0  0  0
 10 11  1  0  0  0
 10 51  1  0  0  0
 10 52  1  0  0  0
 11 12  1  0  0  0
 11 53  1  0  0  0
 12 13  1  0  0  0
 12 54  1  0  0  0
 12 55  1  0  0  0
 13 14  1  0  0  0
 13 15  1  0  0  0
 13 16  1  0  0  0
 14 56  1  0  0  0
 15 57  1  0  0  0
 16 37  1  0  0  0
 16 17  1  0  0  0
 16 22  1  0  0  0
 17 18  1  0  0  0
 17 58  1  0  0  0
 18 19  2  0  0  0
 18 20  1  0  0  0
 20 38  1  0  0  0
 20 35  1  0  0  0
 20 21  1  0  0  0
 21 59  1  0  0  0
 21 60  1  0  0  0
 21 61  1  0  0  0
 22 23  1  0  0  0
 22 62  1  0  0  0
 22 63  1  0  0  0
 23 39  1  0  0  0
 23 24  1  0  0  0
 23 25  1  0  0  0
 24 64  1  0  0  0
 24 65  1  0  0  0
 24 66  1  0  0  0
 25 26  1  0  0  0
 25 67  1  0  0  0
 25 68  1  0  0  0
 26 27  1  0  0  0
 26 69  1  0  0  0
 26 70  1  0  0  0
 27 28  1  0  0  0
 27 71  1  0  0  0
 27 72  1  0  0  0
 28 29  1  0  0  0
 28 73  1  0  0  0
 28 74  1  0  0  0
 29 30  1  0  0  0
 29 75  1  0  0  0
 29 76  1  0  0  0
 30 31  1  0  0  0
 30 77  1  0  0  0
 30 78  1  0  0  0
 31 32  1  0  0  0
 31 79  1  0  0  0
 31 80  1  0  0  0
 32 33  1  0  0  0
 32 81  1  0  0  0
 32 82  1  0  0  0
 33 34  2  0  0  0
 33 35  1  0  0  0
 35 36  1  0  0  0
 36 83  1  0  0  0
 36 84  1  0  0  0
 36 85  1  0  0  0
M  END
> <i_f3d_flags>
0

> <chiral flag>
1

> <version>
0

> <s_i_glide_gridfile>
base1a_gride_6

> <i_i_glide_lignum>
5

> <i_i_glide_rotatable_bonds>
8

> <r_i_docking_score>
-1.45667977940423

> <r_i_glide_ligand_efficiency>
-0.0404633272056732

> <r_i_glide_ligand_efficiency_sa>
-0.133606962521757

> <r_i_glide_ligand_efficiency_ln>
-0.317808172926388

> <r_glide_XP_GScore>
-3.66477977940423

> <r_i_glide_gscore>
-3.66477977940423

> <r_i_glide_evdw>
-30.1041774749756

> <r_i_glide_ecoul>
-8.64245700836182

> <r_i_glide_energy>
-38.7466344833374

> <r_i_glide_einternal>
8.49465084075928

> <r_i_glide_emodel>
-41.1334589868347

> <r_glide_XP_HBond>
-1.71836638430302

> <i_i_glide_confnum>
1

> <i_i_glide_posenum>
3

> <r_i_glide_eff_state_penalty>
2.2081

> <i_glide_XP_PoseRank>
1

> <s_m_source_file>
glide-dock_pose_2-0003_raw.maegz

> <i_m_source_file_index>
1

> <i_lp_mmshare_version>
42013

> <s_epik_input>
W0NIM11bQ0hdKFtDSDNdKWMxW2NIXVtjSF1bY0hdYyhbY0hdMSlbQ0gyXVtOSF1bQ0gyXUMoW09IXSkoW09IXSlbQ0BIXTJbTkhdQyg9TylbQ0BIXShbQ0gzXSlOKFtDSDNdKUMoPU8pW0NIMl1bQ0gyXVtDSDJdW0NIMl1bQ0gyXVtDSDJdW0NIMl1bQ0gyXVtDQEhdKFtDSDJdMilbQ0gzXQ==

> <s_epik_cmdline>
J2VwaWtfcHl0aG9uJywgJy1waCcsICc3LjAnLCAnLXRuJywgJzgnLCAnLW1hJywgJzIwMCcsICctaW1hZScsICc8aW5maWxlLm1hZT4nLCAnLW9tYWUnLCAnPG91dGZpbGUubWFlPic=

> <r_epik_Ionization_Penalty>
2.07396

> <r_epik_Ionization_Penalty_Charging>
0

> <r_epik_Ionization_Penalty_Neutral>
2.07396

> <r_epik_State_Penalty>
2.20813

> <r_epik_Charging_Adjusted_Penalty>
2.20813

> <i_epik_Tot_Q>
0

> <i_epik_Tot_abs_Q>
0

> <i_f3d_flags>
0

> <s_lp_Force_Field>
OPLS_2005

> <r_lp_Energy>
49.075

> <b_lp_Chiralities_Consistent>
1

> <s_lp_Variant>
BACE_3.smi:1-2

$$$$
BACE_4.smi:1
                    3D
 Structure written by MMmdl.
 89 91  0  0  1  0            999 V2000
   -2.5684    3.6355    2.1843 C   0  0  0  0  0  0
   -1.0458    3.6391    1.9463 C   0  0  2  0  0  0
   -0.5970    4.4738    0.7224 C   0  0  0  0  0  0
   -1.2044    5.8892    0.6392 C   0  0  0  0  0  0
   -2.3584    5.9635   -0.3767 C   0  0  0  0  0  0
   -3.2484    7.2107   -0.2466 C   0  0  0  0  0  0
   -4.3042    7.1389    0.8757 C   0  0  0  0  0  0
   -5.5359    6.2726    0.5485 C   0  0  0  0  0  0
   -5.2137    4.8928    0.6077 O   0  0  0  0  0  0
   -6.3140    4.0421    0.3211 C   0  0  0  0  0  0
   -5.8526    2.5833    0.4615 C   0  0  0  0  0  0
   -6.2313    1.9601    1.4537 O   0  0  0  0  0  0
   -5.0193    2.0488   -0.4692 N   0  0  0  0  0  0
   -4.4157    0.7071   -0.2895 C   0  0  2  0  0  0
   -2.8835    0.7203   -0.4326 C   0  0  0  0  0  0
   -2.3471    0.4846   -1.5156 O   0  0  0  0  0  0
   -2.1971    1.0237    0.6810 N   0  0  0  0  0  0
   -0.7587    1.2607    0.7774 C   0  0  1  0  0  0
   -0.4227    2.2172    1.9592 C   0  0  0  0  0  0
    0.0145   -0.0842    0.8120 C   0  0  1  0  0  0
    1.5145    0.1098    0.5266 C   0  0  0  0  0  0
    2.1562   -1.1447    0.1352 N   0  0  0  0  0  0
    3.5429   -1.0005   -0.3063 C   0  0  0  0  0  0
    3.8001   -0.4331   -1.6851 C   0  0  0  0  0  0
    4.0052   -1.9081   -1.4227 C   0  0  0  0  0  0
    4.4781   -0.7039    0.8303 C   0  0  0  0  0  0
    4.9830   -1.7447    1.6340 C   0  0  0  0  0  0
    5.8440   -1.4557    2.7075 C   0  0  0  0  0  0
    6.2009   -0.1240    2.9916 C   0  0  0  0  0  0
    5.7015    0.9414    2.2025 C   0  0  0  0  0  0
    4.8438    0.6270    1.1222 C   0  0  0  0  0  0
    6.0518    2.4147    2.4844 C   0  0  0  0  0  0
    6.7490    3.0269    1.2517 C   0  0  0  0  0  0
    6.9984    2.5893    3.6931 C   0  0  0  0  0  0
    4.7598    3.2035    2.7843 C   0  0  0  0  0  0
   -0.1175   -0.6776    2.0898 O   0  0  0  0  0  0
   -5.1349   -0.3321   -1.1688 C   0  0  0  0  0  0
   -4.7253    2.7594   -1.7229 C   0  0  0  0  0  0
   -0.6274    4.1414    2.8198 H   0  0  0  0  0  0
   -4.5779    0.3621    0.7333 H   0  0  0  0  0  0
   -0.4647    1.7621   -0.1448 H   0  0  0  0  0  0
   -0.4013   -0.7635    0.0662 H   0  0  0  0  0  0
   -3.1165    3.3635    1.2860 H   0  0  0  0  0  0
   -2.9287    4.6157    2.4938 H   0  0  0  0  0  0
   -2.8455    2.9348    2.9722 H   0  0  0  0  0  0
    0.4892    4.5655    0.7596 H   0  0  0  0  0  0
   -0.8090    3.9435   -0.2054 H   0  0  0  0  0  0
   -1.5228    6.2243    1.6262 H   0  0  0  0  0  0
   -0.4325    6.5950    0.3306 H   0  0  0  0  0  0
   -1.9292    5.9393   -1.3788 H   0  0  0  0  0  0
   -2.9687    5.0695   -0.3069 H   0  0  0  0  0  0
   -2.6111    8.0821   -0.0919 H   0  0  0  0  0  0
   -3.7586    7.3865   -1.1943 H   0  0  0  0  0  0
   -3.8523    6.8158    1.8135 H   0  0  0  0  0  0
   -4.6587    8.1543    1.0556 H   0  0  0  0  0  0
   -6.3233    6.4822    1.2742 H   0  0  0  0  0  0
   -5.9301    6.5294   -0.4359 H   0  0  0  0  0  0
   -7.1181    4.2323    1.0339 H   0  0  0  0  0  0
   -6.7209    4.2379   -0.6711 H   0  0  0  0  0  0
   -2.7312    1.1881    1.5221 H   0  0  0  0  0  0
    0.6597    2.3379    2.0070 H   0  0  0  0  0  0
   -0.6964    1.7383    2.9000 H   0  0  0  0  0  0
    1.6264    0.8265   -0.2876 H   0  0  0  0  0  0
    2.0152    0.5471    1.3908 H   0  0  0  0  0  0
    1.6097   -1.6190   -0.5762 H   0  0  0  0  0  0
    2.9433   -0.1608   -2.2984 H   0  0  0  0  0  0
    4.6900    0.1762   -1.8302 H   0  0  0  0  0  0
    5.0315   -2.2697   -1.3967 H   0  0  0  0  0  0
    3.2821   -2.5889   -1.8678 H   0  0  0  0  0  0
    4.7075   -2.7687    1.4286 H   0  0  0  0  0  0
    6.2289   -2.2583    3.3190 H   0  0  0  0  0  0
    6.8591    0.0501    3.8282 H   0  0  0  0  0  0
    4.4435    1.4176    0.5055 H   0  0  0  0  0  0
    7.0311    4.0650    1.4303 H   0  0  0  0  0  0
    6.1083    3.0190    0.3701 H   0  0  0  0  0  0
    7.6583    2.4792    1.0013 H   0  0  0  0  0  0
    7.9501    2.0798    3.5371 H   0  0  0  0  0  0
    6.5543    2.2051    4.6120 H   0  0  0  0  0  0
    7.2262    3.6415    3.8668 H   0  0  0  0  0  0
    4.9761    4.2486    3.0073 H   0  0  0  0  0  0
    4.2360    2.7871    3.6456 H   0  0  0  0  0  0
    4.0660    3.1941    1.9434 H   0  0  0  0  0  0
   -1.0339   -0.8443    2.2484 H   0  0  0  0  0  0
   -4.7156   -1.3281   -1.0217 H   0  0  0  0  0  0
   -5.0529   -0.0941   -2.2297 H   0  0  0  0  0  0
   -6.1958   -0.3848   -0.9222 H   0  0  0  0  0  0
   -4.1485    3.6633   -1.5406 H   0  0  0  0  0  0
   -5.6449    3.0359   -2.2392 H   0  0  0  0  0  0
   -4.1601    2.1524   -2.4287 H   0  0  0  0  0  0
  1  2  1  0  0  0
  1 43  1  0  0  0
  1 44  1  0  0  0
  1 45  1  0  0  0
  2 39  1  0  0  0
  2 19  1  0  0  0
  2  3  1  0  0  0
  3  4  1  0  0  0
  3 46  1  0  0  0
  3 47  1  0  0  0
  4  5  1  0  0  0
  4 48  1  0  0  0
  4 49  1  0  0  0
  5  6  1  0  0  0
  5 50  1  0  0  0
  5 51  1  0  0  0
  6  7  1  0  0  0
  6 52  1  0  0  0
  6 53  1  0  0  0
  7  8  1  0  0  0
  7 54  1  0  0  0
  7 55  1  0  0  0
  8  9  1  0  0  0
  8 56  1  0  0  0
  8 57  1  0  0  0
  9 10  1  0  0  0
 10 11  1  0  0  0
 10 58  1  0  0  0
 10 59  1  0  0  0
 11 12  2  0  0  0
 11 13  1  0  0  0
 13 14  1  0  0  0
 13 38  1  0  0  0
 14 40  1  0  0  0
 14 15  1  0  0  0
 14 37  1  0  0  0
 15 16  2  0  0  0
 15 17  1  0  0  0
 17 18  1  0  0  0
 17 60  1  0  0  0
 18 41  1  0  0  0
 18 19  1  0  0  0
 18 20  1  0  0  0
 19 61  1  0  0  0
 19 62  1  0  0  0
 20 42  1  0  0  0
 20 21  1  0  0  0
 20 36  1  0  0  0
 21 22  1  0  0  0
 21 63  1  0  0  0
 21 64  1  0  0  0
 22 23  1  0  0  0
 22 65  1  0  0  0
 23 25  1  0  0  0
 23 24  1  0  0  0
 23 26  1  0  0  0
 24 25  1  0  0  0
 24 66  1  0  0  0
 24 67  1  0  0  0
 25 68  1  0  0  0
 25 69  1  0  0  0
 26 31  1  0  0  0
 26 27  2  0  0  0
 27 28  1  0  0  0
 27 70  1  0  0  0
 28 29  2  0  0  0
 28 71  1  0  0  0
 29 30  1  0  0  0
 29 72  1  0  0  0
 30 31  2  0  0  0
 30 32  1  0  0  0
 31 73  1  0  0  0
 32 33  1  0  0  0
 32 34  1  0  0  0
 32 35  1  0  0  0
 33 74  1  0  0  0
 33 75  1  0  0  0
 33 76  1  0  0  0
 34 77  1  0  0  0
 34 78  1  0  0  0
 34 79  1  0  0  0
 35 80  1  0  0  0
 35 81  1  0  0  0
 35 82  1  0  0  0
 36 83  1  0  0  0
 37 84  1  0  0  0
 37 85  1  0  0  0
 37 86  1  0  0  0
 38 87  1  0  0  0
 38 88  1  0  0  0
 38 89  1  0  0  0
M  END
> <i_f3d_flags>
0

> <chiral flag>
1

> <version>
0

> <s_i_glide_gridfile>
base1a_gride_6

> <i_i_glide_lignum>
6

> <i_i_glide_rotatable_bonds>
7

> <r_i_docking_score>
-1.78620209698899

> <r_i_glide_ligand_efficiency>
-0.0470053183418156

> <r_i_glide_ligand_efficiency_sa>
-0.158030724062324

> <r_i_glide_ligand_efficiency_ln>
-0.385157716852937

> <r_glide_XP_GScore>
-2.12030209698899

> <r_i_glide_gscore>
-2.12030209698899

> <r_i_glide_evdw>
-28.9800872802734

> <r_i_glide_ecoul>
-8.6893482208252

> <r_i_glide_energy>
-37.6694355010986

> <r_i_glide_einternal>
10.8864498138428

> <r_i_glide_emodel>
-40.6133878846849

> <r_glide_XP_HBond>
-1.18288759296457

> <i_i_glide_confnum>
1

> <i_i_glide_posenum>
2

> <r_i_glide_eff_state_penalty>
0.3341

> <i_glide_XP_PoseRank>
1

> <s_m_source_file>
glide-dock_pose_2-0003_raw.maegz

> <i_m_source_file_index>
2

> <i_lp_mmshare_version>
42013

> <s_epik_input>
W0NIM11bQ0BASF0xW0NIMl1bQ0gyXVtDSDJdW0NIMl1bQ0gyXVtDSDJdT1tDSDJdQyg9TylOKFtDSDNdKVtDQEBIXShbQ0gzXSlDKD1PKVtOSF1bQ0BASF0oW0NIMl0xKVtDQEhdKFtPSF0pW0NIMl1bTkhdQzIoW0NIMl1bQ0gyXTIpYzNbY0hdW2NIXVtjSF1jKFtjSF0zKUMoW0NIM10pKFtDSDNdKVtDSDNd

> <s_epik_cmdline>
J2VwaWtfcHl0aG9uJywgJy1waCcsICc3LjAnLCAnLXRuJywgJzgnLCAnLW1hJywgJzIwMCcsICctaW1hZScsICc8aW5maWxlLm1hZT4nLCAnLW9tYWUnLCAnPG91dGZpbGUubWFlPic=

> <r_epik_Ionization_Penalty>
0.338543

> <r_epik_Ionization_Penalty_Charging>
0

> <r_epik_Ionization_Penalty_Neutral>
0.338543

> <r_epik_State_Penalty>
0.334061

> <r_epik_Charging_Adjusted_Penalty>
0.334061

> <i_epik_Tot_Q>
0

> <i_epik_Tot_abs_Q>
0

> <i_f3d_flags>
0

> <s_lp_Force_Field>
OPLS_2005

> <r_lp_Energy>
57.6864

> <b_lp_Chiralities_Consistent>
1

> <s_lp_Variant>
BACE_4.smi:1-1

$$$$
BACE_4.smi:1
                    3D
 Structure written by MMmdl.
 90 92  0  0  1  0            999 V2000
   -2.5945    3.6432    2.2114 C   0  0  0  0  0  0
   -1.0645    3.6321    2.0225 C   0  0  2  0  0  0
   -0.5658    4.5100    0.8490 C   0  0  0  0  0  0
   -1.1433    5.9401    0.8138 C   0  0  0  0  0  0
   -2.2624    6.0864   -0.2333 C   0  0  0  0  0  0
   -3.1420    7.3365   -0.0626 C   0  0  0  0  0  0
   -4.2440    7.2120    1.0098 C   0  0  0  0  0  0
   -5.4695    6.3802    0.5838 C   0  0  0  0  0  0
   -5.1640    4.9951    0.5782 O   0  0  0  0  0  0
   -6.2564    4.1765    0.1869 C   0  0  0  0  0  0
   -5.8202    2.7060    0.2746 C   0  0  0  0  0  0
   -6.2572    2.0380    1.2122 O   0  0  0  0  0  0
   -4.9453    2.2085   -0.6384 N   0  0  0  0  0  0
   -4.3703    0.8500   -0.5001 C   0  0  2  0  0  0
   -2.8329    0.8423   -0.5694 C   0  0  0  0  0  0
   -2.2465    0.6125   -1.6275 O   0  0  0  0  0  0
   -2.1973    1.1165    0.5811 N   0  0  0  0  0  0
   -0.7596    1.3043    0.7603 C   0  0  1  0  0  0
   -0.4621    2.2010    1.9979 C   0  0  0  0  0  0
   -0.0364   -0.0694    0.7792 C   0  0  1  0  0  0
    1.4844    0.0549    0.5767 C   0  0  0  0  0  0
    2.1016   -1.2683    0.3468 N   0  3  0  0  0  0
    3.5522   -1.2404    0.0611 C   0  0  0  0  0  0
    3.8818   -1.0214   -1.3978 C   0  0  0  0  0  0
    3.9973   -2.4048   -0.7917 C   0  0  0  0  0  0
    4.4022   -0.7201    1.1827 C   0  0  0  0  0  0
    4.8474    0.6169    1.1815 C   0  0  0  0  0  0
    5.6349    1.1011    2.2399 C   0  0  0  0  0  0
    5.9811    0.2513    3.3061 C   0  0  0  0  0  0
    5.5461   -1.0947    3.3346 C   0  0  0  0  0  0
    4.7549   -1.5651    2.2563 C   0  0  0  0  0  0
    5.9423   -1.9938    4.5220 C   0  0  0  0  0  0
    5.3666   -3.4241    4.4151 C   0  0  0  0  0  0
    5.4203   -1.3791    5.8377 C   0  0  0  0  0  0
    7.4789   -2.1119    4.5914 C   0  0  0  0  0  0
   -0.2645   -0.7235    2.0133 O   0  0  0  0  0  0
   -5.0656   -0.1325   -1.4602 C   0  0  0  0  0  0
   -4.5805    2.9756   -1.8386 C   0  0  0  0  0  0
   -0.6681    4.0917    2.9290 H   0  0  0  0  0  0
   -4.5844    0.4584    0.4961 H   0  0  0  0  0  0
   -0.4009    1.8325   -0.1236 H   0  0  0  0  0  0
   -0.4343   -0.6997   -0.0175 H   0  0  0  0  0  0
   -3.1177    3.4187    1.2854 H   0  0  0  0  0  0
   -2.9498    4.6158    2.5490 H   0  0  0  0  0  0
   -2.9082    2.9159    2.9605 H   0  0  0  0  0  0
    0.5205    4.5781    0.9185 H   0  0  0  0  0  0
   -0.7634    4.0245   -0.1063 H   0  0  0  0  0  0
   -1.4868    6.2362    1.8048 H   0  0  0  0  0  0
   -0.3489    6.6443    0.5637 H   0  0  0  0  0  0
   -1.8013    6.1112   -1.2212 H   0  0  0  0  0  0
   -2.8850    5.1984   -0.2322 H   0  0  0  0  0  0
   -2.5014    8.1875    0.1723 H   0  0  0  0  0  0
   -3.6102    7.5779   -1.0175 H   0  0  0  0  0  0
   -3.8338    6.8317    1.9451 H   0  0  0  0  0  0
   -4.5968    8.2193    1.2330 H   0  0  0  0  0  0
   -6.2842    6.5574    1.2875 H   0  0  0  0  0  0
   -5.8199    6.6968   -0.3997 H   0  0  0  0  0  0
   -7.0974    4.3401    0.8632 H   0  0  0  0  0  0
   -6.6044    4.4299   -0.8145 H   0  0  0  0  0  0
   -2.7719    1.2859    1.3944 H   0  0  0  0  0  0
    0.6183    2.3034    2.0984 H   0  0  0  0  0  0
   -0.7837    1.6853    2.9034 H   0  0  0  0  0  0
    1.6913    0.6821   -0.2913 H   0  0  0  0  0  0
    1.9483    0.5363    1.4378 H   0  0  0  0  0  0
    1.9461   -1.8353    1.1683 H   0  0  0  0  0  0
    3.0639   -0.8591   -2.0974 H   0  0  0  0  0  0
    4.8114   -0.5105   -1.6418 H   0  0  0  0  0  0
    5.0032   -2.7928   -0.6424 H   0  0  0  0  0  0
    3.2558   -3.1393   -1.1008 H   0  0  0  0  0  0
    4.5825    1.2764    0.3680 H   0  0  0  0  0  0
    5.9738    2.1265    2.2353 H   0  0  0  0  0  0
    6.5876    0.6473    4.1070 H   0  0  0  0  0  0
    4.3979   -2.5825    2.2279 H   0  0  0  0  0  0
    5.6609   -4.0327    5.2711 H   0  0  0  0  0  0
    5.7259   -3.9385    3.5230 H   0  0  0  0  0  0
    4.2762   -3.4195    4.3891 H   0  0  0  0  0  0
    4.3359   -1.2652    5.8175 H   0  0  0  0  0  0
    5.8500   -0.3964    6.0330 H   0  0  0  0  0  0
    5.6667   -2.0081    6.6939 H   0  0  0  0  0  0
    7.7903   -2.7563    5.4145 H   0  0  0  0  0  0
    7.9592   -1.1454    4.7448 H   0  0  0  0  0  0
    7.8835   -2.5374    3.6722 H   0  0  0  0  0  0
   -1.1978   -0.8091    2.1394 H   0  0  0  0  0  0
   -4.6719   -1.1426   -1.3429 H   0  0  0  0  0  0
   -4.9314    0.1547   -2.5033 H   0  0  0  0  0  0
   -6.1374   -0.1754   -1.2643 H   0  0  0  0  0  0
   -4.0090    3.8648   -1.5823 H   0  0  0  0  0  0
   -5.4698    3.2847   -2.3885 H   0  0  0  0  0  0
   -3.9819    2.3979   -2.5419 H   0  0  0  0  0  0
    1.6341   -1.7027   -0.4357 H   0  0  0  0  0  0
  1  2  1  0  0  0
  1 43  1  0  0  0
  1 44  1  0  0  0
  1 45  1  0  0  0
  2 39  1  0  0  0
  2 19  1  0  0  0
  2  3  1  0  0  0
  3  4  1  0  0  0
  3 46  1  0  0  0
  3 47  1  0  0  0
  4  5  1  0  0  0
  4 48  1  0  0  0
  4 49  1  0  0  0
  5  6  1  0  0  0
  5 50  1  0  0  0
  5 51  1  0  0  0
  6  7  1  0  0  0
  6 52  1  0  0  0
  6 53  1  0  0  0
  7  8  1  0  0  0
  7 54  1  0  0  0
  7 55  1  0  0  0
  8  9  1  0  0  0
  8 56  1  0  0  0
  8 57  1  0  0  0
  9 10  1  0  0  0
 10 11  1  0  0  0
 10 58  1  0  0  0
 10 59  1  0  0  0
 11 12  2  0  0  0
 11 13  1  0  0  0
 13 14  1  0  0  0
 13 38  1  0  0  0
 14 40  1  0  0  0
 14 15  1  0  0  0
 14 37  1  0  0  0
 15 16  2  0  0  0
 15 17  1  0  0  0
 17 18  1  0  0  0
 17 60  1  0  0  0
 18 41  1  0  0  0
 18 19  1  0  0  0
 18 20  1  0  0  0
 19 61  1  0  0  0
 19 62  1  0  0  0
 20 42  1  0  0  0
 20 21  1  0  0  0
 20 36  1  0  0  0
 21 22  1  0  0  0
 21 63  1  0  0  0
 21 64  1  0  0  0
 22 23  1  0  0  0
 22 65  1  0  0  0
 22 90  1  0  0  0
 23 25  1  0  0  0
 23 24  1  0  0  0
 23 26  1  0  0  0
 24 25  1  0  0  0
 24 66  1  0  0  0
 24 67  1  0  0  0
 25 68  1  0  0  0
 25 69  1  0  0  0
 26 31  1  0  0  0
 26 27  2  0  0  0
 27 28  1  0  0  0
 27 70  1  0  0  0
 28 29  2  0  0  0
 28 71  1  0  0  0
 29 30  1  0  0  0
 29 72  1  0  0  0
 30 31  2  0  0  0
 30 32  1  0  0  0
 31 73  1  0  0  0
 32 33  1  0  0  0
 32 34  1  0  0  0
 32 35  1  0  0  0
 33 74  1  0  0  0
 33 75  1  0  0  0
 33 76  1  0  0  0
 34 77  1  0  0  0
 34 78  1  0  0  0
 34 79  1  0  0  0
 35 80  1  0  0  0
 35 81  1  0  0  0
 35 82  1  0  0  0
 36 83  1  0  0  0
 37 84  1  0  0  0
 37 85  1  0  0  0
 37 86  1  0  0  0
 38 87  1  0  0  0
 38 88  1  0  0  0
 38 89  1  0  0  0
M  CHG  1  22   1
M  END
> <i_f3d_flags>
0

> <chiral flag>
1

> <version>
0

> <s_i_glide_gridfile>
base1a_gride_6

> <i_i_glide_lignum>
6

> <i_i_glide_rotatable_bonds>
7

> <r_i_docking_score>
-1.78620209698899

> <r_i_glide_ligand_efficiency>
-0.0470053183418156

> <r_i_glide_ligand_efficiency_sa>
-0.158030724062324

> <r_i_glide_ligand_efficiency_ln>
-0.385157716852937

> <r_glide_XP_GScore>
-2.12030209698899

> <r_i_glide_gscore>
-2.12030209698899

> <r_i_glide_evdw>
-28.9800872802734

> <r_i_glide_ecoul>
-8.6893482208252

> <r_i_glide_energy>
-37.6694355010986

> <r_i_glide_einternal>
10.8864498138428

> <r_i_glide_emodel>
-40.6133878846849

> <r_glide_XP_HBond>
-1.18288759296457

> <i_i_glide_confnum>
1

> <i_i_glide_posenum>
2

> <r_i_glide_eff_state_penalty>
0.3341

> <i_glide_XP_PoseRank>
1

> <s_m_source_file>
glide-dock_pose_2-0003_raw.maegz

> <i_m_source_file_index>
2

> <i_lp_mmshare_version>
42013

> <s_epik_input>
W0NIM11bQ0BASF0xW0NIMl1bQ0gyXVtDSDJdW0NIMl1bQ0gyXVtDSDJdT1tDSDJdQyg9TylOKFtDSDNdKVtDQEBIXShbQ0gzXSlDKD1PKVtOSF1bQ0BASF0oW0NIMl0xKVtDQEhdKFtPSF0pW0NIMl1bTkhdQzIoW0NIMl1bQ0gyXTIpYzNbY0hdW2NIXVtjSF1jKFtjSF0zKUMoW0NIM10pKFtDSDNdKVtDSDNd

> <s_epik_cmdline>
J2VwaWtfcHl0aG9uJywgJy1waCcsICc3LjAnLCAnLXRuJywgJzgnLCAnLW1hJywgJzIwMCcsICctaW1hZScsICc8aW5maWxlLm1hZT4nLCAnLW9tYWUnLCAnPG91dGZpbGUubWFlPic=

> <r_epik_Ionization_Penalty>
0.492833

> <r_epik_Ionization_Penalty_Charging>
0.492833

> <r_epik_Ionization_Penalty_Neutral>
2.58841e-07

> <r_epik_State_Penalty>
0.4987

> <r_epik_Charging_Adjusted_Penalty>
0.991533

> <i_epik_Tot_Q>
1

> <i_epik_Tot_abs_Q>
1

> <i_f3d_flags>
0

> <s_lp_Force_Field>
OPLS_2005

> <r_lp_Energy>
51.5247

> <b_lp_Chiralities_Consistent>
1

> <s_lp_Variant>
BACE_4.smi:1-2

$$$$
