BACE_9.smi:1
                    3D
 Structure written by MMmdl.
 88 90  0  0  1  0            999 V2000
   -0.8895    3.0870   -4.3290 C   0  0  0  0  0  0
   -1.6735    2.7876   -3.0408 C   0  0  2  0  0  0
   -3.0353    3.5183   -3.0770 C   0  0  0  0  0  0
   -3.9886    3.1501   -1.9302 C   0  0  0  0  0  0
   -5.4009    3.7308   -2.1125 C   0  0  0  0  0  0
   -6.3283    3.4321   -0.9232 C   0  0  0  0  0  0
   -6.8348    1.9765   -0.8801 C   0  0  0  0  0  0
   -7.4951    1.5864    0.4568 C   0  0  0  0  0  0
   -6.5189    0.9674    1.4734 C   0  0  0  0  0  0
   -5.5112    1.9187    1.9177 N   0  0  0  0  0  0
   -4.2440    1.4251    2.2507 C   0  0  0  0  0  0
   -4.0661    0.1806    2.8956 C   0  0  0  0  0  0
   -2.7720   -0.2724    3.2265 C   0  0  0  0  0  0
   -1.6490    0.5107    2.8904 C   0  0  0  0  0  0
   -1.8155    1.7418    2.2234 C   0  0  0  0  0  0
   -3.1156    2.2039    1.9275 C   0  0  0  0  0  0
   -0.6165    2.5691    1.8705 C   0  0  0  0  0  0
    0.1010    3.0177    2.7612 O   0  0  0  0  0  0
   -0.3508    2.7927    0.5694 N   0  0  0  0  0  0
   -0.9446    2.1492   -0.6082 C   0  0  1  0  0  0
   -0.8178    3.1352   -1.7935 C   0  0  0  0  0  0
   -0.2709    0.7759   -0.9176 C   0  0  1  0  0  0
    1.1820    0.6042   -0.4263 C   0  0  0  0  0  0
    1.7959   -0.6140   -0.9897 N   0  3  0  0  0  0
    3.1795   -0.8541   -0.5391 C   0  0  0  0  0  0
    3.7306   -2.1147   -1.1732 C   0  0  0  0  0  0
    3.5785   -3.3580   -0.5255 C   0  0  0  0  0  0
    4.0847   -4.5289   -1.1202 C   0  0  0  0  0  0
    4.7430   -4.4611   -2.3630 C   0  0  0  0  0  0
    4.9010   -3.2208   -3.0198 C   0  0  0  0  0  0
    4.3910   -2.0500   -2.4181 C   0  0  0  0  0  0
    5.6130   -3.1390   -4.3644 C   0  0  0  0  0  0
    4.8571   -3.9158   -5.4538 C   0  0  0  0  0  0
    7.0784   -3.5894   -4.2595 C   0  0  0  0  0  0
   -1.0699   -0.2580   -0.3772 O   0  0  0  0  0  0
   -2.5884   -1.6143    3.9147 C   0  0  0  0  0  0
   -3.4884   -1.8210    4.9944 O   0  0  0  0  0  0
   -3.1924   -1.0363    6.1393 C   0  0  0  0  0  0
   -1.8815    1.7179   -3.0502 H   0  0  0  0  0  0
   -2.0074    1.9917   -0.4450 H   0  0  0  0  0  0
   -0.2762    0.6134   -1.9950 H   0  0  0  0  0  0
   -0.6442    4.1468   -4.4062 H   0  0  0  0  0  0
   -1.4637    2.8132   -5.2147 H   0  0  0  0  0  0
    0.0442    2.5246   -4.3627 H   0  0  0  0  0  0
   -2.8783    4.5977   -3.0877 H   0  0  0  0  0  0
   -3.5304    3.2795   -4.0192 H   0  0  0  0  0  0
   -4.0439    2.0651   -1.8454 H   0  0  0  0  0  0
   -3.5795    3.5191   -0.9901 H   0  0  0  0  0  0
   -5.3200    4.8123   -2.2267 H   0  0  0  0  0  0
   -5.8484    3.3601   -3.0356 H   0  0  0  0  0  0
   -5.8103    3.6953   -0.0022 H   0  0  0  0  0  0
   -7.1931    4.0951   -0.9707 H   0  0  0  0  0  0
   -7.5597    1.8488   -1.6848 H   0  0  0  0  0  0
   -6.0308    1.2740   -1.0977 H   0  0  0  0  0  0
   -8.0186    2.4389    0.8913 H   0  0  0  0  0  0
   -8.2643    0.8417    0.2502 H   0  0  0  0  0  0
   -7.0711    0.6202    2.3471 H   0  0  0  0  0  0
   -6.0444    0.0909    1.0298 H   0  0  0  0  0  0
   -5.5329    2.8202    1.4630 H   0  0  0  0  0  0
   -4.9207   -0.4275    3.1550 H   0  0  0  0  0  0
   -0.6562    0.1597    3.1332 H   0  0  0  0  0  0
   -3.2472    3.1582    1.4372 H   0  0  0  0  0  0
    0.4315    3.4020    0.3785 H   0  0  0  0  0  0
    0.2367    3.1879   -2.0691 H   0  0  0  0  0  0
   -1.0722    4.1452   -1.4676 H   0  0  0  0  0  0
    1.7812    1.4622   -0.7342 H   0  0  0  0  0  0
    1.2214    0.5541    0.6629 H   0  0  0  0  0  0
    1.2296   -1.4066   -0.7218 H   0  0  0  0  0  0
    3.8090   -0.0038   -0.8046 H   0  0  0  0  0  0
    3.2041   -0.9471    0.5476 H   0  0  0  0  0  0
    3.0734   -3.4182    0.4275 H   0  0  0  0  0  0
    3.9676   -5.4810   -0.6235 H   0  0  0  0  0  0
    5.1263   -5.3669   -2.8097 H   0  0  0  0  0  0
    4.5051   -1.0963   -2.9129 H   0  0  0  0  0  0
    5.6238   -2.0918   -4.6699 H   0  0  0  0  0  0
    3.8375   -3.5453   -5.5627 H   0  0  0  0  0  0
    4.8022   -4.9804   -5.2256 H   0  0  0  0  0  0
    5.3494   -3.8118   -6.4210 H   0  0  0  0  0  0
    7.6172   -2.9998   -3.5170 H   0  0  0  0  0  0
    7.5938   -3.4670   -5.2126 H   0  0  0  0  0  0
    7.1594   -4.6388   -3.9746 H   0  0  0  0  0  0
   -1.9504   -0.1650   -0.7094 H   0  0  0  0  0  0
   -2.7682   -2.3940    3.1741 H   0  0  0  0  0  0
   -1.5582   -1.7402    4.2520 H   0  0  0  0  0  0
   -3.9123   -1.2562    6.9275 H   0  0  0  0  0  0
   -3.2512    0.0310    5.9233 H   0  0  0  0  0  0
   -2.1964   -1.2608    6.5231 H   0  0  0  0  0  0
    1.7926   -0.5425   -1.9971 H   0  0  0  0  0  0
  1  2  1  0  0  0
  1 42  1  0  0  0
  1 43  1  0  0  0
  1 44  1  0  0  0
  2 39  1  0  0  0
  2 21  1  0  0  0
  2  3  1  0  0  0
  3  4  1  0  0  0
  3 45  1  0  0  0
  3 46  1  0  0  0
  4  5  1  0  0  0
  4 47  1  0  0  0
  4 48  1  0  0  0
  5  6  1  0  0  0
  5 49  1  0  0  0
  5 50  1  0  0  0
  6  7  1  0  0  0
  6 51  1  0  0  0
  6 52  1  0  0  0
  7  8  1  0  0  0
  7 53  1  0  0  0
  7 54  1  0  0  0
  8  9  1  0  0  0
  8 55  1  0  0  0
  8 56  1  0  0  0
  9 10  1  0  0  0
  9 57  1  0  0  0
  9 58  1  0  0  0
 10 11  1  0  0  0
 10 59  1  0  0  0
 11 16  1  0  0  0
 11 12  2  0  0  0
 12 13  1  0  0  0
 12 60  1  0  0  0
 13 14  2  0  0  0
 13 36  1  0  0  0
 14 15  1  0  0  0
 14 61  1  0  0  0
 15 16  2  0  0  0
 15 17  1  0  0  0
 16 62  1  0  0  0
 17 18  2  0  0  0
 17 19  1  0  0  0
 19 20  1  0  0  0
 19 63  1  0  0  0
 20 40  1  0  0  0
 20 21  1  0  0  0
 20 22  1  0  0  0
 21 64  1  0  0  0
 21 65  1  0  0  0
 22 41  1  0  0  0
 22 23  1  0  0  0
 22 35  1  0  0  0
 23 24  1  0  0  0
 23 66  1  0  0  0
 23 67  1  0  0  0
 24 25  1  0  0  0
 24 68  1  0  0  0
 24 88  1  0  0  0
 25 26  1  0  0  0
 25 69  1  0  0  0
 25 70  1  0  0  0
 26 31  1  0  0  0
 26 27  2  0  0  0
 27 28  1  0  0  0
 27 71  1  0  0  0
 28 29  2  0  0  0
 28 72  1  0  0  0
 29 30  1  0  0  0
 29 73  1  0  0  0
 30 31  2  0  0  0
 30 32  1  0  0  0
 31 74  1  0  0  0
 32 33  1  0  0  0
 32 34  1  0  0  0
 32 75  1  0  0  0
 33 76  1  0  0  0
 33 77  1  0  0  0
 33 78  1  0  0  0
 34 79  1  0  0  0
 34 80  1  0  0  0
 34 81  1  0  0  0
 35 82  1  0  0  0
 36 37  1  0  0  0
 36 83  1  0  0  0
 36 84  1  0  0  0
 37 38  1  0  0  0
 38 85  1  0  0  0
 38 86  1  0  0  0
 38 87  1  0  0  0
M  CHG  1  24   1
M  END
> <i_f3d_flags>
0

> <chiral flag>
1

> <version>
0

> <s_i_glide_gridfile>
base1a_gride_6

> <i_i_glide_lignum>
19

> <i_i_glide_rotatable_bonds>
9

> <r_i_docking_score>
-0.734684304803695

> <r_i_glide_ligand_efficiency>
-0.0193337974948341

> <r_i_glide_ligand_efficiency_sa>
-0.0649997516188495

> <r_i_glide_ligand_efficiency_ln>
-0.158419548338276

> <r_glide_XP_GScore>
-3.0022843048037

> <r_i_glide_gscore>
-3.0022843048037

> <r_i_glide_evdw>
-28.6171360015869

> <r_i_glide_ecoul>
-11.3386363983154

> <r_i_glide_energy>
-39.9557723999023

> <r_i_glide_einternal>
3.01509165763855

> <r_i_glide_emodel>
-49.3453931588586

> <r_glide_XP_HBond>
-1.41674705000713

> <i_i_glide_confnum>
1

> <i_i_glide_posenum>
1

> <r_i_glide_eff_state_penalty>
2.2676

> <i_glide_XP_PoseRank>
1

> <s_m_source_file>
glide-dock_pose_2-0010_raw.maegz

> <i_m_source_file_index>
1

> <i_lp_mmshare_version>
42013

> <s_epik_input>
W05IXTFbQ0gyXVtDSDJdW0NIMl1bQ0gyXVtDSDJdW0NIMl1bQ0gyXVtDQEBIXShbQ0gzXSlbQ0gyXVtDQEhdKFtOSF1DKD1PKWMoW2NIXTIpW2NIXWMoW2NIXWMxMilbQ0gyXU9bQ0gzXSlbQ0BIXShbT0hdKVtDSDJdW05IXVtDSDJdYzNbY0hdW2NIXVtjSF1jKFtjSF0zKVtDSF0oW0NIM10pW0NIM10=

> <s_epik_cmdline>
J2VwaWtfcHl0aG9uJywgJy1waCcsICc3LjAnLCAnLXRuJywgJzgnLCAnLW1hJywgJzIwMCcsICctaW1hZScsICc8aW5maWxlLm1hZT4nLCAnLW9tYWUnLCAnPG91dGZpbGUubWFlPic=

> <r_epik_Ionization_Penalty>
0.0170656

> <r_epik_Ionization_Penalty_Charging>
0.0165153

> <r_epik_Ionization_Penalty_Neutral>
0.000550372

> <r_epik_State_Penalty>
0.0130399

> <r_epik_Charging_Adjusted_Penalty>
0.0295552

> <i_epik_Tot_Q>
1

> <i_epik_Tot_abs_Q>
1

> <i_f3d_flags>
0

> <s_lp_Force_Field>
OPLS_2005

> <r_lp_Energy>
38.0252

> <b_lp_Chiralities_Consistent>
1

> <s_lp_Variant>
BACE_9.smi:1-1

$$$$
BACE_9.smi:1
                    3D
 Structure written by MMmdl.
 87 89  0  0  1  0            999 V2000
    0.1463    1.3653   -3.9594 C   0  0  0  0  0  0
   -0.8620    1.4895   -2.8054 C   0  0  2  0  0  0
   -2.0958    2.2923   -3.2749 C   0  0  0  0  0  0
   -3.2515    2.3345   -2.2640 C   0  0  0  0  0  0
   -4.5204    2.9881   -2.8370 C   0  0  0  0  0  0
   -5.6456    3.1254   -1.7991 C   0  0  0  0  0  0
   -6.3644    1.7987   -1.4841 C   0  0  0  0  0  0
   -7.2668    1.8622   -0.2365 C   0  0  0  0  0  0
   -6.5547    1.4489    1.0638 C   0  0  0  0  0  0
   -5.4912    2.3738    1.4259 N   0  0  0  0  0  0
   -4.3737    1.8595    2.0946 C   0  0  0  0  0  0
   -4.4805    0.8330    3.0600 C   0  0  0  0  0  0
   -3.3309    0.3580    3.7246 C   0  0  0  0  0  0
   -2.0666    0.8956    3.4068 C   0  0  0  0  0  0
   -1.9479    1.9040    2.4287 C   0  0  0  0  0  0
   -3.1065    2.3948    1.7905 C   0  0  0  0  0  0
   -0.6026    2.4842    2.1127 C   0  0  0  0  0  0
    0.0231    3.0831    2.9842 O   0  0  0  0  0  0
   -0.1117    2.3336    0.8684 N   0  0  0  0  0  0
   -0.5824    1.4474   -0.2027 C   0  0  1  0  0  0
   -0.1774    2.0913   -1.5498 C   0  0  0  0  0  0
    0.0056    0.0114   -0.0468 C   0  0  1  0  0  0
    1.3924   -0.0662    0.6267 C   0  0  0  0  0  0
    2.0715   -1.3191    0.3121 N   0  0  0  0  0  0
    3.3780   -1.4321    0.9538 C   0  0  0  0  0  0
    4.1262   -2.6886    0.5495 C   0  0  0  0  0  0
    4.3613   -2.9716   -0.8125 C   0  0  0  0  0  0
    5.0701   -4.1304   -1.1813 C   0  0  0  0  0  0
    5.5522   -5.0073   -0.1911 C   0  0  0  0  0  0
    5.3280   -4.7311    1.1758 C   0  0  0  0  0  0
    4.6125   -3.5693    1.5387 C   0  0  0  0  0  0
    5.8558   -5.6695    2.2538 C   0  0  0  0  0  0
    7.3917   -5.7272    2.2499 C   0  0  0  0  0  0
    5.2354   -7.0708    2.1411 C   0  0  0  0  0  0
   -0.9156   -0.7703    0.6875 O   0  0  0  0  0  0
   -3.4510   -0.7498    4.7576 C   0  0  0  0  0  0
   -2.6334   -0.5464    5.9021 O   0  0  0  0  0  0
   -3.0963    0.4896    6.7548 C   0  0  0  0  0  0
   -1.2008    0.4780   -2.5826 H   0  0  0  0  0  0
   -1.6687    1.3901   -0.1937 H   0  0  0  0  0  0
    0.0741   -0.4537   -1.0300 H   0  0  0  0  0  0
    0.5366    2.3410   -4.2509 H   0  0  0  0  0  0
   -0.3132    0.9139   -4.8391 H   0  0  0  0  0  0
    0.9922    0.7372   -3.6776 H   0  0  0  0  0  0
   -1.7997    3.3101   -3.5324 H   0  0  0  0  0  0
   -2.4685    1.8467   -4.1982 H   0  0  0  0  0  0
   -3.4741    1.3209   -1.9315 H   0  0  0  0  0  0
   -2.9378    2.8918   -1.3817 H   0  0  0  0  0  0
   -4.2641    3.9828   -3.2033 H   0  0  0  0  0  0
   -4.8778    2.4280   -3.7020 H   0  0  0  0  0  0
   -5.2345    3.5750   -0.8966 H   0  0  0  0  0  0
   -6.3852    3.8368   -2.1680 H   0  0  0  0  0  0
   -6.9720    1.5317   -2.3494 H   0  0  0  0  0  0
   -5.6504    0.9839   -1.3663 H   0  0  0  0  0  0
   -7.7156    2.8513   -0.1360 H   0  0  0  0  0  0
   -8.0995    1.1739   -0.3845 H   0  0  0  0  0  0
   -7.2752    1.4172    1.8816 H   0  0  0  0  0  0
   -6.1576    0.4389    0.9518 H   0  0  0  0  0  0
   -5.3054    3.1053    0.7547 H   0  0  0  0  0  0
   -5.4458    0.4159    3.3071 H   0  0  0  0  0  0
   -1.1848    0.5259    3.9107 H   0  0  0  0  0  0
   -3.0208    3.1842    1.0572 H   0  0  0  0  0  0
    0.7697    2.7912    0.6867 H   0  0  0  0  0  0
    0.9067    2.0111   -1.6431 H   0  0  0  0  0  0
   -0.3760    3.1641   -1.5246 H   0  0  0  0  0  0
    2.0100    0.7595    0.2711 H   0  0  0  0  0  0
    1.2981    0.0590    1.7066 H   0  0  0  0  0  0
    1.4844   -2.0919    0.6106 H   0  0  0  0  0  0
    3.9995   -0.5757    0.6902 H   0  0  0  0  0  0
    3.2626   -1.4109    2.0382 H   0  0  0  0  0  0
    3.9995   -2.3000   -1.5773 H   0  0  0  0  0  0
    5.2470   -4.3453   -2.2247 H   0  0  0  0  0  0
    6.0978   -5.8915   -0.4860 H   0  0  0  0  0  0
    4.4386   -3.3483    2.5819 H   0  0  0  0  0  0
    5.5544   -5.2653    3.2210 H   0  0  0  0  0  0
    7.8206   -4.7336    2.3843 H   0  0  0  0  0  0
    7.7777   -6.1324    1.3141 H   0  0  0  0  0  0
    7.7622   -6.3568    3.0594 H   0  0  0  0  0  0
    4.1475   -7.0214    2.1939 H   0  0  0  0  0  0
    5.5748   -7.7151    2.9525 H   0  0  0  0  0  0
    5.5018   -7.5560    1.2018 H   0  0  0  0  0  0
   -1.0175   -0.3875    1.5455 H   0  0  0  0  0  0
   -4.4910   -0.8894    5.0573 H   0  0  0  0  0  0
   -3.1386   -1.6803    4.2835 H   0  0  0  0  0  0
   -2.4324    0.5766    7.6148 H   0  0  0  0  0  0
   -4.0992    0.2752    7.1258 H   0  0  0  0  0  0
   -3.1105    1.4544    6.2467 H   0  0  0  0  0  0
  1  2  1  0  0  0
  1 42  1  0  0  0
  1 43  1  0  0  0
  1 44  1  0  0  0
  2 39  1  0  0  0
  2 21  1  0  0  0
  2  3  1  0  0  0
  3  4  1  0  0  0
  3 45  1  0  0  0
  3 46  1  0  0  0
  4  5  1  0  0  0
  4 47  1  0  0  0
  4 48  1  0  0  0
  5  6  1  0  0  0
  5 49  1  0  0  0
  5 50  1  0  0  0
  6  7  1  0  0  0
  6 51  1  0  0  0
  6 52  1  0  0  0
  7  8  1  0  0  0
  7 53  1  0  0  0
  7 54  1  0  0  0
  8  9  1  0  0  0
  8 55  1  0  0  0
  8 56  1  0  0  0
  9 10  1  0  0  0
  9 57  1  0  0  0
  9 58  1  0  0  0
 10 11  1  0  0  0
 10 59  1  0  0  0
 11 16  1  0  0  0
 11 12  2  0  0  0
 12 13  1  0  0  0
 12 60  1  0  0  0
 13 14  2  0  0  0
 13 36  1  0  0  0
 14 15  1  0  0  0
 14 61  1  0  0  0
 15 16  2  0  0  0
 15 17  1  0  0  0
 16 62  1  0  0  0
 17 18  2  0  0  0
 17 19  1  0  0  0
 19 20  1  0  0  0
 19 63  1  0  0  0
 20 40  1  0  0  0
 20 21  1  0  0  0
 20 22  1  0  0  0
 21 64  1  0  0  0
 21 65  1  0  0  0
 22 41  1  0  0  0
 22 23  1  0  0  0
 22 35  1  0  0  0
 23 24  1  0  0  0
 23 66  1  0  0  0
 23 67  1  0  0  0
 24 25  1  0  0  0
 24 68  1  0  0  0
 25 26  1  0  0  0
 25 69  1  0  0  0
 25 70  1  0  0  0
 26 31  1  0  0  0
 26 27  2  0  0  0
 27 28  1  0  0  0
 27 71  1  0  0  0
 28 29  2  0  0  0
 28 72  1  0  0  0
 29 30  1  0  0  0
 29 73  1  0  0  0
 30 31  2  0  0  0
 30 32  1  0  0  0
 31 74  1  0  0  0
 32 33  1  0  0  0
 32 34  1  0  0  0
 32 75  1  0  0  0
 33 76  1  0  0  0
 33 77  1  0  0  0
 33 78  1  0  0  0
 34 79  1  0  0  0
 34 80  1  0  0  0
 34 81  1  0  0  0
 35 82  1  0  0  0
 36 37  1  0  0  0
 36 83  1  0  0  0
 36 84  1  0  0  0
 37 38  1  0  0  0
 38 85  1  0  0  0
 38 86  1  0  0  0
 38 87  1  0  0  0
M  END
> <i_f3d_flags>
0

> <chiral flag>
1

> <version>
0

> <s_i_glide_gridfile>
base1a_gride_6

> <i_i_glide_lignum>
19

> <i_i_glide_rotatable_bonds>
9

> <r_i_docking_score>
-0.734684304803695

> <r_i_glide_ligand_efficiency>
-0.0193337974948341

> <r_i_glide_ligand_efficiency_sa>
-0.0649997516188495

> <r_i_glide_ligand_efficiency_ln>
-0.158419548338276

> <r_glide_XP_GScore>
-3.0022843048037

> <r_i_glide_gscore>
-3.0022843048037

> <r_i_glide_evdw>
-28.6171360015869

> <r_i_glide_ecoul>
-11.3386363983154

> <r_i_glide_energy>
-39.9557723999023

> <r_i_glide_einternal>
3.01509165763855

> <r_i_glide_emodel>
-49.3453931588586

> <r_glide_XP_HBond>
-1.41674705000713

> <i_i_glide_confnum>
1

> <i_i_glide_posenum>
1

> <r_i_glide_eff_state_penalty>
2.2676

> <i_glide_XP_PoseRank>
1

> <s_m_source_file>
glide-dock_pose_2-0010_raw.maegz

> <i_m_source_file_index>
1

> <i_lp_mmshare_version>
42013

> <s_epik_input>
W05IXTFbQ0gyXVtDSDJdW0NIMl1bQ0gyXVtDSDJdW0NIMl1bQ0gyXVtDQEBIXShbQ0gzXSlbQ0gyXVtDQEhdKFtOSF1DKD1PKWMoW2NIXTIpW2NIXWMoW2NIXWMxMilbQ0gyXU9bQ0gzXSlbQ0BIXShbT0hdKVtDSDJdW05IXVtDSDJdYzNbY0hdW2NIXVtjSF1jKFtjSF0zKVtDSF0oW0NIM10pW0NIM10=

> <s_epik_cmdline>
J2VwaWtfcHl0aG9uJywgJy1waCcsICc3LjAnLCAnLXRuJywgJzgnLCAnLW1hJywgJzIwMCcsICctaW1hZScsICc8aW5maWxlLm1hZT4nLCAnLW9tYWUnLCAnPG91dGZpbGUubWFlPic=

> <r_epik_Ionization_Penalty>
2.12998

> <r_epik_Ionization_Penalty_Charging>
0

> <r_epik_Ionization_Penalty_Neutral>
2.12998

> <r_epik_State_Penalty>
2.26762

> <r_epik_Charging_Adjusted_Penalty>
2.26762

> <i_epik_Tot_Q>
0

> <i_epik_Tot_abs_Q>
0

> <i_f3d_flags>
0

> <s_lp_Force_Field>
OPLS_2005

> <r_lp_Energy>
47.2954

> <b_lp_Chiralities_Consistent>
1

> <s_lp_Variant>
BACE_9.smi:1-2

$$$$
BACE_10.smi:1
                    3D
 Structure written by MMmdl.
 86 88  0  0  1  0            999 V2000
   -0.2196    4.6089   -3.2048 C   0  0  0  0  0  0
   -0.5914    3.9276   -1.8741 C   0  0  2  0  0  0
   -0.4799    4.9074   -0.6798 C   0  0  0  0  0  0
   -1.3941    6.1404   -0.7741 C   0  0  0  0  0  0
   -2.7422    5.7107   -0.8945 O   0  0  0  0  0  0
   -3.5582    6.0270    0.2212 C   0  0  0  0  0  0
   -4.9262    5.3561    0.0320 C   0  0  0  0  0  0
   -4.8894    3.8319    0.2343 C   0  0  0  0  0  0
   -4.8948    3.4319    1.7185 C   0  0  0  0  0  0
   -4.8151    1.9891    1.9005 N   0  0  0  0  0  0
   -3.5913    1.3929    2.2384 C   0  0  0  0  0  0
   -3.6190    0.1611    2.9233 C   0  0  0  0  0  0
   -2.4208   -0.4676    3.3237 C   0  0  0  0  0  0
   -1.1838    0.1284    3.0077 C   0  0  0  0  0  0
   -1.1391    1.3410    2.2892 C   0  0  0  0  0  0
   -2.3439    1.9782    1.9219 C   0  0  0  0  0  0
    0.1860    1.9663    1.9722 C   0  0  0  0  0  0
    0.9553    2.2599    2.8841 O   0  0  0  0  0  0
    0.5131    2.1777    0.6835 N   0  0  0  0  0  0
   -0.1588    1.7105   -0.5358 C   0  0  1  0  0  0
    0.2546    2.6415   -1.7038 C   0  0  0  0  0  0
    0.1873    0.2220   -0.8460 C   0  0  1  0  0  0
    1.6089   -0.2267   -0.4520 C   0  0  0  0  0  0
    1.8959   -1.5916   -0.9426 N   0  3  0  0  0  0
    3.2242   -2.1258   -0.5733 C   0  0  0  0  0  0
    3.3834   -2.2654    0.9304 C   0  0  0  0  0  0
    4.2250   -1.3848    1.6413 C   0  0  0  0  0  0
    4.3462   -1.4995    3.0387 C   0  0  0  0  0  0
    3.6248   -2.4910    3.7307 C   0  0  0  0  0  0
    2.7798   -3.3773    3.0288 C   0  0  0  0  0  0
    2.6679   -3.2621    1.6257 C   0  0  0  0  0  0
    1.9871   -4.4348    3.7860 C   0  0  0  0  0  0
    2.3649   -5.8574    3.3443 C   0  0  0  0  0  0
    0.4750   -4.1863    3.6758 C   0  0  0  0  0  0
   -0.7608   -0.6173   -0.2163 O   0  0  0  0  0  0
   -2.4446   -1.7936    4.0619 C   0  0  0  0  0  0
   -3.6612   -2.0140    4.7580 O   0  0  0  0  0  0
   -3.6856   -3.2656    5.4217 C   0  0  0  0  0  0
   -1.6334    3.6153   -1.9559 H   0  0  0  0  0  0
   -1.2409    1.7984   -0.4457 H   0  0  0  0  0  0
    0.0506    0.0398   -1.9123 H   0  0  0  0  0  0
    0.7941    5.0095   -3.1749 H   0  0  0  0  0  0
   -0.8976    5.4270   -3.4453 H   0  0  0  0  0  0
   -0.2736    3.9074   -4.0377 H   0  0  0  0  0  0
   -0.7407    4.3957    0.2442 H   0  0  0  0  0  0
    0.5550    5.2320   -0.5671 H   0  0  0  0  0  0
   -1.2453    6.7824    0.0963 H   0  0  0  0  0  0
   -1.1395    6.7514   -1.6392 H   0  0  0  0  0  0
   -3.0917    5.6973    1.1506 H   0  0  0  0  0  0
   -3.6770    7.1098    0.2795 H   0  0  0  0  0  0
   -5.6503    5.7945    0.7196 H   0  0  0  0  0  0
   -5.2919    5.5817   -0.9704 H   0  0  0  0  0  0
   -5.7641    3.3918   -0.2459 H   0  0  0  0  0  0
   -4.0218    3.4107   -0.2754 H   0  0  0  0  0  0
   -4.0946    3.9316    2.2644 H   0  0  0  0  0  0
   -5.8229    3.7717    2.1790 H   0  0  0  0  0  0
   -5.6556    1.5252    2.2153 H   0  0  0  0  0  0
   -4.5702   -0.2959    3.1553 H   0  0  0  0  0  0
   -0.2648   -0.3569    3.3047 H   0  0  0  0  0  0
   -2.2990    2.9180    1.3914 H   0  0  0  0  0  0
    1.3944    2.6461    0.5308 H   0  0  0  0  0  0
    0.1610    2.0867   -2.6375 H   0  0  0  0  0  0
    1.3139    2.8932   -1.6313 H   0  0  0  0  0  0
    2.3471    0.4576   -0.8723 H   0  0  0  0  0  0
    1.7224   -0.1988    0.6318 H   0  0  0  0  0  0
    3.3483   -3.1056   -1.0355 H   0  0  0  0  0  0
    4.0045   -1.4827   -0.9824 H   0  0  0  0  0  0
    4.7747   -0.6146    1.1201 H   0  0  0  0  0  0
    4.9895   -0.8229    3.5820 H   0  0  0  0  0  0
    3.7214   -2.5641    4.8041 H   0  0  0  0  0  0
    2.0187   -3.9313    1.0801 H   0  0  0  0  0  0
    2.2479   -4.3498    4.8419 H   0  0  0  0  0  0
    3.4324   -6.0370    3.4767 H   0  0  0  0  0  0
    2.1245   -6.0330    2.2956 H   0  0  0  0  0  0
    1.8314   -6.6037    3.9336 H   0  0  0  0  0  0
    0.2215   -3.1911    4.0404 H   0  0  0  0  0  0
   -0.0874   -4.9074    4.2693 H   0  0  0  0  0  0
    0.1258   -4.2621    2.6458 H   0  0  0  0  0  0
   -1.6282   -0.3393   -0.4707 H   0  0  0  0  0  0
   -2.2795   -2.5918    3.3363 H   0  0  0  0  0  0
   -1.6156   -1.8168    4.7713 H   0  0  0  0  0  0
   -4.6310   -3.3810    5.9517 H   0  0  0  0  0  0
   -2.8790   -3.3418    6.1521 H   0  0  0  0  0  0
   -3.5940   -4.0890    4.7120 H   0  0  0  0  0  0
    1.1906   -2.2110   -0.5691 H   0  0  0  0  0  0
    1.8196   -1.5896   -1.9494 H   0  0  0  0  0  0
  1  2  1  0  0  0
  1 42  1  0  0  0
  1 43  1  0  0  0
  1 44  1  0  0  0
  2 39  1  0  0  0
  2 21  1  0  0  0
  2  3  1  0  0  0
  3  4  1  0  0  0
  3 45  1  0  0  0
  3 46  1  0  0  0
  4  5  1  0  0  0
  4 47  1  0  0  0
  4 48  1  0  0  0
  5  6  1  0  0  0
  6  7  1  0  0  0
  6 49  1  0  0  0
  6 50  1  0  0  0
  7  8  1  0  0  0
  7 51  1  0  0  0
  7 52  1  0  0  0
  8  9  1  0  0  0
  8 53  1  0  0  0
  8 54  1  0  0  0
  9 10  1  0  0  0
  9 55  1  0  0  0
  9 56  1  0  0  0
 10 11  1  0  0  0
 10 57  1  0  0  0
 11 16  1  0  0  0
 11 12  2  0  0  0
 12 13  1  0  0  0
 12 58  1  0  0  0
 13 14  2  0  0  0
 13 36  1  0  0  0
 14 15  1  0  0  0
 14 59  1  0  0  0
 15 16  2  0  0  0
 15 17  1  0  0  0
 16 60  1  0  0  0
 17 18  2  0  0  0
 17 19  1  0  0  0
 19 20  1  0  0  0
 19 61  1  0  0  0
 20 40  1  0  0  0
 20 21  1  0  0  0
 20 22  1  0  0  0
 21 62  1  0  0  0
 21 63  1  0  0  0
 22 41  1  0  0  0
 22 23  1  0  0  0
 22 35  1  0  0  0
 23 24  1  0  0  0
 23 64  1  0  0  0
 23 65  1  0  0  0
 24 25  1  0  0  0
 24 85  1  0  0  0
 24 86  1  0  0  0
 25 26  1  0  0  0
 25 66  1  0  0  0
 25 67  1  0  0  0
 26 31  1  0  0  0
 26 27  2  0  0  0
 27 28  1  0  0  0
 27 68  1  0  0  0
 28 29  2  0  0  0
 28 69  1  0  0  0
 29 30  1  0  0  0
 29 70  1  0  0  0
 30 31  2  0  0  0
 30 32  1  0  0  0
 31 71  1  0  0  0
 32 33  1  0  0  0
 32 34  1  0  0  0
 32 72  1  0  0  0
 33 73  1  0  0  0
 33 74  1  0  0  0
 33 75  1  0  0  0
 34 76  1  0  0  0
 34 77  1  0  0  0
 34 78  1  0  0  0
 35 79  1  0  0  0
 36 37  1  0  0  0
 36 80  1  0  0  0
 36 81  1  0  0  0
 37 38  1  0  0  0
 38 82  1  0  0  0
 38 83  1  0  0  0
 38 84  1  0  0  0
M  CHG  1  24   1
M  END
> <i_f3d_flags>
0

> <chiral flag>
1

> <version>
0

> <s_i_glide_gridfile>
base1a_gride_6

> <i_i_glide_lignum>
20

> <i_i_glide_rotatable_bonds>
9

> <r_i_docking_score>
-3.73914408591962

> <r_i_glide_ligand_efficiency>
-0.0983985285768322

> <r_i_glide_ligand_efficiency_sa>
-0.330813432739394

> <r_i_glide_ligand_efficiency_ln>
-0.806269459399161

> <r_glide_XP_GScore>
-3.75234408591962

> <r_i_glide_gscore>
-3.75234408591962

> <r_i_glide_evdw>
-26.1446762084961

> <r_i_glide_ecoul>
-15.0358476638794

> <r_i_glide_energy>
-41.1805238723755

> <r_i_glide_einternal>
7.11491870880127

> <r_i_glide_emodel>
-53.4887494741747

> <r_glide_XP_HBond>
-1.96665295935184

> <i_i_glide_confnum>
1

> <i_i_glide_posenum>
6

> <r_i_glide_eff_state_penalty>
0.0132

> <i_glide_XP_PoseRank>
1

> <s_m_source_file>
glide-dock_pose_2-0010_raw.maegz

> <i_m_source_file_index>
2

> <i_lp_mmshare_version>
42013

> <s_epik_input>
W05IXTFbQ0gyXVtDSDJdW0NIMl1bQ0gyXU9bQ0gyXVtDSDJdW0NAQEhdKFtDSDNdKVtDSDJdW0NASF0oW05IXUMoPU8pYyhbY0hdMilbY0hdYyhbY0hdYzEyKVtDSDJdT1tDSDNdKVtDQEhdKFtPSF0pW0NIMl1bTkhdW0NIMl1jM1tjSF1bY0hdW2NIXWMoW2NIXTMpW0NIXShbQ0gzXSlbQ0gzXQ==

> <s_epik_cmdline>
J2VwaWtfcHl0aG9uJywgJy1waCcsICc3LjAnLCAnLXRuJywgJzgnLCAnLW1hJywgJzIwMCcsICctaW1hZScsICc8aW5maWxlLm1hZT4nLCAnLW9tYWUnLCAnPG91dGZpbGUubWFlPic=

> <r_epik_Ionization_Penalty>
0.0171353

> <r_epik_Ionization_Penalty_Charging>
0.0167304

> <r_epik_Ionization_Penalty_Neutral>
0.000404869

> <r_epik_State_Penalty>
0.0132218

> <r_epik_Charging_Adjusted_Penalty>
0.0299522

> <i_epik_Tot_Q>
1

> <i_epik_Tot_abs_Q>
1

> <i_f3d_flags>
0

> <s_lp_Force_Field>
OPLS_2005

> <r_lp_Energy>
35.6806

> <b_lp_Chiralities_Consistent>
1

> <s_lp_Variant>
BACE_10.smi:1-1

$$$$
BACE_10.smi:1
                    3D
 Structure written by MMmdl.
 85 87  0  0  1  0            999 V2000
   -4.3340    2.7260    0.5356 C   0  0  0  0  0  0
   -2.8618    2.9071    0.1196 C   0  0  2  0  0  0
   -2.7232    4.0079   -0.9599 C   0  0  0  0  0  0
   -3.1689    5.4116   -0.5241 C   0  0  0  0  0  0
   -2.4615    5.7824    0.6472 O   0  0  0  0  0  0
   -2.5082    7.1730    0.9111 C   0  0  0  0  0  0
   -1.8863    7.4725    2.2830 C   0  0  0  0  0  0
   -0.4532    6.9360    2.4484 C   0  0  0  0  0  0
   -0.4095    5.5329    3.0780 C   0  0  0  0  0  0
    0.9503    5.0254    3.1934 N   0  0  0  0  0  0
    1.5888    4.3324    2.1535 C   0  0  0  0  0  0
    2.9235    3.9269    2.3582 C   0  0  0  0  0  0
    3.6292    3.2256    1.3599 C   0  0  0  0  0  0
    2.9810    2.9022    0.1499 C   0  0  0  0  0  0
    1.6402    3.2825   -0.0634 C   0  0  0  0  0  0
    0.9563    4.0202    0.9274 C   0  0  0  0  0  0
    0.9734    2.9395   -1.3623 C   0  0  0  0  0  0
    1.4325    3.3766   -2.4151 O   0  0  0  0  0  0
   -0.1035    2.1292   -1.3488 N   0  0  0  0  0  0
   -0.7228    1.4088   -0.2304 C   0  0  1  0  0  0
   -2.2674    1.5447   -0.3234 C   0  0  0  0  0  0
   -0.2680   -0.0779   -0.2316 C   0  0  1  0  0  0
    1.2618   -0.2813   -0.2095 C   0  0  0  0  0  0
    1.6179   -1.6727   -0.4795 N   0  0  0  0  0  0
    3.0561   -1.9295   -0.4608 C   0  0  0  0  0  0
    3.6448   -1.9092    0.9385 C   0  0  0  0  0  0
    4.6767   -1.0039    1.2590 C   0  0  0  0  0  0
    5.2234   -0.9891    2.5562 C   0  0  0  0  0  0
    4.7401   -1.8757    3.5368 C   0  0  0  0  0  0
    3.7059   -2.7858    3.2267 C   0  0  0  0  0  0
    3.1640   -2.7979    1.9234 C   0  0  0  0  0  0
    3.1760   -3.7491    4.2813 C   0  0  0  0  0  0
    2.5557   -3.0024    5.4726 C   0  0  0  0  0  0
    4.2571   -4.7424    4.7348 C   0  0  0  0  0  0
   -0.7542   -0.6911    0.9477 O   0  0  0  0  0  0
    5.0681    2.8126    1.6164 C   0  0  0  0  0  0
    5.7491    2.4150    0.4363 O   0  0  0  0  0  0
    7.1037    2.0748    0.6744 C   0  0  0  0  0  0
   -2.3195    3.2237    1.0110 H   0  0  0  0  0  0
   -0.4138    1.8324    0.7234 H   0  0  0  0  0  0
   -0.6945   -0.5837   -1.0993 H   0  0  0  0  0  0
   -4.9536    2.4396   -0.3147 H   0  0  0  0  0  0
   -4.7490    3.6392    0.9609 H   0  0  0  0  0  0
   -4.4383    1.9532    1.2977 H   0  0  0  0  0  0
   -1.6865    4.1007   -1.2698 H   0  0  0  0  0  0
   -3.2762    3.7168   -1.8536 H   0  0  0  0  0  0
   -2.9540    6.1108   -1.3341 H   0  0  0  0  0  0
   -4.2429    5.4572   -0.3434 H   0  0  0  0  0  0
   -1.9683    7.7099    0.1297 H   0  0  0  0  0  0
   -3.5408    7.5253    0.8942 H   0  0  0  0  0  0
   -1.8734    8.5549    2.4143 H   0  0  0  0  0  0
   -2.5255    7.0853    3.0772 H   0  0  0  0  0  0
    0.0627    6.9454    1.4872 H   0  0  0  0  0  0
    0.1032    7.6161    3.0943 H   0  0  0  0  0  0
   -0.8251    5.5816    4.0847 H   0  0  0  0  0  0
   -1.0404    4.8286    2.5377 H   0  0  0  0  0  0
    1.4578    5.2093    4.0469 H   0  0  0  0  0  0
    3.4171    4.1608    3.2907 H   0  0  0  0  0  0
    3.5054    2.3512   -0.6176 H   0  0  0  0  0  0
   -0.0589    4.3290    0.7305 H   0  0  0  0  0  0
   -0.5189    1.9448   -2.2504 H   0  0  0  0  0  0
   -2.7082    0.7820    0.3178 H   0  0  0  0  0  0
   -2.6099    1.2940   -1.3283 H   0  0  0  0  0  0
    1.7331    0.3348   -0.9732 H   0  0  0  0  0  0
    1.6709    0.0487    0.7466 H   0  0  0  0  0  0
    3.2501   -2.9176   -0.8787 H   0  0  0  0  0  0
    3.5788   -1.2194   -1.1032 H   0  0  0  0  0  0
    5.0510   -0.3183    0.5129 H   0  0  0  0  0  0
    6.0146   -0.2971    2.8020 H   0  0  0  0  0  0
    5.1678   -1.8537    4.5283 H   0  0  0  0  0  0
    2.3726   -3.4896    1.6734 H   0  0  0  0  0  0
    2.3778   -4.3341    3.8225 H   0  0  0  0  0  0
    1.7546   -2.3398    5.1441 H   0  0  0  0  0  0
    3.2941   -2.3970    5.9986 H   0  0  0  0  0  0
    2.1294   -3.7009    6.1931 H   0  0  0  0  0  0
    4.6524   -5.3044    3.8880 H   0  0  0  0  0  0
    3.8525   -5.4625    5.4465 H   0  0  0  0  0  0
    5.0927   -4.2356    5.2180 H   0  0  0  0  0  0
   -0.4423   -1.5831    0.9672 H   0  0  0  0  0  0
    5.5927    3.6523    2.0751 H   0  0  0  0  0  0
    5.0684    1.9959    2.3391 H   0  0  0  0  0  0
    7.5717    1.7646   -0.2596 H   0  0  0  0  0  0
    7.1875    1.2495    1.3820 H   0  0  0  0  0  0
    7.6618    2.9272    1.0640 H   0  0  0  0  0  0
    1.2251   -1.9679   -1.3675 H   0  0  0  0  0  0
  1  2  1  0  0  0
  1 42  1  0  0  0
  1 43  1  0  0  0
  1 44  1  0  0  0
  2 39  1  0  0  0
  2 21  1  0  0  0
  2  3  1  0  0  0
  3  4  1  0  0  0
  3 45  1  0  0  0
  3 46  1  0  0  0
  4  5  1  0  0  0
  4 47  1  0  0  0
  4 48  1  0  0  0
  5  6  1  0  0  0
  6  7  1  0  0  0
  6 49  1  0  0  0
  6 50  1  0  0  0
  7  8  1  0  0  0
  7 51  1  0  0  0
  7 52  1  0  0  0
  8  9  1  0  0  0
  8 53  1  0  0  0
  8 54  1  0  0  0
  9 10  1  0  0  0
  9 55  1  0  0  0
  9 56  1  0  0  0
 10 11  1  0  0  0
 10 57  1  0  0  0
 11 16  1  0  0  0
 11 12  2  0  0  0
 12 13  1  0  0  0
 12 58  1  0  0  0
 13 14  2  0  0  0
 13 36  1  0  0  0
 14 15  1  0  0  0
 14 59  1  0  0  0
 15 16  2  0  0  0
 15 17  1  0  0  0
 16 60  1  0  0  0
 17 18  2  0  0  0
 17 19  1  0  0  0
 19 20  1  0  0  0
 19 61  1  0  0  0
 20 40  1  0  0  0
 20 21  1  0  0  0
 20 22  1  0  0  0
 21 62  1  0  0  0
 21 63  1  0  0  0
 22 41  1  0  0  0
 22 23  1  0  0  0
 22 35  1  0  0  0
 23 24  1  0  0  0
 23 64  1  0  0  0
 23 65  1  0  0  0
 24 25  1  0  0  0
 24 85  1  0  0  0
 25 26  1  0  0  0
 25 66  1  0  0  0
 25 67  1  0  0  0
 26 31  1  0  0  0
 26 27  2  0  0  0
 27 28  1  0  0  0
 27 68  1  0  0  0
 28 29  2  0  0  0
 28 69  1  0  0  0
 29 30  1  0  0  0
 29 70  1  0  0  0
 30 31  2  0  0  0
 30 32  1  0  0  0
 31 71  1  0  0  0
 32 33  1  0  0  0
 32 34  1  0  0  0
 32 72  1  0  0  0
 33 73  1  0  0  0
 33 74  1  0  0  0
 33 75  1  0  0  0
 34 76  1  0  0  0
 34 77  1  0  0  0
 34 78  1  0  0  0
 35 79  1  0  0  0
 36 37  1  0  0  0
 36 80  1  0  0  0
 36 81  1  0  0  0
 37 38  1  0  0  0
 38 82  1  0  0  0
 38 83  1  0  0  0
 38 84  1  0  0  0
M  END
> <i_f3d_flags>
0

> <chiral flag>
1

> <version>
0

> <s_i_glide_gridfile>
base1a_gride_6

> <i_i_glide_lignum>
20

> <i_i_glide_rotatable_bonds>
9

> <r_i_docking_score>
-3.73914408591962

> <r_i_glide_ligand_efficiency>
-0.0983985285768322

> <r_i_glide_ligand_efficiency_sa>
-0.330813432739394

> <r_i_glide_ligand_efficiency_ln>
-0.806269459399161

> <r_glide_XP_GScore>
-3.75234408591962

> <r_i_glide_gscore>
-3.75234408591962

> <r_i_glide_evdw>
-26.1446762084961

> <r_i_glide_ecoul>
-15.0358476638794

> <r_i_glide_energy>
-41.1805238723755

> <r_i_glide_einternal>
7.11491870880127

> <r_i_glide_emodel>
-53.4887494741747

> <r_glide_XP_HBond>
-1.96665295935184

> <i_i_glide_confnum>
1

> <i_i_glide_posenum>
6

> <r_i_glide_eff_state_penalty>
0.0132

> <i_glide_XP_PoseRank>
1

> <s_m_source_file>
glide-dock_pose_2-0010_raw.maegz

> <i_m_source_file_index>
2

> <i_lp_mmshare_version>
42013

> <s_epik_input>
W05IXTFbQ0gyXVtDSDJdW0NIMl1bQ0gyXU9bQ0gyXVtDSDJdW0NAQEhdKFtDSDNdKVtDSDJdW0NASF0oW05IXUMoPU8pYyhbY0hdMilbY0hdYyhbY0hdYzEyKVtDSDJdT1tDSDNdKVtDQEhdKFtPSF0pW0NIMl1bTkhdW0NIMl1jM1tjSF1bY0hdW2NIXWMoW2NIXTMpW0NIXShbQ0gzXSlbQ0gzXQ==

> <s_epik_cmdline>
J2VwaWtfcHl0aG9uJywgJy1waCcsICc3LjAnLCAnLXRuJywgJzgnLCAnLW1hJywgJzIwMCcsICctaW1hZScsICc8aW5maWxlLm1hZT4nLCAnLW9tYWUnLCAnPG91dGZpbGUubWFlPic=

> <r_epik_Ionization_Penalty>
2.12225

> <r_epik_Ionization_Penalty_Charging>
0

> <r_epik_Ionization_Penalty_Neutral>
2.12225

> <r_epik_State_Penalty>
2.2595

> <r_epik_Charging_Adjusted_Penalty>
2.2595

> <i_epik_Tot_Q>
0

> <i_epik_Tot_abs_Q>
0

> <i_f3d_flags>
0

> <s_lp_Force_Field>
OPLS_2005

> <r_lp_Energy>
40.6464

> <b_lp_Chiralities_Consistent>
1

> <s_lp_Variant>
BACE_10.smi:1-2

$$$$
