BACE_1.smi:1
                    3D
 Structure written by MMmdl.
 87 88  0  0  1  0            999 V2000
    5.4442    3.1031    0.4409 C   0  0  0  0  0  0
    3.9735    2.9736    0.8501 C   0  0  0  0  0  0
    3.2396    4.3262    0.8740 C   0  0  0  0  0  0
    1.7989    4.2409    1.4059 C   0  0  0  0  0  0
    0.9775    3.3637    0.5784 N   0  0  0  0  0  0
    0.0864    2.4716    1.0378 C   0  0  0  0  0  0
   -0.1920    2.3425    2.2303 O   0  0  0  0  0  0
   -0.5704    1.5611   -0.0114 C   0  0  2  0  0  0
   -2.1032    1.6199    0.1073 C   0  0  0  0  0  0
   -0.0594    0.1037    0.1075 C   0  0  0  0  0  0
    1.4656   -0.0714   -0.0992 C   0  0  1  0  0  0
    1.9814   -1.5231    0.0577 C   0  0  2  0  0  0
    1.6801   -2.1325    1.4528 C   0  0  0  0  0  0
    2.2428   -3.5576    1.6943 C   0  0  1  0  0  0
    2.3526   -3.8610    3.2056 C   0  0  0  0  0  0
    3.1151   -5.1531    3.5753 C   0  0  0  0  0  0
    4.5351   -5.2928    2.9867 C   0  0  0  0  0  0
    5.5000   -4.1570    3.3686 C   0  0  0  0  0  0
    6.9019   -4.3449    2.7522 C   0  0  0  0  0  0
    7.7814   -3.1880    2.9951 N   0  0  0  0  0  0
    8.1136   -2.2327    2.0832 C   0  0  0  0  0  0
    8.9118   -1.3276    2.3299 O   0  0  0  0  0  0
    7.5361   -2.3007    0.6963 C   0  0  0  0  0  0
    6.1483   -2.1858    0.4798 C   0  0  0  0  0  0
    5.6118   -2.2406   -0.8263 C   0  0  0  0  0  0
    6.4882   -2.3970   -1.9211 C   0  0  0  0  0  0
    7.8827   -2.4778   -1.7313 C   0  0  0  0  0  0
    8.4000   -2.4230   -0.4126 C   0  0  0  0  0  0
    8.6586   -2.6130   -2.8630 O   0  0  0  0  0  0
   10.0704   -2.6712   -2.7103 C   0  0  0  0  0  0
   10.7087   -2.8112   -4.0945 C   0  0  0  0  0  0
    4.1256   -2.2027   -1.0443 C   0  0  0  0  0  0
    3.6081   -2.7723   -2.0052 O   0  0  0  0  0  0
    3.4334   -1.5172   -0.1203 N   0  0  0  0  0  0
    8.4217   -3.1999    4.3199 C   0  0  0  0  0  0
    9.8542   -3.7552    4.2653 C   0  0  0  0  0  0
    1.4175   -4.6187    0.9456 C   0  0  0  0  0  0
    1.7633    0.3653   -1.4135 O   0  0  0  0  0  0
   -0.3153    1.9419   -1.0018 H   0  0  0  0  0  0
    2.0060    0.5587    0.6065 H   0  0  0  0  0  0
    1.5029   -2.1429   -0.7021 H   0  0  0  0  0  0
    3.2553   -3.5955    1.3020 H   0  0  0  0  0  0
    5.9309    2.1275    0.4320 H   0  0  0  0  0  0
    5.9920    3.7422    1.1339 H   0  0  0  0  0  0
    5.5386    3.5307   -0.5576 H   0  0  0  0  0  0
    3.4784    2.2976    0.1536 H   0  0  0  0  0  0
    3.9145    2.5053    1.8333 H   0  0  0  0  0  0
    3.7975    5.0252    1.4982 H   0  0  0  0  0  0
    3.2339    4.7544   -0.1292 H   0  0  0  0  0  0
    1.8186    3.9030    2.4434 H   0  0  0  0  0  0
    1.3466    5.2330    1.4104 H   0  0  0  0  0  0
    1.1388    3.3979   -0.4179 H   0  0  0  0  0  0
   -2.4676    2.6458    0.0409 H   0  0  0  0  0  0
   -2.4505    1.2020    1.0531 H   0  0  0  0  0  0
   -2.5768    1.0543   -0.6953 H   0  0  0  0  0  0
   -0.3449   -0.2680    1.0908 H   0  0  0  0  0  0
   -0.5895   -0.5237   -0.6105 H   0  0  0  0  0  0
    2.0891   -1.4540    2.2028 H   0  0  0  0  0  0
    0.6067   -2.1592    1.6366 H   0  0  0  0  0  0
    2.8448   -3.0253    3.7039 H   0  0  0  0  0  0
    1.3522   -3.9036    3.6377 H   0  0  0  0  0  0
    3.1793   -5.2156    4.6620 H   0  0  0  0  0  0
    2.5251   -6.0177    3.2715 H   0  0  0  0  0  0
    4.9565   -6.2393    3.3268 H   0  0  0  0  0  0
    4.4783   -5.3769    1.9013 H   0  0  0  0  0  0
    5.0822   -3.2020    3.0609 H   0  0  0  0  0  0
    5.5777   -4.1067    4.4548 H   0  0  0  0  0  0
    7.3640   -5.2365    3.1789 H   0  0  0  0  0  0
    6.8172   -4.5677    1.6888 H   0  0  0  0  0  0
    5.4941   -2.0543    1.3262 H   0  0  0  0  0  0
    6.0931   -2.4520   -2.9256 H   0  0  0  0  0  0
    9.4622   -2.4848   -0.2288 H   0  0  0  0  0  0
   10.4375   -1.7635   -2.2290 H   0  0  0  0  0  0
   10.3523   -3.5247   -2.0918 H   0  0  0  0  0  0
   11.7959   -2.8489   -4.0204 H   0  0  0  0  0  0
   10.4461   -1.9685   -4.7344 H   0  0  0  0  0  0
   10.3751   -3.7244   -4.5880 H   0  0  0  0  0  0
    3.9655   -1.0450    0.5962 H   0  0  0  0  0  0
    8.4286   -2.1937    4.7424 H   0  0  0  0  0  0
    7.8377   -3.7990    5.0194 H   0  0  0  0  0  0
   10.2940   -3.7836    5.2621 H   0  0  0  0  0  0
   10.5031   -3.1425    3.6392 H   0  0  0  0  0  0
    9.8683   -4.7705    3.8684 H   0  0  0  0  0  0
    0.3927   -4.6588    1.3158 H   0  0  0  0  0  0
    1.8509   -5.6125    1.0544 H   0  0  0  0  0  0
    1.3771   -4.4078   -0.1228 H   0  0  0  0  0  0
    1.3494   -0.2230   -2.0267 H   0  0  0  0  0  0
  1  2  1  0  0  0
  1 43  1  0  0  0
  1 44  1  0  0  0
  1 45  1  0  0  0
  2  3  1  0  0  0
  2 46  1  0  0  0
  2 47  1  0  0  0
  3  4  1  0  0  0
  3 48  1  0  0  0
  3 49  1  0  0  0
  4  5  1  0  0  0
  4 50  1  0  0  0
  4 51  1  0  0  0
  5  6  1  0  0  0
  5 52  1  0  0  0
  6  7  2  0  0  0
  6  8  1  0  0  0
  8 39  1  0  0  0
  8  9  1  0  0  0
  8 10  1  0  0  0
  9 53  1  0  0  0
  9 54  1  0  0  0
  9 55  1  0  0  0
 10 11  1  0  0  0
 10 56  1  0  0  0
 10 57  1  0  0  0
 11 40  1  0  0  0
 11 12  1  0  0  0
 11 38  1  0  0  0
 12 41  1  0  0  0
 12 34  1  0  0  0
 12 13  1  0  0  0
 13 14  1  0  0  0
 13 58  1  0  0  0
 13 59  1  0  0  0
 14 42  1  0  0  0
 14 15  1  0  0  0
 14 37  1  0  0  0
 15 16  1  0  0  0
 15 60  1  0  0  0
 15 61  1  0  0  0
 16 17  1  0  0  0
 16 62  1  0  0  0
 16 63  1  0  0  0
 17 18  1  0  0  0
 17 64  1  0  0  0
 17 65  1  0  0  0
 18 19  1  0  0  0
 18 66  1  0  0  0
 18 67  1  0  0  0
 19 20  1  0  0  0
 19 68  1  0  0  0
 19 69  1  0  0  0
 20 21  1  0  0  0
 20 35  1  0  0  0
 21 22  2  0  0  0
 21 23  1  0  0  0
 23 28  1  0  0  0
 23 24  2  0  0  0
 24 25  1  0  0  0
 24 70  1  0  0  0
 25 26  2  0  0  0
 25 32  1  0  0  0
 26 27  1  0  0  0
 26 71  1  0  0  0
 27 28  2  0  0  0
 27 29  1  0  0  0
 28 72  1  0  0  0
 29 30  1  0  0  0
 30 31  1  0  0  0
 30 73  1  0  0  0
 30 74  1  0  0  0
 31 75  1  0  0  0
 31 76  1  0  0  0
 31 77  1  0  0  0
 32 33  2  0  0  0
 32 34  1  0  0  0
 34 78  1  0  0  0
 35 36  1  0  0  0
 35 79  1  0  0  0
 35 80  1  0  0  0
 36 81  1  0  0  0
 36 82  1  0  0  0
 36 83  1  0  0  0
 37 84  1  0  0  0
 37 85  1  0  0  0
 37 86  1  0  0  0
 38 87  1  0  0  0
M  END
> <i_f3d_flags>
0

> <chiral flag>
1

> <version>
0

> <s_i_glide_gridfile>
base1a_gride_6

> <i_i_glide_lignum>
1

> <i_i_glide_rotatable_bonds>
12

> <r_i_docking_score>
-2.8730855765115

> <r_i_glide_ligand_efficiency>
-0.0756075151713554

> <r_i_glide_ligand_efficiency_sa>
-0.254190606267063

> <r_i_glide_ligand_efficiency_ln>
-0.619521767910618

> <r_glide_XP_GScore>
-2.8730855765115

> <r_i_glide_gscore>
-2.8730855765115

> <r_i_glide_evdw>
-30.5618724822998

> <r_i_glide_ecoul>
-8.52735137939453

> <r_i_glide_energy>
-39.0892238616943

> <r_i_glide_einternal>
12.084282875061

> <r_i_glide_emodel>
-46.0367675609812

> <r_glide_XP_HBond>
-1.1715964923357

> <i_i_glide_confnum>
1

> <i_i_glide_posenum>
1

> <r_i_glide_eff_state_penalty>
-0

> <i_glide_XP_PoseRank>
1

> <s_m_source_file>
glide-dock_pose_2-0001_raw.maegz

> <i_m_source_file_index>
1

> <i_lp_mmshare_version>
42013

> <s_epik_input>
W0NIM11bQ0gyXVtDSDJdW0NIMl1bTkhdQyg9TylbQ0BIXShbQ0gzXSlbQ0gyXVtDQEhdKFtPSF0pW0NAQEhdKFtOSF1DKD1PKWMoW2NIXWMxMilbY0hdYyhbY0hdMilPW0NIMl1bQ0gzXSlbQ0gyXVtDQEhdKFtDSDNdKVtDSDJdW0NIMl1bQ0gyXVtDSDJdW0NIMl1OKEMxPU8pW0NIMl1bQ0gzXQ==

> <s_epik_cmdline>
J2VwaWtfcHl0aG9uJywgJy1waCcsICc3LjAnLCAnLXRuJywgJzgnLCAnLW1hJywgJzIwMCcsICctaW1hZScsICc8aW5maWxlLm1hZT4nLCAnLW9tYWUnLCAnPG91dGZpbGUubWFlPic=

> <r_lp_tautomer_probability>
1

> <r_epik_Ionization_Penalty>
4.8396e-07

> <r_epik_Ionization_Penalty_Charging>
0

> <r_epik_Ionization_Penalty_Neutral>
4.8396e-07

> <r_epik_State_Penalty>
-0

> <r_epik_Charging_Adjusted_Penalty>
0

> <i_epik_Tot_Q>
0

> <i_epik_Tot_abs_Q>
0

> <i_f3d_flags>
0

> <s_lp_Force_Field>
OPLS_2005

> <r_lp_Energy>
40.9193

> <b_lp_Chiralities_Consistent>
1

> <s_lp_Variant>
BACE_1.smi:1-1

$$$$
BACE_2.smi:1
                    3D
 Structure written by MMmdl.
 96 98  0  0  1  0            999 V2000
   -3.1966    2.2799    2.6050 C   0  0  0  0  0  0
   -2.5562    1.7152    3.7231 C   0  0  0  0  0  0
   -1.2687    1.1555    3.5963 C   0  0  0  0  0  0
   -0.5738    0.5566    4.8127 C   0  0  0  0  0  0
   -0.3415   -0.9530    4.6452 C   0  0  0  0  0  0
    0.7302    1.2987    5.1436 C   0  0  0  0  0  0
   -0.6382    1.1536    2.3338 C   0  0  0  0  0  0
   -1.2835    1.7007    1.2016 C   0  0  0  0  0  0
   -2.5638    2.2936    1.3467 C   0  0  0  0  0  0
   -0.6057    1.6661   -0.1633 C   0  0  2  0  0  0
   -1.5703    2.0988   -1.2780 C   0  0  0  0  0  0
   -2.4781    3.2685   -0.8505 C   0  0  0  0  0  0
   -3.2348    2.8857    0.2985 O   0  0  0  0  0  0
   -1.6872    4.5572   -0.5391 C   0  0  0  0  0  0
   -3.5111    3.5559   -1.9520 C   0  0  0  0  0  0
   -0.0826    0.3149   -0.4656 N   0  3  0  0  0  0
    1.3903    0.2005   -0.4564 C   0  0  0  0  0  0
    1.8340   -1.2775   -0.5292 C   0  0  1  0  0  0
    1.4792   -1.7311   -1.8197 O   0  0  0  0  0  0
    3.3590   -1.5061   -0.3104 C   0  0  1  0  0  0
    3.8836   -0.7195    0.8105 N   0  0  0  0  0  0
    3.5255   -0.8018    2.1043 C   0  0  0  0  0  0
    2.6747   -1.5859    2.5226 O   0  0  0  0  0  0
    4.2245    0.1616    3.0733 C   0  0  2  0  0  0
    4.0874    1.6552    2.6931 C   0  0  0  0  0  0
    3.7621   -2.9963   -0.1333 C   0  0  0  0  0  0
    3.9073   -3.8358   -1.4271 C   0  0  2  0  0  0
    4.0819   -5.3309   -1.1038 C   0  0  0  0  0  0
    4.9768   -3.3177   -2.4279 C   0  0  0  0  0  0
    6.2887   -2.7381   -1.8538 C   0  0  0  0  0  0
    7.1741   -3.7303   -1.0790 C   0  0  0  0  0  0
    8.4655   -3.1057   -0.5225 C   0  0  0  0  0  0
    8.2005   -1.9590    0.4686 C   0  0  0  0  0  0
    9.4269   -1.5802    1.3117 C   0  0  0  0  0  0
    9.2467   -0.3196    2.1831 C   0  0  0  0  0  0
    8.0998   -0.3929    3.2209 C   0  0  0  0  0  0
    6.7071    0.0405    2.7042 C   0  0  0  0  0  0
    6.6462    0.6764    1.6518 O   0  0  0  0  0  0
    5.5974   -0.2810    3.4244 N   0  0  0  0  0  0
    5.6919   -1.1900    4.5754 C   0  0  0  0  0  0
    0.2174    2.3817   -0.1284 H   0  0  0  0  0  0
    1.2727   -1.8551    0.2067 H   0  0  0  0  0  0
    3.8794   -1.0967   -1.1758 H   0  0  0  0  0  0
    3.6387    0.1009    3.9912 H   0  0  0  0  0  0
    2.9575   -3.7934   -1.9573 H   0  0  0  0  0  0
   -4.1775    2.7185    2.7171 H   0  0  0  0  0  0
   -3.0572    1.7216    4.6801 H   0  0  0  0  0  0
   -1.2373    0.6842    5.6691 H   0  0  0  0  0  0
   -1.2824   -1.4768    4.4743 H   0  0  0  0  0  0
    0.1155   -1.3806    5.5381 H   0  0  0  0  0  0
    0.3159   -1.1687    3.8035 H   0  0  0  0  0  0
    0.5457    2.3608    5.3079 H   0  0  0  0  0  0
    1.4586    1.2079    4.3391 H   0  0  0  0  0  0
    1.1893    0.9009    6.0489 H   0  0  0  0  0  0
    0.3451    0.7185    2.2399 H   0  0  0  0  0  0
   -1.0141    2.3432   -2.1842 H   0  0  0  0  0  0
   -2.2139    1.2552   -1.5344 H   0  0  0  0  0  0
   -1.1125    4.8850   -1.4057 H   0  0  0  0  0  0
   -0.9891    4.4273    0.2875 H   0  0  0  0  0  0
   -2.3596    5.3703   -0.2634 H   0  0  0  0  0  0
   -3.0261    3.8566   -2.8815 H   0  0  0  0  0  0
   -4.1898    4.3574   -1.6586 H   0  0  0  0  0  0
   -4.1187    2.6759   -2.1652 H   0  0  0  0  0  0
    1.8114    0.7762   -1.2820 H   0  0  0  0  0  0
    1.7468    0.6672    0.4599 H   0  0  0  0  0  0
    1.7198   -2.6426   -1.8936 H   0  0  0  0  0  0
    4.6012   -0.0465    0.5793 H   0  0  0  0  0  0
    3.0377    1.9488    2.6658 H   0  0  0  0  0  0
    4.4961    1.8898    1.7110 H   0  0  0  0  0  0
    4.5816    2.2934    3.4260 H   0  0  0  0  0  0
    4.7023   -3.0530    0.4155 H   0  0  0  0  0  0
    3.0348   -3.4778    0.5215 H   0  0  0  0  0  0
    4.9773   -5.5344   -0.5207 H   0  0  0  0  0  0
    4.1385   -5.9271   -2.0148 H   0  0  0  0  0  0
    3.2338   -5.7041   -0.5291 H   0  0  0  0  0  0
    5.2134   -4.0992   -3.1508 H   0  0  0  0  0  0
    4.5155   -2.5253   -3.0186 H   0  0  0  0  0  0
    6.8724   -2.3354   -2.6823 H   0  0  0  0  0  0
    6.0558   -1.8802   -1.2263 H   0  0  0  0  0  0
    6.6243   -4.1473   -0.2385 H   0  0  0  0  0  0
    7.4284   -4.5702   -1.7264 H   0  0  0  0  0  0
    9.0323   -3.8902   -0.0197 H   0  0  0  0  0  0
    9.0953   -2.7511   -1.3392 H   0  0  0  0  0  0
    7.8609   -1.0809   -0.0804 H   0  0  0  0  0  0
    7.3870   -2.2485    1.1342 H   0  0  0  0  0  0
    9.6991   -2.4226    1.9487 H   0  0  0  0  0  0
   10.2770   -1.4194    0.6477 H   0  0  0  0  0  0
   10.1785   -0.1630    2.7277 H   0  0  0  0  0  0
    9.1491    0.5600    1.5458 H   0  0  0  0  0  0
    8.0798   -1.4023    3.6297 H   0  0  0  0  0  0
    8.3414    0.2693    4.0529 H   0  0  0  0  0  0
    6.3807   -0.8010    5.3263 H   0  0  0  0  0  0
    6.0399   -2.1739    4.2584 H   0  0  0  0  0  0
    4.7378   -1.3498    5.0776 H   0  0  0  0  0  0
   -0.4615   -0.3263    0.2167 H   0  0  0  0  0  0
   -0.4093    0.0361   -1.3799 H   0  0  0  0  0  0
  1  9  1  0  0  0
  1  2  2  0  0  0
  1 46  1  0  0  0
  2  3  1  0  0  0
  2 47  1  0  0  0
  3  4  1  0  0  0
  3  7  2  0  0  0
  4  5  1  0  0  0
  4  6  1  0  0  0
  4 48  1  0  0  0
  5 49  1  0  0  0
  5 50  1  0  0  0
  5 51  1  0  0  0
  6 52  1  0  0  0
  6 53  1  0  0  0
  6 54  1  0  0  0
  7  8  1  0  0  0
  7 55  1  0  0  0
  8  9  2  0  0  0
  8 10  1  0  0  0
  9 13  1  0  0  0
 10 41  1  0  0  0
 10 11  1  0  0  0
 10 16  1  0  0  0
 11 12  1  0  0  0
 11 56  1  0  0  0
 11 57  1  0  0  0
 12 13  1  0  0  0
 12 14  1  0  0  0
 12 15  1  0  0  0
 14 58  1  0  0  0
 14 59  1  0  0  0
 14 60  1  0  0  0
 15 61  1  0  0  0
 15 62  1  0  0  0
 15 63  1  0  0  0
 16 17  1  0  0  0
 16 95  1  0  0  0
 16 96  1  0  0  0
 17 18  1  0  0  0
 17 64  1  0  0  0
 17 65  1  0  0  0
 18 42  1  0  0  0
 18 19  1  0  0  0
 18 20  1  0  0  0
 19 66  1  0  0  0
 20 43  1  0  0  0
 20 21  1  0  0  0
 20 26  1  0  0  0
 21 22  1  0  0  0
 21 67  1  0  0  0
 22 23  2  0  0  0
 22 24  1  0  0  0
 24 44  1  0  0  0
 24 39  1  0  0  0
 24 25  1  0  0  0
 25 68  1  0  0  0
 25 69  1  0  0  0
 25 70  1  0  0  0
 26 27  1  0  0  0
 26 71  1  0  0  0
 26 72  1  0  0  0
 27 45  1  0  0  0
 27 28  1  0  0  0
 27 29  1  0  0  0
 28 73  1  0  0  0
 28 74  1  0  0  0
 28 75  1  0  0  0
 29 30  1  0  0  0
 29 76  1  0  0  0
 29 77  1  0  0  0
 30 31  1  0  0  0
 30 78  1  0  0  0
 30 79  1  0  0  0
 31 32  1  0  0  0
 31 80  1  0  0  0
 31 81  1  0  0  0
 32 33  1  0  0  0
 32 82  1  0  0  0
 32 83  1  0  0  0
 33 34  1  0  0  0
 33 84  1  0  0  0
 33 85  1  0  0  0
 34 35  1  0  0  0
 34 86  1  0  0  0
 34 87  1  0  0  0
 35 36  1  0  0  0
 35 88  1  0  0  0
 35 89  1  0  0  0
 36 37  1  0  0  0
 36 90  1  0  0  0
 36 91  1  0  0  0
 37 38  2  0  0  0
 37 39  1  0  0  0
 39 40  1  0  0  0
 40 92  1  0  0  0
 40 93  1  0  0  0
 40 94  1  0  0  0
M  CHG  1  16   1
M  END
> <i_f3d_flags>
0

> <chiral flag>
1

> <version>
0

> <s_i_glide_gridfile>
base1a_gride_6

> <i_i_glide_lignum>
2

> <i_i_glide_rotatable_bonds>
6

> <r_i_docking_score>
-2.55912634741006

> <r_i_glide_ligand_efficiency>
-0.0639781586852515

> <r_i_glide_ligand_efficiency_sa>
-0.218802224659845

> <r_i_glide_ligand_efficiency_ln>
-0.545786338176114

> <r_glide_XP_GScore>
-2.57402634741006

> <r_i_glide_gscore>
-2.57402634741006

> <r_i_glide_evdw>
-27.9585628509521

> <r_i_glide_ecoul>
-11.4496641159058

> <r_i_glide_energy>
-39.4082269668579

> <r_i_glide_einternal>
3.35152101516724

> <r_i_glide_emodel>
-46.7662690711463

> <r_glide_XP_HBond>
-1.29495299875238

> <i_i_glide_confnum>
1

> <i_i_glide_posenum>
1

> <r_i_glide_eff_state_penalty>
0.0149

> <i_glide_XP_PoseRank>
1

> <s_m_source_file>
glide-dock_pose_2-0001_raw.maegz

> <i_m_source_file_index>
2

> <i_lp_mmshare_version>
42013

> <s_epik_input>
W0NIM11bQ0hdKFtDSDNdKWMoW2NIXTEpW2NIXVtjSF1jKGMxMilPQyhbQ0gzXSkoW0NIM10pW0NIMl1bQ0BASF0yW05IXVtDSDJdW0NAQEhdKFtPSF0pW0NASF0zW05IXUMoPU8pW0NASF0oW0NIM10pTihbQ0gzXSlDKD1PKVtDSDJdW0NIMl1bQ0gyXVtDSDJdW0NIMl1bQ0gyXVtDSDJdW0NIMl1bQ0BIXShbQ0gyXTMpW0NIM10=

> <s_epik_cmdline>
J2VwaWtfcHl0aG9uJywgJy1waCcsICc3LjAnLCAnLXRuJywgJzgnLCAnLW1hJywgJzIwMCcsICctaW1hZScsICc8aW5maWxlLm1hZT4nLCAnLW9tYWUnLCAnPG91dGZpbGUubWFlPic=

> <r_lp_tautomer_probability>
1

> <r_epik_Ionization_Penalty>
0.0187326

> <r_epik_Ionization_Penalty_Charging>
0.0187322

> <r_epik_Ionization_Penalty_Neutral>
3.10907e-07

> <r_epik_State_Penalty>
0.014922

> <r_epik_Charging_Adjusted_Penalty>
0.0336543

> <i_epik_Tot_Q>
1

> <i_epik_Tot_abs_Q>
1

> <i_f3d_flags>
0

> <s_lp_Force_Field>
OPLS_2005

> <r_lp_Energy>
39.6154

> <b_lp_Chiralities_Consistent>
1

> <s_lp_Variant>
BACE_2.smi:1-1

$$$$
BACE_2.smi:1
                    3D
 Structure written by MMmdl.
 95 97  0  0  1  0            999 V2000
   -2.7656    2.3771    2.8849 C   0  0  0  0  0  0
   -2.1781    1.8247    4.0375 C   0  0  0  0  0  0
   -0.9366    1.1631    3.9538 C   0  0  0  0  0  0
   -0.2928    0.5936    5.2122 C   0  0  0  0  0  0
    0.1128   -0.8813    5.0507 C   0  0  0  0  0  0
    0.8870    1.4632    5.6712 C   0  0  0  0  0  0
   -0.2991    1.0527    2.6997 C   0  0  0  0  0  0
   -0.8865    1.5941    1.5345 C   0  0  0  0  0  0
   -2.1224    2.2828    1.6352 C   0  0  0  0  0  0
   -0.1876    1.4535    0.1859 C   0  0  2  0  0  0
   -1.1189    1.8814   -0.9646 C   0  0  0  0  0  0
   -1.9629    3.1216   -0.6112 C   0  0  0  0  0  0
   -2.7470    2.8605    0.5516 O   0  0  0  0  0  0
   -1.0979    4.3768   -0.3698 C   0  0  0  0  0  0
   -2.9717    3.4042   -1.7367 C   0  0  0  0  0  0
    0.3418    0.0988   -0.0178 N   0  0  0  0  0  0
    1.1047   -0.1058   -1.2510 C   0  0  0  0  0  0
    1.7517   -1.5100   -1.3000 C   0  0  1  0  0  0
    1.7729   -1.8620   -2.6691 O   0  0  0  0  0  0
    3.2194   -1.6028   -0.7807 C   0  0  1  0  0  0
    3.5024   -0.6969    0.3371 N   0  0  0  0  0  0
    3.0876   -0.8014    1.6110 C   0  0  0  0  0  0
    2.3319   -1.6878    2.0077 O   0  0  0  0  0  0
    3.6043    0.2619    2.5910 C   0  0  2  0  0  0
    3.4602    1.7249    2.1065 C   0  0  0  0  0  0
    3.6775   -3.0487   -0.4401 C   0  0  0  0  0  0
    4.0094   -3.9711   -1.6382 C   0  0  2  0  0  0
    4.1914   -5.4313   -1.1851 C   0  0  0  0  0  0
    5.1768   -3.4796   -2.5375 C   0  0  0  0  0  0
    6.3905   -2.8132   -1.8516 C   0  0  0  0  0  0
    7.1987   -3.7138   -0.9004 C   0  0  0  0  0  0
    8.3866   -3.0011   -0.2308 C   0  0  0  0  0  0
    7.9566   -1.8081    0.6405 C   0  0  0  0  0  0
    9.0454   -1.3369    1.6158 C   0  0  0  0  0  0
    8.7095   -0.0389    2.3801 C   0  0  0  0  0  0
    7.4422   -0.1031    3.2683 C   0  0  0  0  0  0
    6.1121    0.2332    2.5534 C   0  0  0  0  0  0
    6.1632    0.7930    1.4581 O   0  0  0  0  0  0
    4.9323   -0.0889    3.1511 N   0  0  0  0  0  0
    4.9094   -0.8984    4.3778 C   0  0  0  0  0  0
    0.6512    2.1496    0.2154 H   0  0  0  0  0  0
    1.1141   -2.2274   -0.7811 H   0  0  0  0  0  0
    3.8680   -1.2100   -1.5635 H   0  0  0  0  0  0
    2.9021    0.2226    3.4225 H   0  0  0  0  0  0
    3.1294   -4.0049   -2.2789 H   0  0  0  0  0  0
   -3.7135    2.8892    2.9625 H   0  0  0  0  0  0
   -2.6829    1.9205    4.9875 H   0  0  0  0  0  0
   -1.0419    0.6251    6.0046 H   0  0  0  0  0  0
   -0.7414   -1.4919    4.7569 H   0  0  0  0  0  0
    0.4967   -1.2842    5.9882 H   0  0  0  0  0  0
    0.8905   -1.0125    4.2994 H   0  0  0  0  0  0
    0.5641    2.4861    5.8667 H   0  0  0  0  0  0
    1.6728    1.5045    4.9176 H   0  0  0  0  0  0
    1.3274    1.0763    6.5905 H   0  0  0  0  0  0
    0.6499    0.5465    2.6313 H   0  0  0  0  0  0
   -0.5470    2.0625   -1.8752 H   0  0  0  0  0  0
   -1.8016    1.0594   -1.1872 H   0  0  0  0  0  0
   -0.5001    4.6173   -1.2492 H   0  0  0  0  0  0
   -0.4121    4.2523    0.4681 H   0  0  0  0  0  0
   -1.7207    5.2437   -0.1472 H   0  0  0  0  0  0
   -2.4653    3.6210   -2.6778 H   0  0  0  0  0  0
   -3.6033    4.2600   -1.4960 H   0  0  0  0  0  0
   -3.6289    2.5499   -1.9034 H   0  0  0  0  0  0
    0.4287    0.0068   -2.0992 H   0  0  0  0  0  0
    1.8678    0.6644   -1.3690 H   0  0  0  0  0  0
    2.1132   -2.7400   -2.7470 H   0  0  0  0  0  0
    4.1166    0.0766    0.1254 H   0  0  0  0  0  0
    2.4136    1.9722    1.9323 H   0  0  0  0  0  0
    3.9824    1.9245    1.1717 H   0  0  0  0  0  0
    3.8325    2.4233    2.8563 H   0  0  0  0  0  0
    4.5470   -3.0078    0.2158 H   0  0  0  0  0  0
    2.9019   -3.5255    0.1602 H   0  0  0  0  0  0
    5.0053   -5.5545   -0.4743 H   0  0  0  0  0  0
    4.3913   -6.0854   -2.0342 H   0  0  0  0  0  0
    3.2866   -5.8011   -0.7021 H   0  0  0  0  0  0
    5.5231   -4.2976   -3.1701 H   0  0  0  0  0  0
    4.7676   -2.7459   -3.2331 H   0  0  0  0  0  0
    7.0621   -2.4495   -2.6300 H   0  0  0  0  0  0
    6.0560   -1.9220   -1.3245 H   0  0  0  0  0  0
    6.5582   -4.0929   -0.1077 H   0  0  0  0  0  0
    7.5603   -4.5856   -1.4465 H   0  0  0  0  0  0
    8.9111   -3.7277    0.3908 H   0  0  0  0  0  0
    9.1033   -2.6718   -0.9839 H   0  0  0  0  0  0
    7.6688   -0.9774   -0.0039 H   0  0  0  0  0  0
    7.0691   -2.0878    1.2084 H   0  0  0  0  0  0
    9.2543   -2.1328    2.3316 H   0  0  0  0  0  0
    9.9722   -1.1797    1.0628 H   0  0  0  0  0  0
    9.5577    0.1880    3.0267 H   0  0  0  0  0  0
    8.6628    0.7989    1.6833 H   0  0  0  0  0  0
    7.4073   -1.0859    3.7366 H   0  0  0  0  0  0
    7.5494    0.6187    4.0786 H   0  0  0  0  0  0
    5.4761   -0.4171    5.1760 H   0  0  0  0  0  0
    5.3353   -1.8852    4.1924 H   0  0  0  0  0  0
    3.9043   -1.0676    4.7643 H   0  0  0  0  0  0
    0.9033   -0.1732    0.7830 H   0  0  0  0  0  0
  1  9  1  0  0  0
  1  2  2  0  0  0
  1 46  1  0  0  0
  2  3  1  0  0  0
  2 47  1  0  0  0
  3  4  1  0  0  0
  3  7  2  0  0  0
  4  5  1  0  0  0
  4  6  1  0  0  0
  4 48  1  0  0  0
  5 49  1  0  0  0
  5 50  1  0  0  0
  5 51  1  0  0  0
  6 52  1  0  0  0
  6 53  1  0  0  0
  6 54  1  0  0  0
  7  8  1  0  0  0
  7 55  1  0  0  0
  8  9  2  0  0  0
  8 10  1  0  0  0
  9 13  1  0  0  0
 10 41  1  0  0  0
 10 11  1  0  0  0
 10 16  1  0  0  0
 11 12  1  0  0  0
 11 56  1  0  0  0
 11 57  1  0  0  0
 12 13  1  0  0  0
 12 14  1  0  0  0
 12 15  1  0  0  0
 14 58  1  0  0  0
 14 59  1  0  0  0
 14 60  1  0  0  0
 15 61  1  0  0  0
 15 62  1  0  0  0
 15 63  1  0  0  0
 16 17  1  0  0  0
 16 95  1  0  0  0
 17 18  1  0  0  0
 17 64  1  0  0  0
 17 65  1  0  0  0
 18 42  1  0  0  0
 18 19  1  0  0  0
 18 20  1  0  0  0
 19 66  1  0  0  0
 20 43  1  0  0  0
 20 21  1  0  0  0
 20 26  1  0  0  0
 21 22  1  0  0  0
 21 67  1  0  0  0
 22 23  2  0  0  0
 22 24  1  0  0  0
 24 44  1  0  0  0
 24 39  1  0  0  0
 24 25  1  0  0  0
 25 68  1  0  0  0
 25 69  1  0  0  0
 25 70  1  0  0  0
 26 27  1  0  0  0
 26 71  1  0  0  0
 26 72  1  0  0  0
 27 45  1  0  0  0
 27 28  1  0  0  0
 27 29  1  0  0  0
 28 73  1  0  0  0
 28 74  1  0  0  0
 28 75  1  0  0  0
 29 30  1  0  0  0
 29 76  1  0  0  0
 29 77  1  0  0  0
 30 31  1  0  0  0
 30 78  1  0  0  0
 30 79  1  0  0  0
 31 32  1  0  0  0
 31 80  1  0  0  0
 31 81  1  0  0  0
 32 33  1  0  0  0
 32 82  1  0  0  0
 32 83  1  0  0  0
 33 34  1  0  0  0
 33 84  1  0  0  0
 33 85  1  0  0  0
 34 35  1  0  0  0
 34 86  1  0  0  0
 34 87  1  0  0  0
 35 36  1  0  0  0
 35 88  1  0  0  0
 35 89  1  0  0  0
 36 37  1  0  0  0
 36 90  1  0  0  0
 36 91  1  0  0  0
 37 38  2  0  0  0
 37 39  1  0  0  0
 39 40  1  0  0  0
 40 92  1  0  0  0
 40 93  1  0  0  0
 40 94  1  0  0  0
M  END
> <i_f3d_flags>
0

> <chiral flag>
1

> <version>
0

> <s_i_glide_gridfile>
base1a_gride_6

> <i_i_glide_lignum>
2

> <i_i_glide_rotatable_bonds>
6

> <r_i_docking_score>
-2.55912634741006

> <r_i_glide_ligand_efficiency>
-0.0639781586852515

> <r_i_glide_ligand_efficiency_sa>
-0.218802224659845

> <r_i_glide_ligand_efficiency_ln>
-0.545786338176114

> <r_glide_XP_GScore>
-2.57402634741006

> <r_i_glide_gscore>
-2.57402634741006

> <r_i_glide_evdw>
-27.9585628509521

> <r_i_glide_ecoul>
-11.4496641159058

> <r_i_glide_energy>
-39.4082269668579

> <r_i_glide_einternal>
3.35152101516724

> <r_i_glide_emodel>
-46.7662690711463

> <r_glide_XP_HBond>
-1.29495299875238

> <i_i_glide_confnum>
1

> <i_i_glide_posenum>
1

> <r_i_glide_eff_state_penalty>
0.0149

> <i_glide_XP_PoseRank>
1

> <s_m_source_file>
glide-dock_pose_2-0001_raw.maegz

> <i_m_source_file_index>
2

> <i_lp_mmshare_version>
42013

> <s_epik_input>
W0NIM11bQ0hdKFtDSDNdKWMoW2NIXTEpW2NIXVtjSF1jKGMxMilPQyhbQ0gzXSkoW0NIM10pW0NIMl1bQ0BASF0yW05IXVtDSDJdW0NAQEhdKFtPSF0pW0NASF0zW05IXUMoPU8pW0NASF0oW0NIM10pTihbQ0gzXSlDKD1PKVtDSDJdW0NIMl1bQ0gyXVtDSDJdW0NIMl1bQ0gyXVtDSDJdW0NIMl1bQ0BIXShbQ0gyXTMpW0NIM10=

> <s_epik_cmdline>
J2VwaWtfcHl0aG9uJywgJy1waCcsICc3LjAnLCAnLXRuJywgJzgnLCAnLW1hJywgJzIwMCcsICctaW1hZScsICc8aW5maWxlLm1hZT4nLCAnLW9tYWUnLCAnPG91dGZpbGUubWFlPic=

> <r_lp_tautomer_probability>
1

> <r_epik_Ionization_Penalty>
2.05583

> <r_epik_Ionization_Penalty_Charging>
0

> <r_epik_Ionization_Penalty_Neutral>
2.05583

> <r_epik_State_Penalty>
2.18867

> <r_epik_Charging_Adjusted_Penalty>
2.18867

> <i_epik_Tot_Q>
0

> <i_epik_Tot_abs_Q>
0

> <i_f3d_flags>
0

> <s_lp_Force_Field>
OPLS_2005

> <r_lp_Energy>
44.8053

> <b_lp_Chiralities_Consistent>
1

> <s_lp_Variant>
BACE_2.smi:1-2

$$$$
