BACE_5.smi:1
                    3D
 Structure written by MMmdl.
 80 81  0  0  1  0            999 V2000
    0.3881    2.9042   -6.3264 C   0  0  0  0  0  0
   -0.0684    2.0751   -5.1210 C   0  0  0  0  0  0
   -0.9088    2.8900   -4.1273 C   0  0  0  0  0  0
   -1.3623    2.0888   -2.9522 C   0  0  0  0  0  0
   -0.8949    2.0238   -1.6701 C   0  0  0  0  0  0
   -1.7348    1.0609   -1.0375 C   0  0  0  0  0  0
   -2.6519    0.5709   -1.8588 N   0  0  0  0  0  0
   -2.4155    1.2057   -3.0220 N   0  0  0  0  0  0
   -1.6596    0.5551    0.3763 C   0  0  0  0  0  0
   -1.0521   -0.7908    0.4403 N   0  3  0  0  0  0
    0.3621   -0.8545    0.0125 C   0  0  0  0  0  0
    0.9538   -2.2632    0.2194 C   0  0  2  0  0  0
    2.4704   -2.3525   -0.0916 C   0  0  2  0  0  0
    3.1112   -3.7639    0.0239 C   0  0  0  0  0  0
    2.9516   -4.5963    1.3265 C   0  0  1  0  0  0
    3.2314   -3.8072    2.6219 C   0  0  0  0  0  0
    3.5157   -4.6905    3.8493 C   0  0  0  0  0  0
    3.6941   -3.8640    5.1299 C   0  0  0  0  0  0
    2.3622   -3.5049    5.8144 C   0  0  0  0  0  0
    2.5260   -2.3911    6.8620 C   0  0  0  0  0  0
    2.1717   -0.9911    6.3370 C   0  0  0  0  0  0
    2.7508   -0.7678    5.0602 O   0  0  0  0  0  0
    2.8297    0.6079    4.7236 C   0  0  0  0  0  0
    3.0726    0.7627    3.2161 C   0  0  0  0  0  0
    2.1589    1.2575    2.5531 O   0  0  0  0  0  0
    4.2578    0.3928    2.6547 N   0  0  0  0  0  0
    4.5091    0.6976    1.2155 C   0  0  2  0  0  0
    3.7701   -0.2341    0.2285 C   0  0  0  0  0  0
    3.6627    0.1169   -0.9465 O   0  0  0  0  0  0
    3.2343   -1.3778    0.6935 N   0  0  0  0  0  0
    6.0107    0.6647    0.8400 C   0  0  0  0  0  0
    5.3348   -0.2553    3.4230 C   0  0  0  0  0  0
    1.6244   -5.3791    1.3794 C   0  0  0  0  0  0
    0.2653   -3.1393   -0.6528 O   0  0  0  0  0  0
   -2.9709    1.0269   -3.8469 H   0  0  0  0  0  0
    0.7686   -2.5621    1.2498 H   0  0  0  0  0  0
    2.5781   -2.0888   -1.1454 H   0  0  0  0  0  0
    3.7286   -5.3592    1.2582 H   0  0  0  0  0  0
    4.1649    1.7151    1.0187 H   0  0  0  0  0  0
    0.9819    2.2989   -7.0119 H   0  0  0  0  0  0
    1.0007    3.7503   -6.0136 H   0  0  0  0  0  0
   -0.4652    3.2946   -6.8818 H   0  0  0  0  0  0
   -0.6445    1.2188   -5.4733 H   0  0  0  0  0  0
    0.8070    1.6698   -4.6117 H   0  0  0  0  0  0
   -0.3296    3.7452   -3.7770 H   0  0  0  0  0  0
   -1.7792    3.3042   -4.6378 H   0  0  0  0  0  0
   -0.0657    2.5735   -1.2490 H   0  0  0  0  0  0
   -2.6580    0.5018    0.8113 H   0  0  0  0  0  0
   -1.0861    1.2411    1.0010 H   0  0  0  0  0  0
    0.4593   -0.5565   -1.0323 H   0  0  0  0  0  0
    0.9089   -0.1213    0.6030 H   0  0  0  0  0  0
    2.7619   -4.3705   -0.8126 H   0  0  0  0  0  0
    4.1801   -3.6471   -0.1626 H   0  0  0  0  0  0
    4.1049   -3.1730    2.4693 H   0  0  0  0  0  0
    2.3997   -3.1352    2.8326 H   0  0  0  0  0  0
    2.7265   -5.4261    4.0025 H   0  0  0  0  0  0
    4.4279   -5.2584    3.6630 H   0  0  0  0  0  0
    4.3027   -4.4272    5.8384 H   0  0  0  0  0  0
    4.2653   -2.9637    4.9013 H   0  0  0  0  0  0
    1.6098   -3.2140    5.0806 H   0  0  0  0  0  0
    1.9717   -4.4016    6.2971 H   0  0  0  0  0  0
    1.8856   -2.6044    7.7186 H   0  0  0  0  0  0
    3.5455   -2.3949    7.2499 H   0  0  0  0  0  0
    1.0897   -0.8805    6.2521 H   0  0  0  0  0  0
    2.5156   -0.2468    7.0576 H   0  0  0  0  0  0
    1.8951    1.1112    4.9798 H   0  0  0  0  0  0
    3.6229    1.0975    5.2902 H   0  0  0  0  0  0
    3.3638   -1.5900    1.6724 H   0  0  0  0  0  0
    6.1625    0.9958   -0.1882 H   0  0  0  0  0  0
    6.4435   -0.3335    0.9162 H   0  0  0  0  0  0
    6.5930    1.3399    1.4673 H   0  0  0  0  0  0
    6.1698    0.4313    3.5632 H   0  0  0  0  0  0
    5.6982   -1.1377    2.8965 H   0  0  0  0  0  0
    5.0570   -0.6027    4.4145 H   0  0  0  0  0  0
    0.7739   -4.7439    1.6186 H   0  0  0  0  0  0
    1.6579   -6.1641    2.1342 H   0  0  0  0  0  0
    1.4166   -5.8696    0.4281 H   0  0  0  0  0  0
    0.4752   -2.9053   -1.5444 H   0  0  0  0  0  0
   -1.1063   -1.1149    1.3951 H   0  0  0  0  0  0
   -1.5917   -1.4151   -0.1427 H   0  0  0  0  0  0
  1  2  1  0  0  0
  1 40  1  0  0  0
  1 41  1  0  0  0
  1 42  1  0  0  0
  2  3  1  0  0  0
  2 43  1  0  0  0
  2 44  1  0  0  0
  3 45  1  0  0  0
  3 46  1  0  0  0
  3  4  1  0  0  0
  4  8  1  0  0  0
  4  5  2  0  0  0
  5  6  1  0  0  0
  5 47  1  0  0  0
  6  9  1  0  0  0
  6  7  2  0  0  0
  7  8  1  0  0  0
  8 35  1  0  0  0
  9 10  1  0  0  0
  9 48  1  0  0  0
  9 49  1  0  0  0
 10 11  1  0  0  0
 10 79  1  0  0  0
 10 80  1  0  0  0
 11 12  1  0  0  0
 11 50  1  0  0  0
 11 51  1  0  0  0
 12 36  1  0  0  0
 12 13  1  0  0  0
 12 34  1  0  0  0
 13 37  1  0  0  0
 13 30  1  0  0  0
 13 14  1  0  0  0
 14 15  1  0  0  0
 14 52  1  0  0  0
 14 53  1  0  0  0
 15 38  1  0  0  0
 15 16  1  0  0  0
 15 33  1  0  0  0
 16 17  1  0  0  0
 16 54  1  0  0  0
 16 55  1  0  0  0
 17 18  1  0  0  0
 17 56  1  0  0  0
 17 57  1  0  0  0
 18 19  1  0  0  0
 18 58  1  0  0  0
 18 59  1  0  0  0
 19 20  1  0  0  0
 19 60  1  0  0  0
 19 61  1  0  0  0
 20 21  1  0  0  0
 20 62  1  0  0  0
 20 63  1  0  0  0
 21 22  1  0  0  0
 21 64  1  0  0  0
 21 65  1  0  0  0
 22 23  1  0  0  0
 23 24  1  0  0  0
 23 66  1  0  0  0
 23 67  1  0  0  0
 24 25  2  0  0  0
 24 26  1  0  0  0
 26 27  1  0  0  0
 26 32  1  0  0  0
 27 39  1  0  0  0
 27 28  1  0  0  0
 27 31  1  0  0  0
 28 29  2  0  0  0
 28 30  1  0  0  0
 30 68  1  0  0  0
 31 69  1  0  0  0
 31 70  1  0  0  0
 31 71  1  0  0  0
 32 72  1  0  0  0
 32 73  1  0  0  0
 32 74  1  0  0  0
 33 75  1  0  0  0
 33 76  1  0  0  0
 33 77  1  0  0  0
 34 78  1  0  0  0
M  CHG  1  10   1
M  END
> <i_f3d_flags>
0

> <chiral flag>
1

> <version>
0

> <s_i_glide_gridfile>
base1a_gride_6

> <i_i_glide_lignum>
9

> <i_i_glide_rotatable_bonds>
8

> <r_i_docking_score>
-4.16346494821456

> <r_i_glide_ligand_efficiency>
-0.122454851418075

> <r_i_glide_ligand_efficiency_sa>
-0.396706181311368

> <r_i_glide_ligand_efficiency_ln>
-0.919826188296749

> <r_glide_XP_GScore>
-4.71926494821456

> <r_i_glide_gscore>
-4.71926494821456

> <r_i_glide_evdw>
-24.5556945800781

> <r_i_glide_ecoul>
-21.8089714050293

> <r_i_glide_energy>
-46.3646659851074

> <r_i_glide_einternal>
3.14688198898942

> <r_i_glide_emodel>
-52.1241607666016

> <r_glide_XP_HBond>
-0.165890197490809

> <i_i_glide_confnum>
1

> <i_i_glide_posenum>
4

> <r_i_glide_eff_state_penalty>
0.5558

> <i_glide_XP_PoseRank>
1

> <s_m_source_file>
glide-dock_pose_2-0005_raw.maegz

> <i_m_source_file_index>
1

> <i_lp_mmshare_version>
42013

> <s_epik_input>
W0NIM11bQ0gyXVtDSDJdYzFbY0hdYyhbbkhdbjEpW0NIMl1bTkhdW0NIMl1bQ0BASF0oW09IXSlbQ0BASF0yW0NIMl1bQ0BIXShbQ0gzXSlbQ0gyXVtDSDJdW0NIMl1bQ0gyXVtDSDJdW0NIMl1PW0NIMl1DKD1PKU4oW0NIM10pW0NAQEhdKFtDSDNdKUMoPU8pW05IXTI=

> <s_epik_cmdline>
J2VwaWtfcHl0aG9uJywgJy1waCcsICc3LjAnLCAnLXRuJywgJzgnLCAnLW1hJywgJzIwMCcsICctaW1hZScsICc8aW5maWxlLm1hZT4nLCAnLW9tYWUnLCAnPG91dGZpbGUubWFlPic=

> <r_lp_tautomer_probability>
0.5

> <r_epik_Ionization_Penalty>
0.0566359

> <r_epik_Ionization_Penalty_Charging>
0.0566351

> <r_epik_Ionization_Penalty_Neutral>
8.45617e-07

> <r_epik_State_Penalty>
0.422753

> <r_epik_Charging_Adjusted_Penalty>
0.479388

> <i_epik_Tot_Q>
1

> <i_epik_Tot_abs_Q>
1

> <i_f3d_flags>
0

> <s_lp_Force_Field>
OPLS_2005

> <r_lp_Energy>
34.0158

> <b_lp_Chiralities_Consistent>
1

> <s_lp_Variant>
BACE_5.smi:1-1

$$$$
BACE_5.smi:1
                    3D
 Structure written by MMmdl.
 80 81  0  0  1  0            999 V2000
   -5.6546    3.1956   -2.0218 C   0  0  0  0  0  0
   -6.2909    2.2972   -0.9524 C   0  0  0  0  0  0
   -5.5881    0.9389   -0.7866 C   0  0  0  0  0  0
   -4.1631    1.0674   -0.3206 C   0  0  0  0  0  0
   -2.9709    0.9484   -1.0940 C   0  0  0  0  0  0
   -1.9625    1.1581   -0.1958 C   0  0  0  0  0  0
   -2.5699    1.3798    1.0190 N   0  0  0  0  0  0
   -3.9125    1.3251    0.9550 N   0  0  0  0  0  0
   -0.4810    1.1696   -0.3625 C   0  0  0  0  0  0
    0.0733   -0.1922   -0.2499 N   0  3  0  0  0  0
    1.5452   -0.2502   -0.3408 C   0  0  0  0  0  0
    2.0595   -1.6951   -0.1733 C   0  0  2  0  0  0
    3.5986   -1.7992   -0.0214 C   0  0  2  0  0  0
    4.1844   -3.2378    0.0424 C   0  0  0  0  0  0
    3.6411   -4.2646    1.0750 C   0  0  1  0  0  0
    3.5205   -3.7169    2.5115 C   0  0  0  0  0  0
    3.4447   -4.8063    3.5953 C   0  0  0  0  0  0
    3.2114   -4.2178    4.9928 C   0  0  0  0  0  0
    1.7266   -3.9486    5.2993 C   0  0  0  0  0  0
    1.5397   -3.0268    6.5157 C   0  0  0  0  0  0
    1.3160   -1.5524    6.1452 C   0  0  0  0  0  0
    2.2430   -1.1356    5.1543 O   0  0  0  0  0  0
    2.3843    0.2741    5.0890 C   0  0  0  0  0  0
    3.0827    0.6671    3.7803 C   0  0  0  0  0  0
    2.4079    1.2808    2.9513 O   0  0  0  0  0  0
    4.3959    0.3705    3.5705 N   0  0  0  0  0  0
    5.0809    0.9058    2.3575 C   0  0  2  0  0  0
    4.7323    0.1644    1.0467 C   0  0  0  0  0  0
    5.0368    0.6865   -0.0258 O   0  0  0  0  0  0
    4.0690   -1.0044    1.1175 N   0  0  0  0  0  0
    6.6237    0.9154    2.4864 C   0  0  0  0  0  0
    5.1932   -0.4279    4.5177 C   0  0  0  0  0  0
    2.3584   -4.9763    0.6004 C   0  0  0  0  0  0
    1.6667   -2.4122   -1.3283 O   0  0  0  0  0  0
   -2.0901    1.5699    1.8876 H   0  0  0  0  0  0
    1.5775   -2.1307    0.7007 H   0  0  0  0  0  0
    4.0220   -1.3691   -0.9309 H   0  0  0  0  0  0
    4.4031   -5.0448    1.1069 H   0  0  0  0  0  0
    4.7774    1.9467    2.2281 H   0  0  0  0  0  0
   -6.2156    4.1239   -2.1293 H   0  0  0  0  0  0
   -5.6413    2.7014   -2.9934 H   0  0  0  0  0  0
   -4.6289    3.4599   -1.7642 H   0  0  0  0  0  0
   -6.3041    2.8238    0.0028 H   0  0  0  0  0  0
   -7.3344    2.1235   -1.2172 H   0  0  0  0  0  0
   -6.1519    0.3305   -0.0785 H   0  0  0  0  0  0
   -5.6206    0.3972   -1.7324 H   0  0  0  0  0  0
   -2.8753    0.7442   -2.1502 H   0  0  0  0  0  0
   -0.2198    1.5871   -1.3357 H   0  0  0  0  0  0
   -0.0264    1.8117    0.3936 H   0  0  0  0  0  0
    1.8814    0.1736   -1.2883 H   0  0  0  0  0  0
    1.9365    0.3905    0.4475 H   0  0  0  0  0  0
    4.1131   -3.6837   -0.9504 H   0  0  0  0  0  0
    5.2581   -3.1396    0.2111 H   0  0  0  0  0  0
    4.3923   -3.1005    2.7324 H   0  0  0  0  0  0
    2.6548   -3.0585    2.5839 H   0  0  0  0  0  0
    2.6641   -5.5340    3.3753 H   0  0  0  0  0  0
    4.3842   -5.3603    3.5950 H   0  0  0  0  0  0
    3.5968   -4.9096    5.7426 H   0  0  0  0  0  0
    3.7995   -3.3061    5.1026 H   0  0  0  0  0  0
    1.2173   -3.5249    4.4330 H   0  0  0  0  0  0
    1.2373   -4.9045    5.4903 H   0  0  0  0  0  0
    0.6814   -3.3652    7.0970 H   0  0  0  0  0  0
    2.3985   -3.1158    7.1823 H   0  0  0  0  0  0
    0.3058   -1.4066    5.7605 H   0  0  0  0  0  0
    1.4081   -0.9445    7.0473 H   0  0  0  0  0  0
    1.4025    0.7511    5.1187 H   0  0  0  0  0  0
    2.9468    0.6449    5.9470 H   0  0  0  0  0  0
    3.8580   -1.3667    2.0365 H   0  0  0  0  0  0
    7.0833    1.4161    1.6332 H   0  0  0  0  0  0
    7.0502   -0.0871    2.5308 H   0  0  0  0  0  0
    6.9457    1.4645    3.3715 H   0  0  0  0  0  0
    5.9187    0.2021    5.0322 H   0  0  0  0  0  0
    5.7320   -1.2141    3.9892 H   0  0  0  0  0  0
    4.6263   -0.9355    5.2932 H   0  0  0  0  0  0
    1.4745   -4.3485    0.6917 H   0  0  0  0  0  0
    2.1685   -5.8782    1.1814 H   0  0  0  0  0  0
    2.4407   -5.2876   -0.4412 H   0  0  0  0  0  0
    2.1464   -2.0767   -2.0707 H   0  0  0  0  0  0
   -0.2064   -0.5780    0.6405 H   0  0  0  0  0  0
   -0.3178   -0.7641   -0.9851 H   0  0  0  0  0  0
  1  2  1  0  0  0
  1 40  1  0  0  0
  1 41  1  0  0  0
  1 42  1  0  0  0
  2  3  1  0  0  0
  2 43  1  0  0  0
  2 44  1  0  0  0
  3 45  1  0  0  0
  3 46  1  0  0  0
  3  4  1  0  0  0
  4  8  2  0  0  0
  4  5  1  0  0  0
  5  6  2  0  0  0
  5 47  1  0  0  0
  6  7  1  0  0  0
  6  9  1  0  0  0
  7  8  1  0  0  0
  7 35  1  0  0  0
  9 10  1  0  0  0
  9 48  1  0  0  0
  9 49  1  0  0  0
 10 11  1  0  0  0
 10 79  1  0  0  0
 10 80  1  0  0  0
 11 12  1  0  0  0
 11 50  1  0  0  0
 11 51  1  0  0  0
 12 36  1  0  0  0
 12 13  1  0  0  0
 12 34  1  0  0  0
 13 37  1  0  0  0
 13 30  1  0  0  0
 13 14  1  0  0  0
 14 15  1  0  0  0
 14 52  1  0  0  0
 14 53  1  0  0  0
 15 38  1  0  0  0
 15 16  1  0  0  0
 15 33  1  0  0  0
 16 17  1  0  0  0
 16 54  1  0  0  0
 16 55  1  0  0  0
 17 18  1  0  0  0
 17 56  1  0  0  0
 17 57  1  0  0  0
 18 19  1  0  0  0
 18 58  1  0  0  0
 18 59  1  0  0  0
 19 20  1  0  0  0
 19 60  1  0  0  0
 19 61  1  0  0  0
 20 21  1  0  0  0
 20 62  1  0  0  0
 20 63  1  0  0  0
 21 22  1  0  0  0
 21 64  1  0  0  0
 21 65  1  0  0  0
 22 23  1  0  0  0
 23 24  1  0  0  0
 23 66  1  0  0  0
 23 67  1  0  0  0
 24 25  2  0  0  0
 24 26  1  0  0  0
 26 27  1  0  0  0
 26 32  1  0  0  0
 27 39  1  0  0  0
 27 28  1  0  0  0
 27 31  1  0  0  0
 28 29  2  0  0  0
 28 30  1  0  0  0
 30 68  1  0  0  0
 31 69  1  0  0  0
 31 70  1  0  0  0
 31 71  1  0  0  0
 32 72  1  0  0  0
 32 73  1  0  0  0
 32 74  1  0  0  0
 33 75  1  0  0  0
 33 76  1  0  0  0
 33 77  1  0  0  0
 34 78  1  0  0  0
M  CHG  1  10   1
M  END
> <i_f3d_flags>
0

> <chiral flag>
1

> <version>
0

> <s_i_glide_gridfile>
base1a_gride_6

> <i_i_glide_lignum>
9

> <i_i_glide_rotatable_bonds>
8

> <r_i_docking_score>
-4.16346494821456

> <r_i_glide_ligand_efficiency>
-0.122454851418075

> <r_i_glide_ligand_efficiency_sa>
-0.396706181311368

> <r_i_glide_ligand_efficiency_ln>
-0.919826188296749

> <r_glide_XP_GScore>
-4.71926494821456

> <r_i_glide_gscore>
-4.71926494821456

> <r_i_glide_evdw>
-24.5556945800781

> <r_i_glide_ecoul>
-21.8089714050293

> <r_i_glide_energy>
-46.3646659851074

> <r_i_glide_einternal>
3.14688198898942

> <r_i_glide_emodel>
-52.1241607666016

> <r_glide_XP_HBond>
-0.165890197490809

> <i_i_glide_confnum>
1

> <i_i_glide_posenum>
4

> <r_i_glide_eff_state_penalty>
0.5558

> <i_glide_XP_PoseRank>
1

> <s_m_source_file>
glide-dock_pose_2-0005_raw.maegz

> <i_m_source_file_index>
1

> <i_lp_mmshare_version>
42013

> <s_epik_input>
W0NIM11bQ0gyXVtDSDJdYzFbY0hdYyhbbkhdbjEpW0NIMl1bTkhdW0NIMl1bQ0BASF0oW09IXSlbQ0BASF0yW0NIMl1bQ0BIXShbQ0gzXSlbQ0gyXVtDSDJdW0NIMl1bQ0gyXVtDSDJdW0NIMl1PW0NIMl1DKD1PKU4oW0NIM10pW0NAQEhdKFtDSDNdKUMoPU8pW05IXTI=

> <s_epik_cmdline>
J2VwaWtfcHl0aG9uJywgJy1waCcsICc3LjAnLCAnLXRuJywgJzgnLCAnLW1hJywgJzIwMCcsICctaW1hZScsICc8aW5maWxlLm1hZT4nLCAnLW9tYWUnLCAnPG91dGZpbGUubWFlPic=

> <r_lp_tautomer_probability>
0.5

> <r_epik_Ionization_Penalty>
0.124002

> <r_epik_Ionization_Penalty_Charging>
0.123996

> <r_epik_Ionization_Penalty_Neutral>
5.69922e-06

> <r_epik_State_Penalty>
0.555823

> <r_epik_Charging_Adjusted_Penalty>
0.67982

> <i_epik_Tot_Q>
1

> <i_epik_Tot_abs_Q>
1

> <i_f3d_flags>
0

> <s_lp_Force_Field>
OPLS_2005

> <r_lp_Energy>
33.6695

> <b_lp_Chiralities_Consistent>
1

> <s_lp_Variant>
BACE_5.smi:1-2

$$$$
BACE_5.smi:1
                    3D
 Structure written by MMmdl.
 79 80  0  0  1  0            999 V2000
   -4.9194    0.4144   -3.8411 C   0  0  0  0  0  0
   -3.4505    0.6497   -3.4722 C   0  0  0  0  0  0
   -3.2762    1.7458   -2.4103 C   0  0  0  0  0  0
   -1.8322    1.9553   -2.0491 C   0  0  0  0  0  0
   -1.1311    1.4543   -0.9132 C   0  0  0  0  0  0
    0.1437    1.9221   -1.0693 C   0  0  0  0  0  0
    0.1448    2.6506   -2.2365 N   0  0  0  0  0  0
   -1.0555    2.6778   -2.8446 N   0  0  0  0  0  0
    1.3702    1.7492   -0.2344 C   0  0  0  0  0  0
    1.7309    0.3478   -0.0416 N   0  0  0  0  0  0
    2.2990   -0.2990   -1.2264 C   0  0  0  0  0  0
    2.7453   -1.7511   -0.9400 C   0  0  2  0  0  0
    4.1305   -1.8766   -0.2478 C   0  0  2  0  0  0
    4.6438   -3.3252    0.0108 C   0  0  0  0  0  0
    3.7513   -4.3566    0.7591 C   0  0  1  0  0  0
    3.1461   -3.8017    2.0603 C   0  0  0  0  0  0
    2.3802   -4.8208    2.9279 C   0  0  0  0  0  0
    1.9930   -4.2627    4.3106 C   0  0  0  0  0  0
    0.9814   -3.1032    4.2508 C   0  0  0  0  0  0
    0.8563   -2.3323    5.5757 C   0  0  0  0  0  0
    0.1927   -0.9564    5.3842 C   0  0  0  0  0  0
    0.9568   -0.1578    4.4884 O   0  0  0  0  0  0
    2.0168    0.5643    5.0974 C   0  0  0  0  0  0
    2.9364    1.0989    3.9879 C   0  0  0  0  0  0
    2.6972    2.2238    3.5477 O   0  0  0  0  0  0
    3.9500    0.3241    3.5147 N   0  0  0  0  0  0
    4.8624    0.8029    2.4498 C   0  0  2  0  0  0
    5.1392   -0.1637    1.2775 C   0  0  0  0  0  0
    6.1900   -0.0696    0.6430 O   0  0  0  0  0  0
    4.1804   -1.0542    0.9658 N   0  0  0  0  0  0
    6.1023    1.4810    3.0634 C   0  0  0  0  0  0
    4.3015   -0.9472    4.1585 C   0  0  0  0  0  0
    2.7133   -5.0407   -0.1520 C   0  0  0  0  0  0
    2.8310   -2.3962   -2.1949 O   0  0  0  0  0  0
    0.9475    3.1235   -2.6267 H   0  0  0  0  0  0
    1.9692   -2.2385   -0.3532 H   0  0  0  0  0  0
    4.8424   -1.4430   -0.9530 H   0  0  0  0  0  0
    4.4331   -5.1552    1.0551 H   0  0  0  0  0  0
    4.3564    1.6055    1.9113 H   0  0  0  0  0  0
   -5.0097   -0.3674   -4.5956 H   0  0  0  0  0  0
   -5.3738    1.3200   -4.2442 H   0  0  0  0  0  0
   -5.4997    0.1054   -2.9712 H   0  0  0  0  0  0
   -3.0190   -0.2832   -3.1073 H   0  0  0  0  0  0
   -2.8940    0.9165   -4.3716 H   0  0  0  0  0  0
   -3.7075    2.6796   -2.7733 H   0  0  0  0  0  0
   -3.8423    1.4800   -1.5169 H   0  0  0  0  0  0
   -1.5059    0.8391   -0.1085 H   0  0  0  0  0  0
    2.2078    2.2989   -0.6660 H   0  0  0  0  0  0
    1.1872    2.2028    0.7399 H   0  0  0  0  0  0
    1.5474   -0.3018   -2.0173 H   0  0  0  0  0  0
    3.1429    0.2768   -1.6085 H   0  0  0  0  0  0
    4.9334   -3.7614   -0.9461 H   0  0  0  0  0  0
    5.5830   -3.2416    0.5597 H   0  0  0  0  0  0
    3.9573   -3.3826    2.6543 H   0  0  0  0  0  0
    2.4833   -2.9776    1.8079 H   0  0  0  0  0  0
    1.4827   -5.1595    2.4095 H   0  0  0  0  0  0
    3.0036   -5.7039    3.0722 H   0  0  0  0  0  0
    1.5782   -5.0641    4.9228 H   0  0  0  0  0  0
    2.9009   -3.9377    4.8197 H   0  0  0  0  0  0
    1.2849   -2.3984    3.4811 H   0  0  0  0  0  0
    0.0042   -3.4734    3.9394 H   0  0  0  0  0  0
    0.2830   -2.9257    6.2886 H   0  0  0  0  0  0
    1.8412   -2.1974    6.0222 H   0  0  0  0  0  0
   -0.7993   -1.0934    4.9530 H   0  0  0  0  0  0
    0.0502   -0.4477    6.3389 H   0  0  0  0  0  0
    1.5964    1.4035    5.6533 H   0  0  0  0  0  0
    2.5632   -0.0338    5.8249 H   0  0  0  0  0  0
    3.3639   -1.0861    1.5593 H   0  0  0  0  0  0
    6.7406    1.9244    2.2986 H   0  0  0  0  0  0
    6.7047    0.7678    3.6268 H   0  0  0  0  0  0
    5.8140    2.2825    3.7443 H   0  0  0  0  0  0
    4.6053   -0.7829    5.1929 H   0  0  0  0  0  0
    5.1362   -1.4510    3.6719 H   0  0  0  0  0  0
    3.4565   -1.6316    4.1507 H   0  0  0  0  0  0
    1.8559   -4.4066   -0.3654 H   0  0  0  0  0  0
    2.3280   -5.9489    0.3114 H   0  0  0  0  0  0
    3.1558   -5.3364   -1.1035 H   0  0  0  0  0  0
    3.4870   -1.9569   -2.7142 H   0  0  0  0  0  0
    2.3731    0.2666    0.7397 H   0  0  0  0  0  0
  1  2  1  0  0  0
  1 40  1  0  0  0
  1 41  1  0  0  0
  1 42  1  0  0  0
  2  3  1  0  0  0
  2 43  1  0  0  0
  2 44  1  0  0  0
  3 45  1  0  0  0
  3 46  1  0  0  0
  3  4  1  0  0  0
  4  8  2  0  0  0
  4  5  1  0  0  0
  5  6  2  0  0  0
  5 47  1  0  0  0
  6  7  1  0  0  0
  6  9  1  0  0  0
  7  8  1  0  0  0
  7 35  1  0  0  0
  9 10  1  0  0  0
  9 48  1  0  0  0
  9 49  1  0  0  0
 10 11  1  0  0  0
 10 79  1  0  0  0
 11 12  1  0  0  0
 11 50  1  0  0  0
 11 51  1  0  0  0
 12 36  1  0  0  0
 12 13  1  0  0  0
 12 34  1  0  0  0
 13 37  1  0  0  0
 13 30  1  0  0  0
 13 14  1  0  0  0
 14 15  1  0  0  0
 14 52  1  0  0  0
 14 53  1  0  0  0
 15 38  1  0  0  0
 15 16  1  0  0  0
 15 33  1  0  0  0
 16 17  1  0  0  0
 16 54  1  0  0  0
 16 55  1  0  0  0
 17 18  1  0  0  0
 17 56  1  0  0  0
 17 57  1  0  0  0
 18 19  1  0  0  0
 18 58  1  0  0  0
 18 59  1  0  0  0
 19 20  1  0  0  0
 19 60  1  0  0  0
 19 61  1  0  0  0
 20 21  1  0  0  0
 20 62  1  0  0  0
 20 63  1  0  0  0
 21 22  1  0  0  0
 21 64  1  0  0  0
 21 65  1  0  0  0
 22 23  1  0  0  0
 23 24  1  0  0  0
 23 66  1  0  0  0
 23 67  1  0  0  0
 24 25  2  0  0  0
 24 26  1  0  0  0
 26 27  1  0  0  0
 26 32  1  0  0  0
 27 39  1  0  0  0
 27 28  1  0  0  0
 27 31  1  0  0  0
 28 29  2  0  0  0
 28 30  1  0  0  0
 30 68  1  0  0  0
 31 69  1  0  0  0
 31 70  1  0  0  0
 31 71  1  0  0  0
 32 72  1  0  0  0
 32 73  1  0  0  0
 32 74  1  0  0  0
 33 75  1  0  0  0
 33 76  1  0  0  0
 33 77  1  0  0  0
 34 78  1  0  0  0
M  END
> <i_f3d_flags>
0

> <chiral flag>
1

> <version>
0

> <s_i_glide_gridfile>
base1a_gride_6

> <i_i_glide_lignum>
9

> <i_i_glide_rotatable_bonds>
8

> <r_i_docking_score>
-4.16346494821456

> <r_i_glide_ligand_efficiency>
-0.122454851418075

> <r_i_glide_ligand_efficiency_sa>
-0.396706181311368

> <r_i_glide_ligand_efficiency_ln>
-0.919826188296749

> <r_glide_XP_GScore>
-4.71926494821456

> <r_i_glide_gscore>
-4.71926494821456

> <r_i_glide_evdw>
-24.5556945800781

> <r_i_glide_ecoul>
-21.8089714050293

> <r_i_glide_energy>
-46.3646659851074

> <r_i_glide_einternal>
3.14688198898942

> <r_i_glide_emodel>
-52.1241607666016

> <r_glide_XP_HBond>
-0.165890197490809

> <i_i_glide_confnum>
1

> <i_i_glide_posenum>
4

> <r_i_glide_eff_state_penalty>
0.5558

> <i_glide_XP_PoseRank>
1

> <s_m_source_file>
glide-dock_pose_2-0005_raw.maegz

> <i_m_source_file_index>
1

> <i_lp_mmshare_version>
42013

> <s_epik_input>
W0NIM11bQ0gyXVtDSDJdYzFbY0hdYyhbbkhdbjEpW0NIMl1bTkhdW0NIMl1bQ0BASF0oW09IXSlbQ0BASF0yW0NIMl1bQ0BIXShbQ0gzXSlbQ0gyXVtDSDJdW0NIMl1bQ0gyXVtDSDJdW0NIMl1PW0NIMl1DKD1PKU4oW0NIM10pW0NAQEhdKFtDSDNdKUMoPU8pW05IXTI=

> <s_epik_cmdline>
J2VwaWtfcHl0aG9uJywgJy1waCcsICc3LjAnLCAnLXRuJywgJzgnLCAnLW1hJywgJzIwMCcsICctaW1hZScsICc8aW5maWxlLm1hZT4nLCAnLW9tYWUnLCAnPG91dGZpbGUubWFlPic=

> <r_lp_tautomer_probability>
0.5

> <r_epik_Ionization_Penalty>
0.987641

> <r_epik_Ionization_Penalty_Charging>
0

> <r_epik_Ionization_Penalty_Neutral>
0.987641

> <r_epik_State_Penalty>
1.61044

> <r_epik_Charging_Adjusted_Penalty>
1.61044

> <i_epik_Tot_Q>
0

> <i_epik_Tot_abs_Q>
0

> <i_f3d_flags>
0

> <s_lp_Force_Field>
OPLS_2005

> <r_lp_Energy>
32.4036

> <b_lp_Chiralities_Consistent>
1

> <s_lp_Variant>
BACE_5.smi:1-3

$$$$
BACE_5.smi:1
                    3D
 Structure written by MMmdl.
 79 80  0  0  1  0            999 V2000
   -3.9969   -0.0354   -1.3533 C   0  0  0  0  0  0
   -4.3968    1.2969   -0.7033 C   0  0  0  0  0  0
   -3.7512    2.5244   -1.3699 C   0  0  0  0  0  0
   -2.2634    2.6097   -1.2266 C   0  0  0  0  0  0
   -1.3945    2.0548   -0.3281 C   0  0  0  0  0  0
   -0.1121    2.5297   -0.7318 C   0  0  0  0  0  0
   -0.1794    3.3276   -1.7867 N   0  0  0  0  0  0
   -1.4935    3.3723   -2.0749 N   0  0  0  0  0  0
    1.2253    2.2296   -0.1128 C   0  0  0  0  0  0
    1.4366    0.7998    0.0973 N   0  0  0  0  0  0
    1.7157    0.0458   -1.1260 C   0  0  0  0  0  0
    1.9724   -1.4511   -0.8421 C   0  0  2  0  0  0
    3.4028   -1.7769   -0.3318 C   0  0  2  0  0  0
    3.7258   -3.2832   -0.1083 C   0  0  0  0  0  0
    2.8053   -4.1549    0.7915 C   0  0  1  0  0  0
    2.4488   -3.4891    2.1341 C   0  0  0  0  0  0
    1.7844   -4.4177    3.1663 C   0  0  0  0  0  0
    1.5591   -3.7245    4.5194 C   0  0  0  0  0  0
    0.4124   -2.6950    4.4991 C   0  0  0  0  0  0
    0.3372   -1.8151    5.7584 C   0  0  0  0  0  0
    1.2853   -0.6050    5.7283 C   0  0  0  0  0  0
    2.6362   -1.0324    5.8473 O   0  0  0  0  0  0
    3.5977    0.0163    5.8893 C   0  0  0  0  0  0
    3.8057    0.6433    4.4975 C   0  0  0  0  0  0
    3.2748    1.7339    4.2835 O   0  0  0  0  0  0
    4.5664    0.0015    3.5707 N   0  0  0  0  0  0
    4.9028    0.6480    2.2795 C   0  0  2  0  0  0
    4.8407   -0.2406    1.0223 C   0  0  0  0  0  0
    5.7729   -0.2377    0.2181 O   0  0  0  0  0  0
    3.7335   -0.9836    0.8560 N   0  0  0  0  0  0
    6.1763    1.5046    2.4220 C   0  0  0  0  0  0
    5.2344   -1.2699    3.8852 C   0  0  0  0  0  0
    1.5743   -4.7048    0.0444 C   0  0  0  0  0  0
    1.7904   -2.1229   -2.0724 O   0  0  0  0  0  0
   -1.8473    3.9174   -2.8482 H   0  0  0  0  0  0
    1.2169   -1.8047   -0.1432 H   0  0  0  0  0  0
    4.0728   -1.4552   -1.1315 H   0  0  0  0  0  0
    3.4051   -5.0335    1.0334 H   0  0  0  0  0  0
    4.1150    1.3669    2.0475 H   0  0  0  0  0  0
   -4.5036   -0.8699   -0.8683 H   0  0  0  0  0  0
   -2.9243   -0.2141   -1.2786 H   0  0  0  0  0  0
   -4.2656   -0.0533   -2.4097 H   0  0  0  0  0  0
   -5.4810    1.3968   -0.7614 H   0  0  0  0  0  0
   -4.1530    1.2783    0.3596 H   0  0  0  0  0  0
   -4.0167    2.5395   -2.4275 H   0  0  0  0  0  0
   -4.1912    3.4250   -0.9414 H   0  0  0  0  0  0
   -1.6344    1.3983    0.4950 H   0  0  0  0  0  0
    1.2816    2.7369    0.8505 H   0  0  0  0  0  0
    2.0364    2.6449   -0.7125 H   0  0  0  0  0  0
    0.8630    0.1426   -1.7997 H   0  0  0  0  0  0
    2.5707    0.4740   -1.6509 H   0  0  0  0  0  0
    3.8090   -3.7668   -1.0821 H   0  0  0  0  0  0
    4.7352   -3.3387    0.3026 H   0  0  0  0  0  0
    3.3653   -3.0988    2.5737 H   0  0  0  0  0  0
    1.8068   -2.6299    1.9502 H   0  0  0  0  0  0
    0.8344   -4.7982    2.7909 H   0  0  0  0  0  0
    2.4244   -5.2871    3.3207 H   0  0  0  0  0  0
    1.3346   -4.4788    5.2743 H   0  0  0  0  0  0
    2.4936   -3.2637    4.8337 H   0  0  0  0  0  0
    0.4775   -2.0485    3.6250 H   0  0  0  0  0  0
   -0.5271   -3.2382    4.3921 H   0  0  0  0  0  0
   -0.6807   -1.4329    5.8400 H   0  0  0  0  0  0
    0.5044   -2.4123    6.6554 H   0  0  0  0  0  0
    1.1294   -0.0349    4.8117 H   0  0  0  0  0  0
    1.0460    0.0568    6.5618 H   0  0  0  0  0  0
    3.2884    0.7828    6.6019 H   0  0  0  0  0  0
    4.5380   -0.3769    6.2743 H   0  0  0  0  0  0
    3.0296   -0.9444    1.5792 H   0  0  0  0  0  0
    6.4023    2.0426    1.5006 H   0  0  0  0  0  0
    7.0414    0.8884    2.6689 H   0  0  0  0  0  0
    6.0640    2.2500    3.2098 H   0  0  0  0  0  0
    6.0045   -1.1136    4.6412 H   0  0  0  0  0  0
    5.7334   -1.7204    3.0282 H   0  0  0  0  0  0
    4.5287   -2.0077    4.2658 H   0  0  0  0  0  0
    0.8003   -3.9540   -0.0987 H   0  0  0  0  0  0
    1.1200   -5.5302    0.5922 H   0  0  0  0  0  0
    1.8479   -5.0926   -0.9371 H   0  0  0  0  0  0
    2.4276   -1.7966   -2.6891 H   0  0  0  0  0  0
    2.1846    0.6608    0.7687 H   0  0  0  0  0  0
  1  2  1  0  0  0
  1 40  1  0  0  0
  1 41  1  0  0  0
  1 42  1  0  0  0
  2  3  1  0  0  0
  2 43  1  0  0  0
  2 44  1  0  0  0
  3 45  1  0  0  0
  3 46  1  0  0  0
  3  4  1  0  0  0
  4  8  1  0  0  0
  4  5  2  0  0  0
  5  6  1  0  0  0
  5 47  1  0  0  0
  6  9  1  0  0  0
  6  7  2  0  0  0
  7  8  1  0  0  0
  8 35  1  0  0  0
  9 10  1  0  0  0
  9 48  1  0  0  0
  9 49  1  0  0  0
 10 11  1  0  0  0
 10 79  1  0  0  0
 11 12  1  0  0  0
 11 50  1  0  0  0
 11 51  1  0  0  0
 12 36  1  0  0  0
 12 13  1  0  0  0
 12 34  1  0  0  0
 13 37  1  0  0  0
 13 30  1  0  0  0
 13 14  1  0  0  0
 14 15  1  0  0  0
 14 52  1  0  0  0
 14 53  1  0  0  0
 15 38  1  0  0  0
 15 16  1  0  0  0
 15 33  1  0  0  0
 16 17  1  0  0  0
 16 54  1  0  0  0
 16 55  1  0  0  0
 17 18  1  0  0  0
 17 56  1  0  0  0
 17 57  1  0  0  0
 18 19  1  0  0  0
 18 58  1  0  0  0
 18 59  1  0  0  0
 19 20  1  0  0  0
 19 60  1  0  0  0
 19 61  1  0  0  0
 20 21  1  0  0  0
 20 62  1  0  0  0
 20 63  1  0  0  0
 21 22  1  0  0  0
 21 64  1  0  0  0
 21 65  1  0  0  0
 22 23  1  0  0  0
 23 24  1  0  0  0
 23 66  1  0  0  0
 23 67  1  0  0  0
 24 25  2  0  0  0
 24 26  1  0  0  0
 26 27  1  0  0  0
 26 32  1  0  0  0
 27 39  1  0  0  0
 27 28  1  0  0  0
 27 31  1  0  0  0
 28 29  2  0  0  0
 28 30  1  0  0  0
 30 68  1  0  0  0
 31 69  1  0  0  0
 31 70  1  0  0  0
 31 71  1  0  0  0
 32 72  1  0  0  0
 32 73  1  0  0  0
 32 74  1  0  0  0
 33 75  1  0  0  0
 33 76  1  0  0  0
 33 77  1  0  0  0
 34 78  1  0  0  0
M  END
> <i_f3d_flags>
0

> <chiral flag>
1

> <version>
0

> <s_i_glide_gridfile>
base1a_gride_6

> <i_i_glide_lignum>
9

> <i_i_glide_rotatable_bonds>
8

> <r_i_docking_score>
-4.16346494821456

> <r_i_glide_ligand_efficiency>
-0.122454851418075

> <r_i_glide_ligand_efficiency_sa>
-0.396706181311368

> <r_i_glide_ligand_efficiency_ln>
-0.919826188296749

> <r_glide_XP_GScore>
-4.71926494821456

> <r_i_glide_gscore>
-4.71926494821456

> <r_i_glide_evdw>
-24.5556945800781

> <r_i_glide_ecoul>
-21.8089714050293

> <r_i_glide_energy>
-46.3646659851074

> <r_i_glide_einternal>
3.14688198898942

> <r_i_glide_emodel>
-52.1241607666016

> <r_glide_XP_HBond>
-0.165890197490809

> <i_i_glide_confnum>
1

> <i_i_glide_posenum>
4

> <r_i_glide_eff_state_penalty>
0.5558

> <i_glide_XP_PoseRank>
1

> <s_m_source_file>
glide-dock_pose_2-0005_raw.maegz

> <i_m_source_file_index>
1

> <i_lp_mmshare_version>
42013

> <s_epik_input>
W0NIM11bQ0gyXVtDSDJdYzFbY0hdYyhbbkhdbjEpW0NIMl1bTkhdW0NIMl1bQ0BASF0oW09IXSlbQ0BASF0yW0NIMl1bQ0BIXShbQ0gzXSlbQ0gyXVtDSDJdW0NIMl1bQ0gyXVtDSDJdW0NIMl1PW0NIMl1DKD1PKU4oW0NIM10pW0NAQEhdKFtDSDNdKUMoPU8pW05IXTI=

> <s_epik_cmdline>
J2VwaWtfcHl0aG9uJywgJy1waCcsICc3LjAnLCAnLXRuJywgJzgnLCAnLW1hJywgJzIwMCcsICctaW1hZScsICc8aW5maWxlLm1hZT4nLCAnLW9tYWUnLCAnPG91dGZpbGUubWFlPic=

> <r_lp_tautomer_probability>
0.5

> <r_epik_Ionization_Penalty>
1.41911

> <r_epik_Ionization_Penalty_Charging>
0

> <r_epik_Ionization_Penalty_Neutral>
1.41911

> <r_epik_State_Penalty>
1.74351

> <r_epik_Charging_Adjusted_Penalty>
1.74351

> <i_epik_Tot_Q>
0

> <i_epik_Tot_abs_Q>
0

> <i_f3d_flags>
0

> <s_lp_Force_Field>
OPLS_2005

> <r_lp_Energy>
36.9142

> <b_lp_Chiralities_Consistent>
1

> <s_lp_Variant>
BACE_5.smi:1-4

$$$$
BACE_5.smi:1
                    3D
 Structure written by MMmdl.
 80 81  0  0  1  0            999 V2000
    0.3881    2.9042   -6.3264 C   0  0  0  0  0  0
   -0.0684    2.0751   -5.1210 C   0  0  0  0  0  0
   -0.9088    2.8900   -4.1273 C   0  0  0  0  0  0
   -1.3623    2.0888   -2.9522 C   0  0  0  0  0  0
   -0.8949    2.0238   -1.6701 C   0  0  0  0  0  0
   -1.7348    1.0609   -1.0375 C   0  0  0  0  0  0
   -2.6519    0.5709   -1.8588 N   0  0  0  0  0  0
   -2.4155    1.2057   -3.0220 N   0  0  0  0  0  0
   -1.6596    0.5551    0.3763 C   0  0  0  0  0  0
   -1.0521   -0.7908    0.4403 N   0  3  0  0  0  0
    0.3621   -0.8545    0.0125 C   0  0  0  0  0  0
    0.9538   -2.2632    0.2194 C   0  0  2  0  0  0
    2.4704   -2.3525   -0.0916 C   0  0  2  0  0  0
    3.1112   -3.7639    0.0239 C   0  0  0  0  0  0
    2.9516   -4.5963    1.3265 C   0  0  1  0  0  0
    3.2314   -3.8072    2.6219 C   0  0  0  0  0  0
    3.5157   -4.6905    3.8493 C   0  0  0  0  0  0
    3.6941   -3.8640    5.1299 C   0  0  0  0  0  0
    2.3622   -3.5049    5.8144 C   0  0  0  0  0  0
    2.5260   -2.3911    6.8620 C   0  0  0  0  0  0
    2.1717   -0.9911    6.3370 C   0  0  0  0  0  0
    2.7508   -0.7678    5.0602 O   0  0  0  0  0  0
    2.8297    0.6079    4.7236 C   0  0  0  0  0  0
    3.0726    0.7627    3.2161 C   0  0  0  0  0  0
    2.1589    1.2575    2.5531 O   0  0  0  0  0  0
    4.2578    0.3928    2.6547 N   0  0  0  0  0  0
    4.5091    0.6976    1.2155 C   0  0  2  0  0  0
    3.7701   -0.2341    0.2285 C   0  0  0  0  0  0
    3.6627    0.1169   -0.9465 O   0  0  0  0  0  0
    3.2343   -1.3778    0.6935 N   0  0  0  0  0  0
    6.0107    0.6647    0.8400 C   0  0  0  0  0  0
    5.3348   -0.2553    3.4230 C   0  0  0  0  0  0
    1.6244   -5.3791    1.3794 C   0  0  0  0  0  0
    0.2653   -3.1393   -0.6528 O   0  0  0  0  0  0
   -2.9709    1.0269   -3.8469 H   0  0  0  0  0  0
    0.7686   -2.5621    1.2498 H   0  0  0  0  0  0
    2.5781   -2.0888   -1.1454 H   0  0  0  0  0  0
    3.7286   -5.3592    1.2582 H   0  0  0  0  0  0
    4.1649    1.7151    1.0187 H   0  0  0  0  0  0
    0.9819    2.2989   -7.0119 H   0  0  0  0  0  0
    1.0007    3.7503   -6.0136 H   0  0  0  0  0  0
   -0.4652    3.2946   -6.8818 H   0  0  0  0  0  0
   -0.6445    1.2188   -5.4733 H   0  0  0  0  0  0
    0.8070    1.6698   -4.6117 H   0  0  0  0  0  0
   -0.3296    3.7452   -3.7770 H   0  0  0  0  0  0
   -1.7792    3.3042   -4.6378 H   0  0  0  0  0  0
   -0.0657    2.5735   -1.2490 H   0  0  0  0  0  0
   -2.6580    0.5018    0.8113 H   0  0  0  0  0  0
   -1.0861    1.2411    1.0010 H   0  0  0  0  0  0
   -1.1063   -1.1149    1.3951 H   0  0  0  0  0  0
    0.4593   -0.5565   -1.0323 H   0  0  0  0  0  0
    0.9089   -0.1213    0.6030 H   0  0  0  0  0  0
    2.7619   -4.3705   -0.8126 H   0  0  0  0  0  0
    4.1801   -3.6471   -0.1626 H   0  0  0  0  0  0
    4.1049   -3.1730    2.4693 H   0  0  0  0  0  0
    2.3997   -3.1352    2.8326 H   0  0  0  0  0  0
    2.7265   -5.4261    4.0025 H   0  0  0  0  0  0
    4.4279   -5.2584    3.6630 H   0  0  0  0  0  0
    4.3027   -4.4272    5.8384 H   0  0  0  0  0  0
    4.2653   -2.9637    4.9013 H   0  0  0  0  0  0
    1.6098   -3.2140    5.0806 H   0  0  0  0  0  0
    1.9717   -4.4016    6.2971 H   0  0  0  0  0  0
    1.8856   -2.6044    7.7186 H   0  0  0  0  0  0
    3.5455   -2.3949    7.2499 H   0  0  0  0  0  0
    1.0897   -0.8805    6.2521 H   0  0  0  0  0  0
    2.5156   -0.2468    7.0576 H   0  0  0  0  0  0
    1.8951    1.1112    4.9798 H   0  0  0  0  0  0
    3.6229    1.0975    5.2902 H   0  0  0  0  0  0
    3.3638   -1.5900    1.6724 H   0  0  0  0  0  0
    6.1625    0.9958   -0.1882 H   0  0  0  0  0  0
    6.4435   -0.3335    0.9162 H   0  0  0  0  0  0
    6.5930    1.3399    1.4673 H   0  0  0  0  0  0
    6.1698    0.4313    3.5632 H   0  0  0  0  0  0
    5.6982   -1.1377    2.8965 H   0  0  0  0  0  0
    5.0570   -0.6027    4.4145 H   0  0  0  0  0  0
    0.7739   -4.7439    1.6186 H   0  0  0  0  0  0
    1.6579   -6.1641    2.1342 H   0  0  0  0  0  0
    1.4166   -5.8696    0.4281 H   0  0  0  0  0  0
    0.4752   -2.9053   -1.5444 H   0  0  0  0  0  0
   -1.5917   -1.4151   -0.1427 H   0  0  0  0  0  0
  1  2  1  0  0  0
  1 40  1  0  0  0
  1 41  1  0  0  0
  1 42  1  0  0  0
  2  3  1  0  0  0
  2 43  1  0  0  0
  2 44  1  0  0  0
  3 45  1  0  0  0
  3 46  1  0  0  0
  3  4  1  0  0  0
  4  8  1  0  0  0
  4  5  2  0  0  0
  5  6  1  0  0  0
  5 47  1  0  0  0
  6  9  1  0  0  0
  6  7  2  0  0  0
  7  8  1  0  0  0
  8 35  1  0  0  0
  9 10  1  0  0  0
  9 48  1  0  0  0
  9 49  1  0  0  0
 10 11  1  0  0  0
 10 50  1  0  0  0
 10 80  1  0  0  0
 11 12  1  0  0  0
 11 51  1  0  0  0
 11 52  1  0  0  0
 12 36  1  0  0  0
 12 13  1  0  0  0
 12 34  1  0  0  0
 13 37  1  0  0  0
 13 30  1  0  0  0
 13 14  1  0  0  0
 14 15  1  0  0  0
 14 53  1  0  0  0
 14 54  1  0  0  0
 15 38  1  0  0  0
 15 16  1  0  0  0
 15 33  1  0  0  0
 16 17  1  0  0  0
 16 55  1  0  0  0
 16 56  1  0  0  0
 17 18  1  0  0  0
 17 57  1  0  0  0
 17 58  1  0  0  0
 18 19  1  0  0  0
 18 59  1  0  0  0
 18 60  1  0  0  0
 19 20  1  0  0  0
 19 61  1  0  0  0
 19 62  1  0  0  0
 20 21  1  0  0  0
 20 63  1  0  0  0
 20 64  1  0  0  0
 21 22  1  0  0  0
 21 65  1  0  0  0
 21 66  1  0  0  0
 22 23  1  0  0  0
 23 24  1  0  0  0
 23 67  1  0  0  0
 23 68  1  0  0  0
 24 25  2  0  0  0
 24 26  1  0  0  0
 26 27  1  0  0  0
 26 32  1  0  0  0
 27 39  1  0  0  0
 27 28  1  0  0  0
 27 31  1  0  0  0
 28 29  2  0  0  0
 28 30  1  0  0  0
 30 69  1  0  0  0
 31 70  1  0  0  0
 31 71  1  0  0  0
 31 72  1  0  0  0
 32 73  1  0  0  0
 32 74  1  0  0  0
 32 75  1  0  0  0
 33 76  1  0  0  0
 33 77  1  0  0  0
 33 78  1  0  0  0
 34 79  1  0  0  0
M  CHG  1  10   1
M  END
> <i_f3d_flags>
0

> <chiral flag>
1

> <version>
0

> <s_i_glide_gridfile>
base1a_gride_6

> <i_i_glide_lignum>
10

> <i_i_glide_rotatable_bonds>
8

> <r_i_docking_score>
-1.83254533336587

> <r_i_glide_ligand_efficiency>
-0.0538983921578197

> <r_i_glide_ligand_efficiency_sa>
-0.174609867099109

> <r_i_glide_ligand_efficiency_ln>
-0.404860665296049

> <r_glide_XP_GScore>
-3.44294533336587

> <r_i_glide_gscore>
-3.44294533336587

> <r_i_glide_evdw>
-25.9733428955078

> <r_i_glide_ecoul>
-10.580493927002

> <r_i_glide_energy>
-36.5538368225098

> <r_i_glide_einternal>
8.03178143745392

> <r_i_glide_emodel>
-40.4468841552734

> <r_glide_XP_HBond>
-2.47982984175716

> <i_i_glide_confnum>
1

> <i_i_glide_posenum>
12

> <r_i_glide_eff_state_penalty>
1.6104

> <i_glide_XP_PoseRank>
1

> <s_m_source_file>
glide-dock_pose_2-0005_raw.maegz

> <i_m_source_file_index>
2

> <i_lp_mmshare_version>
42013

> <s_epik_input>
W0NIM11bQ0gyXVtDSDJdYzFbY0hdYyhbbkhdbjEpW0NIMl1bTkhdW0NIMl1bQ0BASF0oW09IXSlbQ0BASF0yW0NIMl1bQ0BIXShbQ0gzXSlbQ0gyXVtDSDJdW0NIMl1bQ0gyXVtDSDJdW0NIMl1PW0NIMl1DKD1PKU4oW0NIM10pW0NAQEhdKFtDSDNdKUMoPU8pW05IXTI=

> <s_epik_cmdline>
J2VwaWtfcHl0aG9uJywgJy1waCcsICc3LjAnLCAnLXRuJywgJzgnLCAnLW1hJywgJzIwMCcsICctaW1hZScsICc8aW5maWxlLm1hZT4nLCAnLW9tYWUnLCAnPG91dGZpbGUubWFlPic=

> <r_lp_tautomer_probability>
0.5

> <r_epik_Ionization_Penalty>
0.0566359

> <r_epik_Ionization_Penalty_Charging>
0.0566351

> <r_epik_Ionization_Penalty_Neutral>
8.45617e-07

> <r_epik_State_Penalty>
0.422753

> <r_epik_Charging_Adjusted_Penalty>
0.479388

> <i_epik_Tot_Q>
1

> <i_epik_Tot_abs_Q>
1

> <i_f3d_flags>
0

> <s_lp_Force_Field>
OPLS_2005

> <r_lp_Energy>
34.0158

> <b_lp_Chiralities_Consistent>
1

> <s_lp_Variant>
BACE_5.smi:1-1

$$$$
BACE_5.smi:1
                    3D
 Structure written by MMmdl.
 80 81  0  0  1  0            999 V2000
   -5.6546    3.1956   -2.0218 C   0  0  0  0  0  0
   -6.2909    2.2972   -0.9524 C   0  0  0  0  0  0
   -5.5881    0.9389   -0.7866 C   0  0  0  0  0  0
   -4.1631    1.0674   -0.3206 C   0  0  0  0  0  0
   -2.9709    0.9484   -1.0940 C   0  0  0  0  0  0
   -1.9625    1.1581   -0.1958 C   0  0  0  0  0  0
   -2.5699    1.3798    1.0190 N   0  0  0  0  0  0
   -3.9125    1.3251    0.9550 N   0  0  0  0  0  0
   -0.4810    1.1696   -0.3625 C   0  0  0  0  0  0
    0.0733   -0.1922   -0.2499 N   0  3  0  0  0  0
    1.5452   -0.2502   -0.3408 C   0  0  0  0  0  0
    2.0595   -1.6951   -0.1733 C   0  0  2  0  0  0
    3.5986   -1.7992   -0.0214 C   0  0  2  0  0  0
    4.1844   -3.2378    0.0424 C   0  0  0  0  0  0
    3.6411   -4.2646    1.0750 C   0  0  1  0  0  0
    3.5205   -3.7169    2.5115 C   0  0  0  0  0  0
    3.4447   -4.8063    3.5953 C   0  0  0  0  0  0
    3.2114   -4.2178    4.9928 C   0  0  0  0  0  0
    1.7266   -3.9486    5.2993 C   0  0  0  0  0  0
    1.5397   -3.0268    6.5157 C   0  0  0  0  0  0
    1.3160   -1.5524    6.1452 C   0  0  0  0  0  0
    2.2430   -1.1356    5.1543 O   0  0  0  0  0  0
    2.3843    0.2741    5.0890 C   0  0  0  0  0  0
    3.0827    0.6671    3.7803 C   0  0  0  0  0  0
    2.4079    1.2808    2.9513 O   0  0  0  0  0  0
    4.3959    0.3705    3.5705 N   0  0  0  0  0  0
    5.0809    0.9058    2.3575 C   0  0  2  0  0  0
    4.7323    0.1644    1.0467 C   0  0  0  0  0  0
    5.0368    0.6865   -0.0258 O   0  0  0  0  0  0
    4.0690   -1.0044    1.1175 N   0  0  0  0  0  0
    6.6237    0.9154    2.4864 C   0  0  0  0  0  0
    5.1932   -0.4279    4.5177 C   0  0  0  0  0  0
    2.3584   -4.9763    0.6004 C   0  0  0  0  0  0
    1.6667   -2.4122   -1.3283 O   0  0  0  0  0  0
   -2.0901    1.5699    1.8876 H   0  0  0  0  0  0
    1.5775   -2.1307    0.7007 H   0  0  0  0  0  0
    4.0220   -1.3691   -0.9309 H   0  0  0  0  0  0
    4.4031   -5.0448    1.1069 H   0  0  0  0  0  0
    4.7774    1.9467    2.2281 H   0  0  0  0  0  0
   -6.2156    4.1239   -2.1293 H   0  0  0  0  0  0
   -5.6413    2.7014   -2.9934 H   0  0  0  0  0  0
   -4.6289    3.4599   -1.7642 H   0  0  0  0  0  0
   -6.3041    2.8238    0.0028 H   0  0  0  0  0  0
   -7.3344    2.1235   -1.2172 H   0  0  0  0  0  0
   -6.1519    0.3305   -0.0785 H   0  0  0  0  0  0
   -5.6206    0.3972   -1.7324 H   0  0  0  0  0  0
   -2.8753    0.7442   -2.1502 H   0  0  0  0  0  0
   -0.2198    1.5871   -1.3357 H   0  0  0  0  0  0
   -0.0264    1.8117    0.3936 H   0  0  0  0  0  0
   -0.2064   -0.5780    0.6405 H   0  0  0  0  0  0
    1.8814    0.1736   -1.2883 H   0  0  0  0  0  0
    1.9365    0.3905    0.4475 H   0  0  0  0  0  0
    4.1131   -3.6837   -0.9504 H   0  0  0  0  0  0
    5.2581   -3.1396    0.2111 H   0  0  0  0  0  0
    4.3923   -3.1005    2.7324 H   0  0  0  0  0  0
    2.6548   -3.0585    2.5839 H   0  0  0  0  0  0
    2.6641   -5.5340    3.3753 H   0  0  0  0  0  0
    4.3842   -5.3603    3.5950 H   0  0  0  0  0  0
    3.5968   -4.9096    5.7426 H   0  0  0  0  0  0
    3.7995   -3.3061    5.1026 H   0  0  0  0  0  0
    1.2173   -3.5249    4.4330 H   0  0  0  0  0  0
    1.2373   -4.9045    5.4903 H   0  0  0  0  0  0
    0.6814   -3.3652    7.0970 H   0  0  0  0  0  0
    2.3985   -3.1158    7.1823 H   0  0  0  0  0  0
    0.3058   -1.4066    5.7605 H   0  0  0  0  0  0
    1.4081   -0.9445    7.0473 H   0  0  0  0  0  0
    1.4025    0.7511    5.1187 H   0  0  0  0  0  0
    2.9468    0.6449    5.9470 H   0  0  0  0  0  0
    3.8580   -1.3667    2.0365 H   0  0  0  0  0  0
    7.0833    1.4161    1.6332 H   0  0  0  0  0  0
    7.0502   -0.0871    2.5308 H   0  0  0  0  0  0
    6.9457    1.4645    3.3715 H   0  0  0  0  0  0
    5.9187    0.2021    5.0322 H   0  0  0  0  0  0
    5.7320   -1.2141    3.9892 H   0  0  0  0  0  0
    4.6263   -0.9355    5.2932 H   0  0  0  0  0  0
    1.4745   -4.3485    0.6917 H   0  0  0  0  0  0
    2.1685   -5.8782    1.1814 H   0  0  0  0  0  0
    2.4407   -5.2876   -0.4412 H   0  0  0  0  0  0
    2.1464   -2.0767   -2.0707 H   0  0  0  0  0  0
   -0.3178   -0.7641   -0.9851 H   0  0  0  0  0  0
  1  2  1  0  0  0
  1 40  1  0  0  0
  1 41  1  0  0  0
  1 42  1  0  0  0
  2  3  1  0  0  0
  2 43  1  0  0  0
  2 44  1  0  0  0
  3 45  1  0  0  0
  3 46  1  0  0  0
  3  4  1  0  0  0
  4  8  2  0  0  0
  4  5  1  0  0  0
  5  6  2  0  0  0
  5 47  1  0  0  0
  6  7  1  0  0  0
  6  9  1  0  0  0
  7  8  1  0  0  0
  7 35  1  0  0  0
  9 10  1  0  0  0
  9 48  1  0  0  0
  9 49  1  0  0  0
 10 11  1  0  0  0
 10 50  1  0  0  0
 10 80  1  0  0  0
 11 12  1  0  0  0
 11 51  1  0  0  0
 11 52  1  0  0  0
 12 36  1  0  0  0
 12 13  1  0  0  0
 12 34  1  0  0  0
 13 37  1  0  0  0
 13 30  1  0  0  0
 13 14  1  0  0  0
 14 15  1  0  0  0
 14 53  1  0  0  0
 14 54  1  0  0  0
 15 38  1  0  0  0
 15 16  1  0  0  0
 15 33  1  0  0  0
 16 17  1  0  0  0
 16 55  1  0  0  0
 16 56  1  0  0  0
 17 18  1  0  0  0
 17 57  1  0  0  0
 17 58  1  0  0  0
 18 19  1  0  0  0
 18 59  1  0  0  0
 18 60  1  0  0  0
 19 20  1  0  0  0
 19 61  1  0  0  0
 19 62  1  0  0  0
 20 21  1  0  0  0
 20 63  1  0  0  0
 20 64  1  0  0  0
 21 22  1  0  0  0
 21 65  1  0  0  0
 21 66  1  0  0  0
 22 23  1  0  0  0
 23 24  1  0  0  0
 23 67  1  0  0  0
 23 68  1  0  0  0
 24 25  2  0  0  0
 24 26  1  0  0  0
 26 27  1  0  0  0
 26 32  1  0  0  0
 27 39  1  0  0  0
 27 28  1  0  0  0
 27 31  1  0  0  0
 28 29  2  0  0  0
 28 30  1  0  0  0
 30 69  1  0  0  0
 31 70  1  0  0  0
 31 71  1  0  0  0
 31 72  1  0  0  0
 32 73  1  0  0  0
 32 74  1  0  0  0
 32 75  1  0  0  0
 33 76  1  0  0  0
 33 77  1  0  0  0
 33 78  1  0  0  0
 34 79  1  0  0  0
M  CHG  1  10   1
M  END
> <i_f3d_flags>
0

> <chiral flag>
1

> <version>
0

> <s_i_glide_gridfile>
base1a_gride_6

> <i_i_glide_lignum>
10

> <i_i_glide_rotatable_bonds>
8

> <r_i_docking_score>
-1.83254533336587

> <r_i_glide_ligand_efficiency>
-0.0538983921578197

> <r_i_glide_ligand_efficiency_sa>
-0.174609867099109

> <r_i_glide_ligand_efficiency_ln>
-0.404860665296049

> <r_glide_XP_GScore>
-3.44294533336587

> <r_i_glide_gscore>
-3.44294533336587

> <r_i_glide_evdw>
-25.9733428955078

> <r_i_glide_ecoul>
-10.580493927002

> <r_i_glide_energy>
-36.5538368225098

> <r_i_glide_einternal>
8.03178143745392

> <r_i_glide_emodel>
-40.4468841552734

> <r_glide_XP_HBond>
-2.47982984175716

> <i_i_glide_confnum>
1

> <i_i_glide_posenum>
12

> <r_i_glide_eff_state_penalty>
1.6104

> <i_glide_XP_PoseRank>
1

> <s_m_source_file>
glide-dock_pose_2-0005_raw.maegz

> <i_m_source_file_index>
2

> <i_lp_mmshare_version>
42013

> <s_epik_input>
W0NIM11bQ0gyXVtDSDJdYzFbY0hdYyhbbkhdbjEpW0NIMl1bTkhdW0NIMl1bQ0BASF0oW09IXSlbQ0BASF0yW0NIMl1bQ0BIXShbQ0gzXSlbQ0gyXVtDSDJdW0NIMl1bQ0gyXVtDSDJdW0NIMl1PW0NIMl1DKD1PKU4oW0NIM10pW0NAQEhdKFtDSDNdKUMoPU8pW05IXTI=

> <s_epik_cmdline>
J2VwaWtfcHl0aG9uJywgJy1waCcsICc3LjAnLCAnLXRuJywgJzgnLCAnLW1hJywgJzIwMCcsICctaW1hZScsICc8aW5maWxlLm1hZT4nLCAnLW9tYWUnLCAnPG91dGZpbGUubWFlPic=

> <r_lp_tautomer_probability>
0.5

> <r_epik_Ionization_Penalty>
0.124002

> <r_epik_Ionization_Penalty_Charging>
0.123996

> <r_epik_Ionization_Penalty_Neutral>
5.69922e-06

> <r_epik_State_Penalty>
0.555823

> <r_epik_Charging_Adjusted_Penalty>
0.67982

> <i_epik_Tot_Q>
1

> <i_epik_Tot_abs_Q>
1

> <i_f3d_flags>
0

> <s_lp_Force_Field>
OPLS_2005

> <r_lp_Energy>
33.6695

> <b_lp_Chiralities_Consistent>
1

> <s_lp_Variant>
BACE_5.smi:1-2

$$$$
BACE_5.smi:1
                    3D
 Structure written by MMmdl.
 79 80  0  0  1  0            999 V2000
   -4.9193    0.4145   -3.8418 C   0  0  0  0  0  0
   -3.4504    0.6497   -3.4726 C   0  0  0  0  0  0
   -3.2762    1.7458   -2.4107 C   0  0  0  0  0  0
   -1.8323    1.9554   -2.0493 C   0  0  0  0  0  0
   -1.1313    1.4542   -0.9133 C   0  0  0  0  0  0
    0.1435    1.9221   -1.0692 C   0  0  0  0  0  0
    0.1446    2.6508   -2.2362 N   0  0  0  0  0  0
   -1.0556    2.6780   -2.8444 N   0  0  0  0  0  0
    1.3699    1.7492   -0.2342 C   0  0  0  0  0  0
    1.7307    0.3478   -0.0414 N   0  0  0  0  0  0
    2.2987   -0.2989   -1.2262 C   0  0  0  0  0  0
    2.7451   -1.7511   -0.9399 C   0  0  2  0  0  0
    4.1303   -1.8766   -0.2478 C   0  0  2  0  0  0
    4.6437   -3.3252    0.0108 C   0  0  0  0  0  0
    3.7513   -4.3565    0.7591 C   0  0  1  0  0  0
    3.1461   -3.8017    2.0603 C   0  0  0  0  0  0
    2.3802   -4.8209    2.9279 C   0  0  0  0  0  0
    1.9931   -4.2628    4.3107 C   0  0  0  0  0  0
    0.9814   -3.1033    4.2510 C   0  0  0  0  0  0
    0.8566   -2.3324    5.5759 C   0  0  0  0  0  0
    0.1929   -0.9565    5.3845 C   0  0  0  0  0  0
    0.9570   -0.1579    4.4886 O   0  0  0  0  0  0
    2.0170    0.5643    5.0975 C   0  0  0  0  0  0
    2.9366    1.0989    3.9880 C   0  0  0  0  0  0
    2.6974    2.2239    3.5479 O   0  0  0  0  0  0
    3.9501    0.3241    3.5147 N   0  0  0  0  0  0
    4.8624    0.8029    2.4498 C   0  0  2  0  0  0
    5.1392   -0.1636    1.2774 C   0  0  0  0  0  0
    6.1899   -0.0695    0.6428 O   0  0  0  0  0  0
    4.1804   -1.0542    0.9658 N   0  0  0  0  0  0
    6.1024    1.4810    3.0633 C   0  0  0  0  0  0
    4.3016   -0.9472    4.1584 C   0  0  0  0  0  0
    2.7133   -5.0407   -0.1520 C   0  0  0  0  0  0
    2.8308   -2.3961   -2.1948 O   0  0  0  0  0  0
    0.9474    3.1237   -2.6263 H   0  0  0  0  0  0
    1.9690   -2.2385   -0.3531 H   0  0  0  0  0  0
    4.8422   -1.4430   -0.9531 H   0  0  0  0  0  0
    4.4332   -5.1551    1.0550 H   0  0  0  0  0  0
    4.3564    1.6055    1.9114 H   0  0  0  0  0  0
   -5.0094   -0.3673   -4.5963 H   0  0  0  0  0  0
   -5.3735    1.3201   -4.2449 H   0  0  0  0  0  0
   -5.4997    0.1055   -2.9720 H   0  0  0  0  0  0
   -3.0190   -0.2832   -3.1076 H   0  0  0  0  0  0
   -2.8937    0.9165   -4.3719 H   0  0  0  0  0  0
   -3.7076    2.6796   -2.7736 H   0  0  0  0  0  0
   -3.8425    1.4799   -1.5173 H   0  0  0  0  0  0
   -1.5062    0.8388   -0.1088 H   0  0  0  0  0  0
    2.2075    2.2989   -0.6656 H   0  0  0  0  0  0
    1.1868    2.2027    0.7401 H   0  0  0  0  0  0
    2.3727    0.2665    0.7399 H   0  0  0  0  0  0
    1.5472   -0.3018   -2.0171 H   0  0  0  0  0  0
    3.1427    0.2769   -1.6082 H   0  0  0  0  0  0
    4.9333   -3.7613   -0.9461 H   0  0  0  0  0  0
    5.5829   -3.2416    0.5596 H   0  0  0  0  0  0
    3.9573   -3.3826    2.6543 H   0  0  0  0  0  0
    2.4832   -2.9775    1.8080 H   0  0  0  0  0  0
    1.4826   -5.1594    2.4096 H   0  0  0  0  0  0
    3.0035   -5.7040    3.0722 H   0  0  0  0  0  0
    1.5784   -5.0642    4.9229 H   0  0  0  0  0  0
    2.9011   -3.9378    4.8197 H   0  0  0  0  0  0
    1.2848   -2.3985    3.4812 H   0  0  0  0  0  0
    0.0042   -3.4736    3.9398 H   0  0  0  0  0  0
    0.2834   -2.9257    6.2889 H   0  0  0  0  0  0
    1.8415   -2.1974    6.0223 H   0  0  0  0  0  0
   -0.7991   -1.0935    4.9534 H   0  0  0  0  0  0
    0.0506   -0.4478    6.3392 H   0  0  0  0  0  0
    1.5966    1.4035    5.6535 H   0  0  0  0  0  0
    2.5635   -0.0338    5.8250 H   0  0  0  0  0  0
    3.3640   -1.0861    1.5594 H   0  0  0  0  0  0
    6.7408    1.9244    2.2985 H   0  0  0  0  0  0
    6.7048    0.7678    3.6267 H   0  0  0  0  0  0
    5.8141    2.2825    3.7442 H   0  0  0  0  0  0
    4.6054   -0.7831    5.1928 H   0  0  0  0  0  0
    5.1363   -1.4510    3.6717 H   0  0  0  0  0  0
    3.4565   -1.6317    4.1506 H   0  0  0  0  0  0
    1.8558   -4.4066   -0.3654 H   0  0  0  0  0  0
    2.3280   -5.9489    0.3114 H   0  0  0  0  0  0
    3.1557   -5.3364   -1.1034 H   0  0  0  0  0  0
    3.4868   -1.9568   -2.7141 H   0  0  0  0  0  0
  1  2  1  0  0  0
  1 40  1  0  0  0
  1 41  1  0  0  0
  1 42  1  0  0  0
  2  3  1  0  0  0
  2 43  1  0  0  0
  2 44  1  0  0  0
  3 45  1  0  0  0
  3 46  1  0  0  0
  3  4  1  0  0  0
  4  8  2  0  0  0
  4  5  1  0  0  0
  5  6  2  0  0  0
  5 47  1  0  0  0
  6  7  1  0  0  0
  6  9  1  0  0  0
  7  8  1  0  0  0
  7 35  1  0  0  0
  9 10  1  0  0  0
  9 48  1  0  0  0
  9 49  1  0  0  0
 10 11  1  0  0  0
 10 50  1  0  0  0
 11 12  1  0  0  0
 11 51  1  0  0  0
 11 52  1  0  0  0
 12 36  1  0  0  0
 12 13  1  0  0  0
 12 34  1  0  0  0
 13 37  1  0  0  0
 13 30  1  0  0  0
 13 14  1  0  0  0
 14 15  1  0  0  0
 14 53  1  0  0  0
 14 54  1  0  0  0
 15 38  1  0  0  0
 15 16  1  0  0  0
 15 33  1  0  0  0
 16 17  1  0  0  0
 16 55  1  0  0  0
 16 56  1  0  0  0
 17 18  1  0  0  0
 17 57  1  0  0  0
 17 58  1  0  0  0
 18 19  1  0  0  0
 18 59  1  0  0  0
 18 60  1  0  0  0
 19 20  1  0  0  0
 19 61  1  0  0  0
 19 62  1  0  0  0
 20 21  1  0  0  0
 20 63  1  0  0  0
 20 64  1  0  0  0
 21 22  1  0  0  0
 21 65  1  0  0  0
 21 66  1  0  0  0
 22 23  1  0  0  0
 23 24  1  0  0  0
 23 67  1  0  0  0
 23 68  1  0  0  0
 24 25  2  0  0  0
 24 26  1  0  0  0
 26 27  1  0  0  0
 26 32  1  0  0  0
 27 39  1  0  0  0
 27 28  1  0  0  0
 27 31  1  0  0  0
 28 29  2  0  0  0
 28 30  1  0  0  0
 30 69  1  0  0  0
 31 70  1  0  0  0
 31 71  1  0  0  0
 31 72  1  0  0  0
 32 73  1  0  0  0
 32 74  1  0  0  0
 32 75  1  0  0  0
 33 76  1  0  0  0
 33 77  1  0  0  0
 33 78  1  0  0  0
 34 79  1  0  0  0
M  END
> <i_f3d_flags>
0

> <chiral flag>
1

> <version>
0

> <s_i_glide_gridfile>
base1a_gride_6

> <i_i_glide_lignum>
10

> <i_i_glide_rotatable_bonds>
8

> <r_i_docking_score>
-1.83254533336587

> <r_i_glide_ligand_efficiency>
-0.0538983921578197

> <r_i_glide_ligand_efficiency_sa>
-0.174609867099109

> <r_i_glide_ligand_efficiency_ln>
-0.404860665296049

> <r_glide_XP_GScore>
-3.44294533336587

> <r_i_glide_gscore>
-3.44294533336587

> <r_i_glide_evdw>
-25.9733428955078

> <r_i_glide_ecoul>
-10.580493927002

> <r_i_glide_energy>
-36.5538368225098

> <r_i_glide_einternal>
8.03178143745392

> <r_i_glide_emodel>
-40.4468841552734

> <r_glide_XP_HBond>
-2.47982984175716

> <i_i_glide_confnum>
1

> <i_i_glide_posenum>
12

> <r_i_glide_eff_state_penalty>
1.6104

> <i_glide_XP_PoseRank>
1

> <s_m_source_file>
glide-dock_pose_2-0005_raw.maegz

> <i_m_source_file_index>
2

> <i_lp_mmshare_version>
42013

> <s_epik_input>
W0NIM11bQ0gyXVtDSDJdYzFbY0hdYyhbbkhdbjEpW0NIMl1bTkhdW0NIMl1bQ0BASF0oW09IXSlbQ0BASF0yW0NIMl1bQ0BIXShbQ0gzXSlbQ0gyXVtDSDJdW0NIMl1bQ0gyXVtDSDJdW0NIMl1PW0NIMl1DKD1PKU4oW0NIM10pW0NAQEhdKFtDSDNdKUMoPU8pW05IXTI=

> <s_epik_cmdline>
J2VwaWtfcHl0aG9uJywgJy1waCcsICc3LjAnLCAnLXRuJywgJzgnLCAnLW1hJywgJzIwMCcsICctaW1hZScsICc8aW5maWxlLm1hZT4nLCAnLW9tYWUnLCAnPG91dGZpbGUubWFlPic=

> <r_lp_tautomer_probability>
0.5

> <r_epik_Ionization_Penalty>
0.987641

> <r_epik_Ionization_Penalty_Charging>
0

> <r_epik_Ionization_Penalty_Neutral>
0.987641

> <r_epik_State_Penalty>
1.61044

> <r_epik_Charging_Adjusted_Penalty>
1.61044

> <i_epik_Tot_Q>
0

> <i_epik_Tot_abs_Q>
0

> <i_f3d_flags>
0

> <s_lp_Force_Field>
OPLS_2005

> <r_lp_Energy>
32.4036

> <b_lp_Chiralities_Consistent>
1

> <s_lp_Variant>
BACE_5.smi:1-3

$$$$
BACE_5.smi:1
                    3D
 Structure written by MMmdl.
 79 80  0  0  1  0            999 V2000
   -3.9970   -0.0356   -1.3532 C   0  0  0  0  0  0
   -4.3970    1.2969   -0.7037 C   0  0  0  0  0  0
   -3.7512    2.5243   -1.3704 C   0  0  0  0  0  0
   -2.2634    2.6097   -1.2268 C   0  0  0  0  0  0
   -1.3946    2.0548   -0.3280 C   0  0  0  0  0  0
   -0.1122    2.5296   -0.7317 C   0  0  0  0  0  0
   -0.1794    3.3276   -1.7866 N   0  0  0  0  0  0
   -1.4934    3.3723   -2.0750 N   0  0  0  0  0  0
    1.2251    2.2296   -0.1125 C   0  0  0  0  0  0
    1.4366    0.7997    0.0975 N   0  0  0  0  0  0
    1.7158    0.0459   -1.1258 C   0  0  0  0  0  0
    1.9725   -1.4510   -0.8421 C   0  0  2  0  0  0
    3.4029   -1.7770   -0.3317 C   0  0  2  0  0  0
    3.7258   -3.2833   -0.1082 C   0  0  0  0  0  0
    2.8052   -4.1549    0.7915 C   0  0  1  0  0  0
    2.4486   -3.4891    2.1341 C   0  0  0  0  0  0
    1.7842   -4.4177    3.1662 C   0  0  0  0  0  0
    1.5590   -3.7246    4.5194 C   0  0  0  0  0  0
    0.4125   -2.6951    4.4993 C   0  0  0  0  0  0
    0.3375   -1.8152    5.7585 C   0  0  0  0  0  0
    1.2856   -0.6050    5.7283 C   0  0  0  0  0  0
    2.6364   -1.0325    5.8472 O   0  0  0  0  0  0
    3.5980    0.0162    5.8893 C   0  0  0  0  0  0
    3.8059    0.6433    4.4976 C   0  0  0  0  0  0
    3.2752    1.7340    4.2838 O   0  0  0  0  0  0
    4.5664    0.0015    3.5707 N   0  0  0  0  0  0
    4.9029    0.6481    2.2795 C   0  0  2  0  0  0
    4.8406   -0.2403    1.0222 C   0  0  0  0  0  0
    5.7726   -0.2371    0.2177 O   0  0  0  0  0  0
    3.7336   -0.9837    0.8562 N   0  0  0  0  0  0
    6.1762    1.5048    2.4220 C   0  0  0  0  0  0
    5.2344   -1.2700    3.8851 C   0  0  0  0  0  0
    1.5742   -4.7047    0.0444 C   0  0  0  0  0  0
    1.7905   -2.1227   -2.0724 O   0  0  0  0  0  0
   -1.8472    3.9174   -2.8484 H   0  0  0  0  0  0
    1.2169   -1.8046   -0.1432 H   0  0  0  0  0  0
    4.0729   -1.4553   -1.1314 H   0  0  0  0  0  0
    3.4048   -5.0336    1.0333 H   0  0  0  0  0  0
    4.1149    1.3669    2.0475 H   0  0  0  0  0  0
   -4.5036   -0.8699   -0.8680 H   0  0  0  0  0  0
   -2.9243   -0.2142   -1.2785 H   0  0  0  0  0  0
   -4.2657   -0.0536   -2.4097 H   0  0  0  0  0  0
   -5.4812    1.3969   -0.7622 H   0  0  0  0  0  0
   -4.1535    1.2787    0.3593 H   0  0  0  0  0  0
   -4.0165    2.5391   -2.4280 H   0  0  0  0  0  0
   -4.1913    3.4250   -0.9423 H   0  0  0  0  0  0
   -1.6347    1.3983    0.4950 H   0  0  0  0  0  0
    1.2813    2.7368    0.8509 H   0  0  0  0  0  0
    2.0363    2.6450   -0.7120 H   0  0  0  0  0  0
    2.1845    0.6608    0.7690 H   0  0  0  0  0  0
    0.8633    0.1428   -1.7996 H   0  0  0  0  0  0
    2.5709    0.4741   -1.6506 H   0  0  0  0  0  0
    3.8089   -3.7669   -1.0821 H   0  0  0  0  0  0
    4.7351   -3.3389    0.3026 H   0  0  0  0  0  0
    3.3652   -3.0988    2.5736 H   0  0  0  0  0  0
    1.8068   -2.6298    1.9503 H   0  0  0  0  0  0
    0.8341   -4.7982    2.7908 H   0  0  0  0  0  0
    2.4241   -5.2871    3.3206 H   0  0  0  0  0  0
    1.3346   -4.4790    5.2742 H   0  0  0  0  0  0
    2.4936   -3.2639    4.8337 H   0  0  0  0  0  0
    0.4776   -2.0486    3.6252 H   0  0  0  0  0  0
   -0.5271   -3.2381    4.3923 H   0  0  0  0  0  0
   -0.6805   -1.4330    5.8403 H   0  0  0  0  0  0
    0.5048   -2.4124    6.6555 H   0  0  0  0  0  0
    1.1295   -0.0349    4.8118 H   0  0  0  0  0  0
    1.0463    0.0568    6.5619 H   0  0  0  0  0  0
    3.2887    0.7826    6.6020 H   0  0  0  0  0  0
    4.5382   -0.3770    6.2742 H   0  0  0  0  0  0
    3.0301   -0.9450    1.5796 H   0  0  0  0  0  0
    6.4021    2.0428    1.5006 H   0  0  0  0  0  0
    7.0414    0.8887    2.6689 H   0  0  0  0  0  0
    6.0638    2.2502    3.2099 H   0  0  0  0  0  0
    6.0046   -1.1137    4.6409 H   0  0  0  0  0  0
    5.7334   -1.7204    3.0281 H   0  0  0  0  0  0
    4.5289   -2.0078    4.2657 H   0  0  0  0  0  0
    0.8002   -3.9538   -0.0988 H   0  0  0  0  0  0
    1.1197   -5.5300    0.5921 H   0  0  0  0  0  0
    1.8478   -5.0926   -0.9371 H   0  0  0  0  0  0
    2.4276   -1.7961   -2.6891 H   0  0  0  0  0  0
  1  2  1  0  0  0
  1 40  1  0  0  0
  1 41  1  0  0  0
  1 42  1  0  0  0
  2  3  1  0  0  0
  2 43  1  0  0  0
  2 44  1  0  0  0
  3 45  1  0  0  0
  3 46  1  0  0  0
  3  4  1  0  0  0
  4  8  1  0  0  0
  4  5  2  0  0  0
  5  6  1  0  0  0
  5 47  1  0  0  0
  6  9  1  0  0  0
  6  7  2  0  0  0
  7  8  1  0  0  0
  8 35  1  0  0  0
  9 10  1  0  0  0
  9 48  1  0  0  0
  9 49  1  0  0  0
 10 11  1  0  0  0
 10 50  1  0  0  0
 11 12  1  0  0  0
 11 51  1  0  0  0
 11 52  1  0  0  0
 12 36  1  0  0  0
 12 13  1  0  0  0
 12 34  1  0  0  0
 13 37  1  0  0  0
 13 30  1  0  0  0
 13 14  1  0  0  0
 14 15  1  0  0  0
 14 53  1  0  0  0
 14 54  1  0  0  0
 15 38  1  0  0  0
 15 16  1  0  0  0
 15 33  1  0  0  0
 16 17  1  0  0  0
 16 55  1  0  0  0
 16 56  1  0  0  0
 17 18  1  0  0  0
 17 57  1  0  0  0
 17 58  1  0  0  0
 18 19  1  0  0  0
 18 59  1  0  0  0
 18 60  1  0  0  0
 19 20  1  0  0  0
 19 61  1  0  0  0
 19 62  1  0  0  0
 20 21  1  0  0  0
 20 63  1  0  0  0
 20 64  1  0  0  0
 21 22  1  0  0  0
 21 65  1  0  0  0
 21 66  1  0  0  0
 22 23  1  0  0  0
 23 24  1  0  0  0
 23 67  1  0  0  0
 23 68  1  0  0  0
 24 25  2  0  0  0
 24 26  1  0  0  0
 26 27  1  0  0  0
 26 32  1  0  0  0
 27 39  1  0  0  0
 27 28  1  0  0  0
 27 31  1  0  0  0
 28 29  2  0  0  0
 28 30  1  0  0  0
 30 69  1  0  0  0
 31 70  1  0  0  0
 31 71  1  0  0  0
 31 72  1  0  0  0
 32 73  1  0  0  0
 32 74  1  0  0  0
 32 75  1  0  0  0
 33 76  1  0  0  0
 33 77  1  0  0  0
 33 78  1  0  0  0
 34 79  1  0  0  0
M  END
> <i_f3d_flags>
0

> <chiral flag>
1

> <version>
0

> <s_i_glide_gridfile>
base1a_gride_6

> <i_i_glide_lignum>
10

> <i_i_glide_rotatable_bonds>
8

> <r_i_docking_score>
-1.83254533336587

> <r_i_glide_ligand_efficiency>
-0.0538983921578197

> <r_i_glide_ligand_efficiency_sa>
-0.174609867099109

> <r_i_glide_ligand_efficiency_ln>
-0.404860665296049

> <r_glide_XP_GScore>
-3.44294533336587

> <r_i_glide_gscore>
-3.44294533336587

> <r_i_glide_evdw>
-25.9733428955078

> <r_i_glide_ecoul>
-10.580493927002

> <r_i_glide_energy>
-36.5538368225098

> <r_i_glide_einternal>
8.03178143745392

> <r_i_glide_emodel>
-40.4468841552734

> <r_glide_XP_HBond>
-2.47982984175716

> <i_i_glide_confnum>
1

> <i_i_glide_posenum>
12

> <r_i_glide_eff_state_penalty>
1.6104

> <i_glide_XP_PoseRank>
1

> <s_m_source_file>
glide-dock_pose_2-0005_raw.maegz

> <i_m_source_file_index>
2

> <i_lp_mmshare_version>
42013

> <s_epik_input>
W0NIM11bQ0gyXVtDSDJdYzFbY0hdYyhbbkhdbjEpW0NIMl1bTkhdW0NIMl1bQ0BASF0oW09IXSlbQ0BASF0yW0NIMl1bQ0BIXShbQ0gzXSlbQ0gyXVtDSDJdW0NIMl1bQ0gyXVtDSDJdW0NIMl1PW0NIMl1DKD1PKU4oW0NIM10pW0NAQEhdKFtDSDNdKUMoPU8pW05IXTI=

> <s_epik_cmdline>
J2VwaWtfcHl0aG9uJywgJy1waCcsICc3LjAnLCAnLXRuJywgJzgnLCAnLW1hJywgJzIwMCcsICctaW1hZScsICc8aW5maWxlLm1hZT4nLCAnLW9tYWUnLCAnPG91dGZpbGUubWFlPic=

> <r_lp_tautomer_probability>
0.5

> <r_epik_Ionization_Penalty>
1.41911

> <r_epik_Ionization_Penalty_Charging>
0

> <r_epik_Ionization_Penalty_Neutral>
1.41911

> <r_epik_State_Penalty>
1.74351

> <r_epik_Charging_Adjusted_Penalty>
1.74351

> <i_epik_Tot_Q>
0

> <i_epik_Tot_abs_Q>
0

> <i_f3d_flags>
0

> <s_lp_Force_Field>
OPLS_2005

> <r_lp_Energy>
36.9142

> <b_lp_Chiralities_Consistent>
1

> <s_lp_Variant>
BACE_5.smi:1-4

$$$$
