BACE_5.smi:1
                    3D
 Structure written by MMmdl.
 80 81  0  0  1  0            999 V2000
    0.3865    2.9027   -6.3282 C   0  0  0  0  0  0
   -0.0700    2.0741   -5.1224 C   0  0  0  0  0  0
   -0.9115    2.8891   -4.1295 C   0  0  0  0  0  0
   -1.3639    2.0882   -2.9537 C   0  0  0  0  0  0
   -0.8952    2.0236   -1.6720 C   0  0  0  0  0  0
   -1.7344    1.0605   -1.0384 C   0  0  0  0  0  0
   -2.6523    0.5702   -1.8589 N   0  0  0  0  0  0
   -2.4170    1.2049   -3.0224 N   0  0  0  0  0  0
   -1.6586    0.5556    0.3758 C   0  0  0  0  0  0
   -1.0509   -0.7900    0.4405 N   0  3  0  0  0  0
    0.3635   -0.8534    0.0136 C   0  0  0  0  0  0
    0.9546   -2.2625    0.2195 C   0  0  2  0  0  0
    2.4712   -2.3522   -0.0910 C   0  0  2  0  0  0
    3.1115   -3.7635    0.0238 C   0  0  0  0  0  0
    2.9512   -4.5964    1.3259 C   0  0  1  0  0  0
    3.2299   -3.8081    2.6220 C   0  0  0  0  0  0
    3.5138   -4.6916    3.8494 C   0  0  0  0  0  0
    3.6931   -3.8648    5.1296 C   0  0  0  0  0  0
    2.3616   -3.5043    5.8141 C   0  0  0  0  0  0
    2.5275   -2.3919    6.8629 C   0  0  0  0  0  0
    2.1744   -0.9908    6.3401 C   0  0  0  0  0  0
    2.7513   -0.7677    5.0622 O   0  0  0  0  0  0
    2.8310    0.6078    4.7254 C   0  0  0  0  0  0
    3.0726    0.7622    3.2176 C   0  0  0  0  0  0
    2.1585    1.2566    2.5550 O   0  0  0  0  0  0
    4.2576    0.3931    2.6557 N   0  0  0  0  0  0
    4.5086    0.6988    1.2165 C   0  0  2  0  0  0
    3.7711   -0.2337    0.2293 C   0  0  0  0  0  0
    3.6643    0.1168   -0.9460 O   0  0  0  0  0  0
    3.2353   -1.3776    0.6942 N   0  0  0  0  0  0
    6.0102    0.6682    0.8413 C   0  0  0  0  0  0
    5.3347   -0.2564    3.4229 C   0  0  0  0  0  0
    1.6240   -5.3792    1.3779 C   0  0  0  0  0  0
    0.2664   -3.1380   -0.6539 O   0  0  0  0  0  0
   -2.9726    1.0256   -3.8470 H   0  0  0  0  0  0
    0.7685   -2.5622    1.2494 H   0  0  0  0  0  0
    2.5791   -2.0881   -1.1446 H   0  0  0  0  0  0
    3.7282   -5.3593    1.2574 H   0  0  0  0  0  0
    4.1634    1.7159    1.0199 H   0  0  0  0  0  0
    0.9785    2.2959   -7.0139 H   0  0  0  0  0  0
    1.0012    3.7479   -6.0169 H   0  0  0  0  0  0
   -0.4670    3.2940   -6.8828 H   0  0  0  0  0  0
   -0.6456    1.2173   -5.4747 H   0  0  0  0  0  0
    0.8053    1.6693   -4.6128 H   0  0  0  0  0  0
   -0.3338    3.7454   -3.7795 H   0  0  0  0  0  0
   -1.7821    3.3015   -4.6408 H   0  0  0  0  0  0
   -0.0655    2.5735   -1.2521 H   0  0  0  0  0  0
   -1.0847    1.2421    0.9997 H   0  0  0  0  0  0
   -2.6570    0.5027    0.8111 H   0  0  0  0  0  0
   -1.1055   -1.1137    1.3955 H   0  0  0  0  0  0
    0.4618   -0.5543   -1.0308 H   0  0  0  0  0  0
    0.9102   -0.1213    0.6058 H   0  0  0  0  0  0
    2.7624   -4.3696   -0.8131 H   0  0  0  0  0  0
    4.1804   -3.6469   -0.1624 H   0  0  0  0  0  0
    4.1033   -3.1733    2.4704 H   0  0  0  0  0  0
    2.3977   -3.1370    2.8324 H   0  0  0  0  0  0
    2.7245   -5.4271    4.0027 H   0  0  0  0  0  0
    4.4259   -5.2598    3.6629 H   0  0  0  0  0  0
    4.3016   -4.4281    5.8381 H   0  0  0  0  0  0
    4.2648   -2.9650    4.9003 H   0  0  0  0  0  0
    1.6102   -3.2105    5.0803 H   0  0  0  0  0  0
    1.9689   -4.4010    6.2952 H   0  0  0  0  0  0
    1.8886   -2.6056    7.7205 H   0  0  0  0  0  0
    3.5476   -2.3972    7.2493 H   0  0  0  0  0  0
    1.0925   -0.8785    6.2581 H   0  0  0  0  0  0
    2.5213   -0.2475    7.0604 H   0  0  0  0  0  0
    1.8971    1.1118    4.9826 H   0  0  0  0  0  0
    3.6251    1.0967    5.2914 H   0  0  0  0  0  0
    3.3648   -1.5895    1.6733 H   0  0  0  0  0  0
    6.1618    1.0003   -0.1867 H   0  0  0  0  0  0
    6.4446   -0.3291    0.9171 H   0  0  0  0  0  0
    6.5913    1.3442    1.4690 H   0  0  0  0  0  0
    6.1694    0.4302    3.5648 H   0  0  0  0  0  0
    5.6987   -1.1375    2.8944 H   0  0  0  0  0  0
    5.0567   -0.6062    4.4134 H   0  0  0  0  0  0
    0.7736   -4.7444    1.6172 H   0  0  0  0  0  0
    1.6576   -6.1642    2.1326 H   0  0  0  0  0  0
    1.4163   -5.8693    0.4265 H   0  0  0  0  0  0
    0.4785   -2.9043   -1.5452 H   0  0  0  0  0  0
   -1.5900   -1.4147   -0.1424 H   0  0  0  0  0  0
  1  2  1  0  0  0
  1 40  1  0  0  0
  1 41  1  0  0  0
  1 42  1  0  0  0
  2  3  1  0  0  0
  2 43  1  0  0  0
  2 44  1  0  0  0
  3  4  1  0  0  0
  3 45  1  0  0  0
  3 46  1  0  0  0
  4  8  1  0  0  0
  4  5  2  0  0  0
  5  6  1  0  0  0
  5 47  1  0  0  0
  6  7  2  0  0  0
  6  9  1  0  0  0
  7  8  1  0  0  0
  8 35  1  0  0  0
  9 10  1  0  0  0
  9 48  1  0  0  0
  9 49  1  0  0  0
 10 11  1  0  0  0
 10 50  1  0  0  0
 10 80  1  0  0  0
 11 12  1  0  0  0
 11 51  1  0  0  0
 11 52  1  0  0  0
 12 36  1  0  0  0
 12 13  1  0  0  0
 12 34  1  0  0  0
 13 37  1  0  0  0
 13 30  1  0  0  0
 13 14  1  0  0  0
 14 15  1  0  0  0
 14 53  1  0  0  0
 14 54  1  0  0  0
 15 38  1  0  0  0
 15 16  1  0  0  0
 15 33  1  0  0  0
 16 17  1  0  0  0
 16 55  1  0  0  0
 16 56  1  0  0  0
 17 18  1  0  0  0
 17 57  1  0  0  0
 17 58  1  0  0  0
 18 19  1  0  0  0
 18 59  1  0  0  0
 18 60  1  0  0  0
 19 20  1  0  0  0
 19 61  1  0  0  0
 19 62  1  0  0  0
 20 21  1  0  0  0
 20 63  1  0  0  0
 20 64  1  0  0  0
 21 22  1  0  0  0
 21 65  1  0  0  0
 21 66  1  0  0  0
 22 23  1  0  0  0
 23 24  1  0  0  0
 23 67  1  0  0  0
 23 68  1  0  0  0
 24 25  2  0  0  0
 24 26  1  0  0  0
 26 27  1  0  0  0
 26 32  1  0  0  0
 27 39  1  0  0  0
 27 28  1  0  0  0
 27 31  1  0  0  0
 28 29  2  0  0  0
 28 30  1  0  0  0
 30 69  1  0  0  0
 31 70  1  0  0  0
 31 71  1  0  0  0
 31 72  1  0  0  0
 32 73  1  0  0  0
 32 74  1  0  0  0
 32 75  1  0  0  0
 33 76  1  0  0  0
 33 77  1  0  0  0
 33 78  1  0  0  0
 34 79  1  0  0  0
M  CHG  1  10   1
M  END
> <i_f3d_flags>
0

> <chiral flag>
1

> <version>
0

> <s_i_glide_gridfile>
base1a_gride_6

> <i_i_glide_lignum>
11

> <i_i_glide_rotatable_bonds>
8

> <r_i_docking_score>
-1.71273976875748

> <r_i_glide_ligand_efficiency>
-0.0503746990811022

> <r_i_glide_ligand_efficiency_sa>
-0.163194469437113

> <r_i_glide_ligand_efficiency_ln>
-0.378392255641792

> <r_glide_XP_GScore>
-3.45623976875748

> <r_i_glide_gscore>
-3.45623976875748

> <r_i_glide_evdw>
-26.0764293670654

> <r_i_glide_ecoul>
-8.45254898071289

> <r_i_glide_energy>
-34.5289783477783

> <r_i_glide_einternal>
9.34128761291504

> <r_i_glide_emodel>
-40.5734738698993

> <r_glide_XP_HBond>
-1.6008888499155

> <i_i_glide_confnum>
1

> <i_i_glide_posenum>
16

> <r_i_glide_eff_state_penalty>
1.7435

> <i_glide_XP_PoseRank>
1

> <s_m_source_file>
glide-dock_pose_2-0006_raw.maegz

> <i_m_source_file_index>
1

> <i_lp_mmshare_version>
42013

> <s_epik_input>
W0NIM11bQ0gyXVtDSDJdYzFbY0hdYyhuW25IXTEpW0NIMl1bTkhdW0NIMl1bQ0BASF0oW09IXSlbQ0BASF0yW0NIMl1bQ0BIXShbQ0gzXSlbQ0gyXVtDSDJdW0NIMl1bQ0gyXVtDSDJdW0NIMl1PW0NIMl1DKD1PKU4oW0NIM10pW0NAQEhdKFtDSDNdKUMoPU8pW05IXTI=

> <s_epik_cmdline>
J2VwaWtfcHl0aG9uJywgJy1waCcsICc3LjAnLCAnLXRuJywgJzgnLCAnLW1hJywgJzIwMCcsICctaW1hZScsICc8aW5maWxlLm1hZT4nLCAnLW9tYWUnLCAnPG91dGZpbGUubWFlPic=

> <r_lp_tautomer_probability>
0.5

> <r_epik_Ionization_Penalty>
0.0566359

> <r_epik_Ionization_Penalty_Charging>
0.0566351

> <r_epik_Ionization_Penalty_Neutral>
8.45617e-07

> <r_epik_State_Penalty>
0.422753

> <r_epik_Charging_Adjusted_Penalty>
0.479388

> <i_epik_Tot_Q>
1

> <i_epik_Tot_abs_Q>
1

> <i_f3d_flags>
0

> <s_lp_Force_Field>
OPLS_2005

> <r_lp_Energy>
33.9066

> <b_lp_Chiralities_Consistent>
1

> <s_lp_Variant>
BACE_5.smi:1-1

$$$$
BACE_5.smi:1
                    3D
 Structure written by MMmdl.
 80 81  0  0  1  0            999 V2000
   -5.6322    3.1425   -2.1029 C   0  0  0  0  0  0
   -6.2780    2.3153   -0.9824 C   0  0  0  0  0  0
   -5.5880    0.9628   -0.7359 C   0  0  0  0  0  0
   -4.1605    1.1068   -0.2830 C   0  0  0  0  0  0
   -2.9729    0.9387   -1.0543 C   0  0  0  0  0  0
   -1.9592    1.1916   -0.1735 C   0  0  0  0  0  0
   -2.5593    1.4833    1.0302 N   0  0  0  0  0  0
   -3.9026    1.4329    0.9755 N   0  0  0  0  0  0
   -0.4786    1.1883   -0.3486 C   0  0  0  0  0  0
    0.0650   -0.1774   -0.2309 N   0  3  0  0  0  0
    1.5351   -0.2463   -0.3397 C   0  0  0  0  0  0
    2.0457   -1.6921   -0.1661 C   0  0  2  0  0  0
    3.5859   -1.7953   -0.0221 C   0  0  2  0  0  0
    4.1757   -3.2325    0.0333 C   0  0  0  0  0  0
    3.6418   -4.2656    1.0646 C   0  0  1  0  0  0
    3.5311   -3.7263    2.5053 C   0  0  0  0  0  0
    3.4587   -4.8215    3.5838 C   0  0  0  0  0  0
    3.2368   -4.2395    4.9863 C   0  0  0  0  0  0
    1.7533   -3.9816    5.3089 C   0  0  0  0  0  0
    1.5699   -3.0547    6.5219 C   0  0  0  0  0  0
    1.3222   -1.5860    6.1441 C   0  0  0  0  0  0
    2.2439   -1.1582    5.1528 O   0  0  0  0  0  0
    2.3614    0.2535    5.0830 C   0  0  0  0  0  0
    3.0623    0.6540    3.7777 C   0  0  0  0  0  0
    2.3843    1.2599    2.9455 O   0  0  0  0  0  0
    4.3797    0.3715    3.5735 N   0  0  0  0  0  0
    5.0636    0.9088    2.3603 C   0  0  2  0  0  0
    4.7182    0.1676    1.0485 C   0  0  0  0  0  0
    5.0199    0.6929   -0.0232 O   0  0  0  0  0  0
    4.0590   -1.0037    1.1178 N   0  0  0  0  0  0
    6.6062    0.9253    2.4889 C   0  0  0  0  0  0
    5.1841   -0.4071    4.5311 C   0  0  0  0  0  0
    2.3567   -4.9761    0.5956 C   0  0  0  0  0  0
    1.6446   -2.4149   -1.3146 O   0  0  0  0  0  0
   -2.0741    1.7199    1.8844 H   0  0  0  0  0  0
    1.5684   -2.1227    0.7131 H   0  0  0  0  0  0
    4.0041   -1.3611   -0.9321 H   0  0  0  0  0  0
    4.4050   -5.0449    1.0865 H   0  0  0  0  0  0
    4.7551    1.9483    2.2311 H   0  0  0  0  0  0
   -6.1880    4.0653   -2.2716 H   0  0  0  0  0  0
   -5.6157    2.5883   -3.0419 H   0  0  0  0  0  0
   -4.6063    3.4172   -1.8564 H   0  0  0  0  0  0
   -6.2862    2.8972   -0.0600 H   0  0  0  0  0  0
   -7.3231    2.1366   -1.2368 H   0  0  0  0  0  0
   -6.1551    0.4042    0.0101 H   0  0  0  0  0  0
   -5.6285    0.3646   -1.6470 H   0  0  0  0  0  0
   -2.8834    0.6774   -2.0985 H   0  0  0  0  0  0
   -0.0132    1.8307    0.4003 H   0  0  0  0  0  0
   -0.2200    1.5977   -1.3258 H   0  0  0  0  0  0
   -0.2071   -0.5533    0.6661 H   0  0  0  0  0  0
    1.8621    0.1675   -1.2949 H   0  0  0  0  0  0
    1.9393    0.4001    0.4372 H   0  0  0  0  0  0
    4.0997   -3.6744   -0.9610 H   0  0  0  0  0  0
    5.2501   -3.1319    0.1958 H   0  0  0  0  0  0
    4.4061   -3.1136    2.7236 H   0  0  0  0  0  0
    2.6678   -3.0660    2.5871 H   0  0  0  0  0  0
    2.6737   -5.5451    3.3659 H   0  0  0  0  0  0
    4.3957   -5.3793    3.5742 H   0  0  0  0  0  0
    3.6348   -4.9310    5.7299 H   0  0  0  0  0  0
    3.8200   -3.3244    5.0931 H   0  0  0  0  0  0
    1.2314   -3.5673    4.4458 H   0  0  0  0  0  0
    1.2745   -4.9405    5.5097 H   0  0  0  0  0  0
    0.7228   -3.4004    7.1153 H   0  0  0  0  0  0
    2.4374   -3.1280    7.1790 H   0  0  0  0  0  0
    0.3103   -1.4584    5.7571 H   0  0  0  0  0  0
    1.4024   -0.9724    7.0432 H   0  0  0  0  0  0
    1.3712    0.7133    5.1043 H   0  0  0  0  0  0
    2.9114    0.6373    5.9434 H   0  0  0  0  0  0
    3.8493   -1.3675    2.0364 H   0  0  0  0  0  0
    7.0643    1.4218    1.6324 H   0  0  0  0  0  0
    7.0364   -0.0754    2.5398 H   0  0  0  0  0  0
    6.9261    1.4818    3.3700 H   0  0  0  0  0  0
    5.9026    0.2367    5.0381 H   0  0  0  0  0  0
    5.7314   -1.1945    4.0129 H   0  0  0  0  0  0
    4.6224   -0.9098    5.3136 H   0  0  0  0  0  0
    1.4730   -4.3500    0.7008 H   0  0  0  0  0  0
    2.1746   -5.8836    1.1703 H   0  0  0  0  0  0
    2.4299   -5.2774   -0.4496 H   0  0  0  0  0  0
    2.1256   -2.0892   -2.0606 H   0  0  0  0  0  0
   -0.3395   -0.7520   -0.9567 H   0  0  0  0  0  0
  1  2  1  0  0  0
  1 40  1  0  0  0
  1 41  1  0  0  0
  1 42  1  0  0  0
  2  3  1  0  0  0
  2 43  1  0  0  0
  2 44  1  0  0  0
  3 45  1  0  0  0
  3 46  1  0  0  0
  3  4  1  0  0  0
  4  8  2  0  0  0
  4  5  1  0  0  0
  5  6  2  0  0  0
  5 47  1  0  0  0
  6  7  1  0  0  0
  6  9  1  0  0  0
  7  8  1  0  0  0
  7 35  1  0  0  0
  9 10  1  0  0  0
  9 48  1  0  0  0
  9 49  1  0  0  0
 10 11  1  0  0  0
 10 50  1  0  0  0
 10 80  1  0  0  0
 11 12  1  0  0  0
 11 51  1  0  0  0
 11 52  1  0  0  0
 12 36  1  0  0  0
 12 13  1  0  0  0
 12 34  1  0  0  0
 13 37  1  0  0  0
 13 30  1  0  0  0
 13 14  1  0  0  0
 14 15  1  0  0  0
 14 53  1  0  0  0
 14 54  1  0  0  0
 15 38  1  0  0  0
 15 16  1  0  0  0
 15 33  1  0  0  0
 16 17  1  0  0  0
 16 55  1  0  0  0
 16 56  1  0  0  0
 17 18  1  0  0  0
 17 57  1  0  0  0
 17 58  1  0  0  0
 18 19  1  0  0  0
 18 59  1  0  0  0
 18 60  1  0  0  0
 19 20  1  0  0  0
 19 61  1  0  0  0
 19 62  1  0  0  0
 20 21  1  0  0  0
 20 63  1  0  0  0
 20 64  1  0  0  0
 21 22  1  0  0  0
 21 65  1  0  0  0
 21 66  1  0  0  0
 22 23  1  0  0  0
 23 24  1  0  0  0
 23 67  1  0  0  0
 23 68  1  0  0  0
 24 25  2  0  0  0
 24 26  1  0  0  0
 26 27  1  0  0  0
 26 32  1  0  0  0
 27 39  1  0  0  0
 27 28  1  0  0  0
 27 31  1  0  0  0
 28 29  2  0  0  0
 28 30  1  0  0  0
 30 69  1  0  0  0
 31 70  1  0  0  0
 31 71  1  0  0  0
 31 72  1  0  0  0
 32 73  1  0  0  0
 32 74  1  0  0  0
 32 75  1  0  0  0
 33 76  1  0  0  0
 33 77  1  0  0  0
 33 78  1  0  0  0
 34 79  1  0  0  0
M  CHG  1  10   1
M  END
> <i_f3d_flags>
0

> <chiral flag>
1

> <version>
0

> <s_i_glide_gridfile>
base1a_gride_6

> <i_i_glide_lignum>
11

> <i_i_glide_rotatable_bonds>
8

> <r_i_docking_score>
-1.71273976875748

> <r_i_glide_ligand_efficiency>
-0.0503746990811022

> <r_i_glide_ligand_efficiency_sa>
-0.163194469437113

> <r_i_glide_ligand_efficiency_ln>
-0.378392255641792

> <r_glide_XP_GScore>
-3.45623976875748

> <r_i_glide_gscore>
-3.45623976875748

> <r_i_glide_evdw>
-26.0764293670654

> <r_i_glide_ecoul>
-8.45254898071289

> <r_i_glide_energy>
-34.5289783477783

> <r_i_glide_einternal>
9.34128761291504

> <r_i_glide_emodel>
-40.5734738698993

> <r_glide_XP_HBond>
-1.6008888499155

> <i_i_glide_confnum>
1

> <i_i_glide_posenum>
16

> <r_i_glide_eff_state_penalty>
1.7435

> <i_glide_XP_PoseRank>
1

> <s_m_source_file>
glide-dock_pose_2-0006_raw.maegz

> <i_m_source_file_index>
1

> <i_lp_mmshare_version>
42013

> <s_epik_input>
W0NIM11bQ0gyXVtDSDJdYzFbY0hdYyhuW25IXTEpW0NIMl1bTkhdW0NIMl1bQ0BASF0oW09IXSlbQ0BASF0yW0NIMl1bQ0BIXShbQ0gzXSlbQ0gyXVtDSDJdW0NIMl1bQ0gyXVtDSDJdW0NIMl1PW0NIMl1DKD1PKU4oW0NIM10pW0NAQEhdKFtDSDNdKUMoPU8pW05IXTI=

> <s_epik_cmdline>
J2VwaWtfcHl0aG9uJywgJy1waCcsICc3LjAnLCAnLXRuJywgJzgnLCAnLW1hJywgJzIwMCcsICctaW1hZScsICc8aW5maWxlLm1hZT4nLCAnLW9tYWUnLCAnPG91dGZpbGUubWFlPic=

> <r_lp_tautomer_probability>
0.5

> <r_epik_Ionization_Penalty>
0.124002

> <r_epik_Ionization_Penalty_Charging>
0.123996

> <r_epik_Ionization_Penalty_Neutral>
5.69922e-06

> <r_epik_State_Penalty>
0.555823

> <r_epik_Charging_Adjusted_Penalty>
0.67982

> <i_epik_Tot_Q>
1

> <i_epik_Tot_abs_Q>
1

> <i_f3d_flags>
0

> <s_lp_Force_Field>
OPLS_2005

> <r_lp_Energy>
33.612

> <b_lp_Chiralities_Consistent>
1

> <s_lp_Variant>
BACE_5.smi:1-2

$$$$
BACE_5.smi:1
                    3D
 Structure written by MMmdl.
 79 80  0  0  1  0            999 V2000
   -4.9178    0.4080   -3.8403 C   0  0  0  0  0  0
   -3.4494    0.6468   -3.4722 C   0  0  0  0  0  0
   -3.2774    1.7387   -2.4056 C   0  0  0  0  0  0
   -1.8337    1.9520   -2.0458 C   0  0  0  0  0  0
   -1.1299    1.4519   -0.9112 C   0  0  0  0  0  0
    0.1432    1.9233   -1.0681 C   0  0  0  0  0  0
    0.1410    2.6529   -2.2346 N   0  0  0  0  0  0
   -1.0600    2.6773   -2.8413 N   0  0  0  0  0  0
    1.3713    1.7523   -0.2354 C   0  0  0  0  0  0
    1.7332    0.3516   -0.0418 N   0  0  0  0  0  0
    2.2992   -0.2961   -1.2271 C   0  0  0  0  0  0
    2.7448   -1.7484   -0.9408 C   0  0  2  0  0  0
    4.1302   -1.8747   -0.2490 C   0  0  2  0  0  0
    4.6429   -3.3237    0.0087 C   0  0  0  0  0  0
    3.7510   -4.3548    0.7578 C   0  0  1  0  0  0
    3.1477   -3.8007    2.0605 C   0  0  0  0  0  0
    2.3816   -4.8203    2.9278 C   0  0  0  0  0  0
    1.9926   -4.2626    4.3102 C   0  0  0  0  0  0
    0.9809   -3.1032    4.2494 C   0  0  0  0  0  0
    0.8538   -2.3325    5.5742 C   0  0  0  0  0  0
    0.1917   -0.9561    5.3816 C   0  0  0  0  0  0
    0.9582   -0.1578    4.4874 O   0  0  0  0  0  0
    2.0181    0.5630    5.0980 C   0  0  0  0  0  0
    2.9386    1.0985    3.9898 C   0  0  0  0  0  0
    2.7007    2.2244    3.5514 O   0  0  0  0  0  0
    3.9513    0.3233    3.5156 N   0  0  0  0  0  0
    4.8635    0.8022    2.4506 C   0  0  2  0  0  0
    5.1397   -0.1638    1.2777 C   0  0  0  0  0  0
    6.1907   -0.0700    0.6437 O   0  0  0  0  0  0
    4.1803   -1.0530    0.9651 N   0  0  0  0  0  0
    6.1034    1.4807    3.0641 C   0  0  0  0  0  0
    4.3029   -0.9482    4.1590 C   0  0  0  0  0  0
    2.7106   -5.0374   -0.1523 C   0  0  0  0  0  0
    2.8288   -2.3941   -2.1954 O   0  0  0  0  0  0
    0.9420    3.1282   -2.6255 H   0  0  0  0  0  0
    1.9689   -2.2347   -0.3530 H   0  0  0  0  0  0
    4.8420   -1.4405   -0.9542 H   0  0  0  0  0  0
    4.4327   -5.1541    1.0520 H   0  0  0  0  0  0
    4.3568    1.6048    1.9125 H   0  0  0  0  0  0
   -5.0061   -0.3697   -4.5992 H   0  0  0  0  0  0
   -5.3761    1.3141   -4.2375 H   0  0  0  0  0  0
   -5.4958    0.0917   -2.9715 H   0  0  0  0  0  0
   -3.0133   -0.2863   -3.1132 H   0  0  0  0  0  0
   -2.8955    0.9210   -4.3710 H   0  0  0  0  0  0
   -3.7126    2.6727   -2.7636 H   0  0  0  0  0  0
   -3.8411    1.4672   -1.5123 H   0  0  0  0  0  0
   -1.5021    0.8349   -0.1068 H   0  0  0  0  0  0
    1.1899    2.2070    0.7388 H   0  0  0  0  0  0
    2.2076    2.3019   -0.6691 H   0  0  0  0  0  0
    2.3770    0.2715    0.7384 H   0  0  0  0  0  0
    1.5462   -0.2991   -2.0167 H   0  0  0  0  0  0
    3.1426    0.2794   -1.6111 H   0  0  0  0  0  0
    4.9311   -3.7599   -0.9483 H   0  0  0  0  0  0
    5.5830   -3.2406    0.5563 H   0  0  0  0  0  0
    3.9600   -3.3834    2.6543 H   0  0  0  0  0  0
    2.4859   -2.9753    1.8095 H   0  0  0  0  0  0
    1.4847   -5.1593    2.4086 H   0  0  0  0  0  0
    3.0054   -5.7030    3.0725 H   0  0  0  0  0  0
    1.5773   -5.0644    4.9216 H   0  0  0  0  0  0
    2.8999   -3.9375    4.8202 H   0  0  0  0  0  0
    1.2859   -2.3981    3.4807 H   0  0  0  0  0  0
    0.0042   -3.4732    3.9359 H   0  0  0  0  0  0
    0.2784   -2.9253    6.2857 H   0  0  0  0  0  0
    1.8378   -2.1986    6.0230 H   0  0  0  0  0  0
   -0.7994   -1.0921    4.9481 H   0  0  0  0  0  0
    0.0475   -0.4471    6.3360 H   0  0  0  0  0  0
    1.5975    1.4016    5.6549 H   0  0  0  0  0  0
    2.5636   -0.0361    5.8253 H   0  0  0  0  0  0
    3.3639   -1.0853    1.5587 H   0  0  0  0  0  0
    6.7414    1.9244    2.2991 H   0  0  0  0  0  0
    6.7063    0.7679    3.6276 H   0  0  0  0  0  0
    5.8149    2.2821    3.7450 H   0  0  0  0  0  0
    4.6074   -0.7839    5.1932 H   0  0  0  0  0  0
    5.1371   -1.4525    3.6720 H   0  0  0  0  0  0
    3.4575   -1.6324    4.1525 H   0  0  0  0  0  0
    1.8525   -4.4029   -0.3618 H   0  0  0  0  0  0
    2.3267   -5.9468    0.3100 H   0  0  0  0  0  0
    3.1501   -5.3307   -1.1058 H   0  0  0  0  0  0
    3.4835   -1.9548   -2.7162 H   0  0  0  0  0  0
  1  2  1  0  0  0
  1 40  1  0  0  0
  1 41  1  0  0  0
  1 42  1  0  0  0
  2  3  1  0  0  0
  2 43  1  0  0  0
  2 44  1  0  0  0
  3 45  1  0  0  0
  3 46  1  0  0  0
  3  4  1  0  0  0
  4  8  2  0  0  0
  4  5  1  0  0  0
  5  6  2  0  0  0
  5 47  1  0  0  0
  6  7  1  0  0  0
  6  9  1  0  0  0
  7  8  1  0  0  0
  7 35  1  0  0  0
  9 10  1  0  0  0
  9 48  1  0  0  0
  9 49  1  0  0  0
 10 11  1  0  0  0
 10 50  1  0  0  0
 11 12  1  0  0  0
 11 51  1  0  0  0
 11 52  1  0  0  0
 12 36  1  0  0  0
 12 13  1  0  0  0
 12 34  1  0  0  0
 13 37  1  0  0  0
 13 30  1  0  0  0
 13 14  1  0  0  0
 14 15  1  0  0  0
 14 53  1  0  0  0
 14 54  1  0  0  0
 15 38  1  0  0  0
 15 16  1  0  0  0
 15 33  1  0  0  0
 16 17  1  0  0  0
 16 55  1  0  0  0
 16 56  1  0  0  0
 17 18  1  0  0  0
 17 57  1  0  0  0
 17 58  1  0  0  0
 18 19  1  0  0  0
 18 59  1  0  0  0
 18 60  1  0  0  0
 19 20  1  0  0  0
 19 61  1  0  0  0
 19 62  1  0  0  0
 20 21  1  0  0  0
 20 63  1  0  0  0
 20 64  1  0  0  0
 21 22  1  0  0  0
 21 65  1  0  0  0
 21 66  1  0  0  0
 22 23  1  0  0  0
 23 24  1  0  0  0
 23 67  1  0  0  0
 23 68  1  0  0  0
 24 25  2  0  0  0
 24 26  1  0  0  0
 26 27  1  0  0  0
 26 32  1  0  0  0
 27 39  1  0  0  0
 27 28  1  0  0  0
 27 31  1  0  0  0
 28 29  2  0  0  0
 28 30  1  0  0  0
 30 69  1  0  0  0
 31 70  1  0  0  0
 31 71  1  0  0  0
 31 72  1  0  0  0
 32 73  1  0  0  0
 32 74  1  0  0  0
 32 75  1  0  0  0
 33 76  1  0  0  0
 33 77  1  0  0  0
 33 78  1  0  0  0
 34 79  1  0  0  0
M  END
> <i_f3d_flags>
0

> <chiral flag>
1

> <version>
0

> <s_i_glide_gridfile>
base1a_gride_6

> <i_i_glide_lignum>
11

> <i_i_glide_rotatable_bonds>
8

> <r_i_docking_score>
-1.71273976875748

> <r_i_glide_ligand_efficiency>
-0.0503746990811022

> <r_i_glide_ligand_efficiency_sa>
-0.163194469437113

> <r_i_glide_ligand_efficiency_ln>
-0.378392255641792

> <r_glide_XP_GScore>
-3.45623976875748

> <r_i_glide_gscore>
-3.45623976875748

> <r_i_glide_evdw>
-26.0764293670654

> <r_i_glide_ecoul>
-8.45254898071289

> <r_i_glide_energy>
-34.5289783477783

> <r_i_glide_einternal>
9.34128761291504

> <r_i_glide_emodel>
-40.5734738698993

> <r_glide_XP_HBond>
-1.6008888499155

> <i_i_glide_confnum>
1

> <i_i_glide_posenum>
16

> <r_i_glide_eff_state_penalty>
1.7435

> <i_glide_XP_PoseRank>
1

> <s_m_source_file>
glide-dock_pose_2-0006_raw.maegz

> <i_m_source_file_index>
1

> <i_lp_mmshare_version>
42013

> <s_epik_input>
W0NIM11bQ0gyXVtDSDJdYzFbY0hdYyhuW25IXTEpW0NIMl1bTkhdW0NIMl1bQ0BASF0oW09IXSlbQ0BASF0yW0NIMl1bQ0BIXShbQ0gzXSlbQ0gyXVtDSDJdW0NIMl1bQ0gyXVtDSDJdW0NIMl1PW0NIMl1DKD1PKU4oW0NIM10pW0NAQEhdKFtDSDNdKUMoPU8pW05IXTI=

> <s_epik_cmdline>
J2VwaWtfcHl0aG9uJywgJy1waCcsICc3LjAnLCAnLXRuJywgJzgnLCAnLW1hJywgJzIwMCcsICctaW1hZScsICc8aW5maWxlLm1hZT4nLCAnLW9tYWUnLCAnPG91dGZpbGUubWFlPic=

> <r_lp_tautomer_probability>
0.5

> <r_epik_Ionization_Penalty>
0.987641

> <r_epik_Ionization_Penalty_Charging>
0

> <r_epik_Ionization_Penalty_Neutral>
0.987641

> <r_epik_State_Penalty>
1.61044

> <r_epik_Charging_Adjusted_Penalty>
1.61044

> <i_epik_Tot_Q>
0

> <i_epik_Tot_abs_Q>
0

> <i_f3d_flags>
0

> <s_lp_Force_Field>
OPLS_2005

> <r_lp_Energy>
32.3926

> <b_lp_Chiralities_Consistent>
1

> <s_lp_Variant>
BACE_5.smi:1-3

$$$$
BACE_5.smi:1
                    3D
 Structure written by MMmdl.
 79 80  0  0  1  0            999 V2000
   -3.9996   -0.0299   -1.3582 C   0  0  0  0  0  0
   -4.4058    1.3096   -0.7274 C   0  0  0  0  0  0
   -3.7504    2.5298   -1.3978 C   0  0  0  0  0  0
   -2.2642    2.6144   -1.2391 C   0  0  0  0  0  0
   -1.4042    2.0580   -0.3327 C   0  0  0  0  0  0
   -0.1175    2.5318   -0.7246 C   0  0  0  0  0  0
   -0.1747    3.3315   -1.7789 N   0  0  0  0  0  0
   -1.4860    3.3780   -2.0790 N   0  0  0  0  0  0
    1.2147    2.2284   -0.0959 C   0  0  0  0  0  0
    1.4238    0.7977    0.1097 N   0  0  0  0  0  0
    1.7052    0.0482   -1.1157 C   0  0  0  0  0  0
    1.9646   -1.4491   -0.8359 C   0  0  2  0  0  0
    3.3968   -1.7738   -0.3298 C   0  0  2  0  0  0
    3.7230   -3.2797   -0.1100 C   0  0  0  0  0  0
    2.8068   -4.1551    0.7903 C   0  0  1  0  0  0
    2.4530   -3.4927    2.1351 C   0  0  0  0  0  0
    1.7924   -4.4244    3.1668 C   0  0  0  0  0  0
    1.5699   -3.7344    4.5220 C   0  0  0  0  0  0
    0.4236   -2.7044    4.5063 C   0  0  0  0  0  0
    0.3503   -1.8285    5.7686 C   0  0  0  0  0  0
    1.2952   -0.6158    5.7390 C   0  0  0  0  0  0
    2.6478   -1.0404    5.8492 O   0  0  0  0  0  0
    3.6070    0.0106    5.8912 C   0  0  0  0  0  0
    3.8091    0.6418    4.5004 C   0  0  0  0  0  0
    3.2775    1.7330    4.2920 O   0  0  0  0  0  0
    4.5660    0.0028    3.5686 N   0  0  0  0  0  0
    4.8997    0.6540    2.2789 C   0  0  2  0  0  0
    4.8320   -0.2283    1.0173 C   0  0  0  0  0  0
    5.7548   -0.2105    0.2024 O   0  0  0  0  0  0
    3.7307   -0.9822    0.8585 N   0  0  0  0  0  0
    6.1748    1.5082    2.4217 C   0  0  0  0  0  0
    5.2354   -1.2694    3.8767 C   0  0  0  0  0  0
    1.5745   -4.7052    0.0458 C   0  0  0  0  0  0
    1.7808   -2.1183   -2.0674 O   0  0  0  0  0  0
   -1.8322    3.9247   -2.8547 H   0  0  0  0  0  0
    1.2115   -1.8055   -0.1357 H   0  0  0  0  0  0
    4.0636   -1.4508   -1.1315 H   0  0  0  0  0  0
    3.4087   -5.0334    1.0283 H   0  0  0  0  0  0
    4.1122    1.3748    2.0521 H   0  0  0  0  0  0
   -4.5176   -0.8578   -0.8738 H   0  0  0  0  0  0
   -2.9290   -0.2121   -1.2634 H   0  0  0  0  0  0
   -4.2508   -0.0564   -2.4187 H   0  0  0  0  0  0
   -5.4890    1.4103   -0.8010 H   0  0  0  0  0  0
   -4.1763    1.3010    0.3385 H   0  0  0  0  0  0
   -4.0035    2.5346   -2.4588 H   0  0  0  0  0  0
   -4.1942    3.4358   -0.9834 H   0  0  0  0  0  0
   -1.6517    1.4000    0.4870 H   0  0  0  0  0  0
    2.0305    2.6450   -0.6883 H   0  0  0  0  0  0
    1.2651    2.7320    0.8697 H   0  0  0  0  0  0
    2.1700    0.6552    0.7824 H   0  0  0  0  0  0
    0.8524    0.1454   -1.7895 H   0  0  0  0  0  0
    2.5594    0.4794   -1.6395 H   0  0  0  0  0  0
    3.8043   -3.7614   -1.0849 H   0  0  0  0  0  0
    4.7337   -3.3338    0.2977 H   0  0  0  0  0  0
    3.3702   -3.1022    2.5728 H   0  0  0  0  0  0
    1.8094   -2.6341    1.9545 H   0  0  0  0  0  0
    0.8418   -4.8051    2.7932 H   0  0  0  0  0  0
    2.4341   -5.2932    3.3176 H   0  0  0  0  0  0
    1.3456   -4.4910    5.2747 H   0  0  0  0  0  0
    2.5047   -3.2747    4.8369 H   0  0  0  0  0  0
    0.4877   -2.0546    3.6344 H   0  0  0  0  0  0
   -0.5161   -3.2473    4.3984 H   0  0  0  0  0  0
   -0.6683   -1.4493    5.8546 H   0  0  0  0  0  0
    0.5225   -2.4279    6.6632 H   0  0  0  0  0  0
    1.1333   -0.0420    4.8257 H   0  0  0  0  0  0
    1.0584    0.0421    6.5764 H   0  0  0  0  0  0
    3.2983    0.7741    6.6075 H   0  0  0  0  0  0
    4.5496   -0.3817    6.2713 H   0  0  0  0  0  0
    3.0347   -0.9553    1.5899 H   0  0  0  0  0  0
    6.3993    2.0508    1.5026 H   0  0  0  0  0  0
    7.0395    0.8893    2.6630 H   0  0  0  0  0  0
    6.0662    2.2497    3.2139 H   0  0  0  0  0  0
    6.0105   -1.1145    4.6280 H   0  0  0  0  0  0
    5.7282   -1.7185    3.0155 H   0  0  0  0  0  0
    4.5321   -2.0073    4.2610 H   0  0  0  0  0  0
    0.7985   -3.9555   -0.0921 H   0  0  0  0  0  0
    1.1239   -5.5335    0.5924 H   0  0  0  0  0  0
    1.8453   -5.0892   -0.9380 H   0  0  0  0  0  0
    2.4137   -1.7870   -2.6860 H   0  0  0  0  0  0
  1  2  1  0  0  0
  1 40  1  0  0  0
  1 41  1  0  0  0
  1 42  1  0  0  0
  2  3  1  0  0  0
  2 43  1  0  0  0
  2 44  1  0  0  0
  3  4  1  0  0  0
  3 45  1  0  0  0
  3 46  1  0  0  0
  4  8  1  0  0  0
  4  5  2  0  0  0
  5  6  1  0  0  0
  5 47  1  0  0  0
  6  7  2  0  0  0
  6  9  1  0  0  0
  7  8  1  0  0  0
  8 35  1  0  0  0
  9 10  1  0  0  0
  9 48  1  0  0  0
  9 49  1  0  0  0
 10 11  1  0  0  0
 10 50  1  0  0  0
 11 12  1  0  0  0
 11 51  1  0  0  0
 11 52  1  0  0  0
 12 36  1  0  0  0
 12 13  1  0  0  0
 12 34  1  0  0  0
 13 37  1  0  0  0
 13 30  1  0  0  0
 13 14  1  0  0  0
 14 15  1  0  0  0
 14 53  1  0  0  0
 14 54  1  0  0  0
 15 38  1  0  0  0
 15 16  1  0  0  0
 15 33  1  0  0  0
 16 17  1  0  0  0
 16 55  1  0  0  0
 16 56  1  0  0  0
 17 18  1  0  0  0
 17 57  1  0  0  0
 17 58  1  0  0  0
 18 19  1  0  0  0
 18 59  1  0  0  0
 18 60  1  0  0  0
 19 20  1  0  0  0
 19 61  1  0  0  0
 19 62  1  0  0  0
 20 21  1  0  0  0
 20 63  1  0  0  0
 20 64  1  0  0  0
 21 22  1  0  0  0
 21 65  1  0  0  0
 21 66  1  0  0  0
 22 23  1  0  0  0
 23 24  1  0  0  0
 23 67  1  0  0  0
 23 68  1  0  0  0
 24 25  2  0  0  0
 24 26  1  0  0  0
 26 27  1  0  0  0
 26 32  1  0  0  0
 27 39  1  0  0  0
 27 28  1  0  0  0
 27 31  1  0  0  0
 28 29  2  0  0  0
 28 30  1  0  0  0
 30 69  1  0  0  0
 31 70  1  0  0  0
 31 71  1  0  0  0
 31 72  1  0  0  0
 32 73  1  0  0  0
 32 74  1  0  0  0
 32 75  1  0  0  0
 33 76  1  0  0  0
 33 77  1  0  0  0
 33 78  1  0  0  0
 34 79  1  0  0  0
M  END
> <i_f3d_flags>
0

> <chiral flag>
1

> <version>
0

> <s_i_glide_gridfile>
base1a_gride_6

> <i_i_glide_lignum>
11

> <i_i_glide_rotatable_bonds>
8

> <r_i_docking_score>
-1.71273976875748

> <r_i_glide_ligand_efficiency>
-0.0503746990811022

> <r_i_glide_ligand_efficiency_sa>
-0.163194469437113

> <r_i_glide_ligand_efficiency_ln>
-0.378392255641792

> <r_glide_XP_GScore>
-3.45623976875748

> <r_i_glide_gscore>
-3.45623976875748

> <r_i_glide_evdw>
-26.0764293670654

> <r_i_glide_ecoul>
-8.45254898071289

> <r_i_glide_energy>
-34.5289783477783

> <r_i_glide_einternal>
9.34128761291504

> <r_i_glide_emodel>
-40.5734738698993

> <r_glide_XP_HBond>
-1.6008888499155

> <i_i_glide_confnum>
1

> <i_i_glide_posenum>
16

> <r_i_glide_eff_state_penalty>
1.7435

> <i_glide_XP_PoseRank>
1

> <s_m_source_file>
glide-dock_pose_2-0006_raw.maegz

> <i_m_source_file_index>
1

> <i_lp_mmshare_version>
42013

> <s_epik_input>
W0NIM11bQ0gyXVtDSDJdYzFbY0hdYyhuW25IXTEpW0NIMl1bTkhdW0NIMl1bQ0BASF0oW09IXSlbQ0BASF0yW0NIMl1bQ0BIXShbQ0gzXSlbQ0gyXVtDSDJdW0NIMl1bQ0gyXVtDSDJdW0NIMl1PW0NIMl1DKD1PKU4oW0NIM10pW0NAQEhdKFtDSDNdKUMoPU8pW05IXTI=

> <s_epik_cmdline>
J2VwaWtfcHl0aG9uJywgJy1waCcsICc3LjAnLCAnLXRuJywgJzgnLCAnLW1hJywgJzIwMCcsICctaW1hZScsICc8aW5maWxlLm1hZT4nLCAnLW9tYWUnLCAnPG91dGZpbGUubWFlPic=

> <r_lp_tautomer_probability>
0.5

> <r_epik_Ionization_Penalty>
1.41911

> <r_epik_Ionization_Penalty_Charging>
0

> <r_epik_Ionization_Penalty_Neutral>
1.41911

> <r_epik_State_Penalty>
1.74351

> <r_epik_Charging_Adjusted_Penalty>
1.74351

> <i_epik_Tot_Q>
0

> <i_epik_Tot_abs_Q>
0

> <i_f3d_flags>
0

> <s_lp_Force_Field>
OPLS_2005

> <r_lp_Energy>
36.9156

> <b_lp_Chiralities_Consistent>
1

> <s_lp_Variant>
BACE_5.smi:1-4

$$$$
BACE_6.smi:1
                    3D
 Structure written by MMmdl.
 83 85  0  0  1  0            999 V2000
   -1.2567    7.8072   -6.2430 C   0  0  0  0  0  0
   -0.4622    7.7860   -4.9289 C   0  0  0  0  0  0
   -0.3571    6.4191   -4.3875 N   0  0  0  0  0  0
   -1.3973    6.0923   -3.3853 C   0  0  0  0  0  0
   -2.3163    4.9055   -3.7593 C   0  0  0  0  0  0
   -3.5819    4.8118   -2.8826 C   0  0  0  0  0  0
   -3.3477    4.5561   -1.3785 C   0  0  0  0  0  0
   -3.0012    3.0960   -1.0213 C   0  0  0  0  0  0
   -2.6756    2.8641    0.4800 C   0  0  2  0  0  0
   -2.1983    1.4146    0.7766 C   0  0  0  0  0  0
   -0.6640    1.1946    0.7417 C   0  0  2  0  0  0
   -0.1779    1.4976   -0.5999 N   0  0  0  0  0  0
    0.7536    2.4049   -0.9296 C   0  0  0  0  0  0
    1.4066    3.0623   -0.1199 O   0  0  0  0  0  0
    0.8570    2.6458   -2.4013 C   0  0  0  0  0  0
    0.9043    1.5643   -3.3087 C   0  0  0  0  0  0
    0.9120    1.8079   -4.6941 C   0  0  0  0  0  0
    0.8374    3.1280   -5.1761 C   0  0  0  0  0  0
    0.7754    4.2155   -4.2773 C   0  0  0  0  0  0
    0.8558    3.9678   -2.8896 C   0  0  0  0  0  0
    0.6516    5.6102   -4.8216 C   0  0  0  0  0  0
    1.4501    5.9553   -5.6946 O   0  0  0  0  0  0
   -0.2495   -0.2496    1.1290 C   0  0  1  0  0  0
    1.2745   -0.4903    1.0773 C   0  0  0  0  0  0
    1.5982   -1.9331    1.0615 N   0  3  0  0  0  0
    3.0270   -2.2493    0.8410 C   0  0  0  0  0  0
    3.5086   -1.7739   -0.5202 C   0  0  0  0  0  0
    4.3175   -0.6230   -0.6244 C   0  0  0  0  0  0
    4.7172   -0.1532   -1.8892 C   0  0  0  0  0  0
    4.3117   -0.8317   -3.0536 C   0  0  0  0  0  0
    3.5078   -1.9890   -2.9606 C   0  0  0  0  0  0
    3.1131   -2.4577   -1.6888 C   0  0  0  0  0  0
    3.0583   -2.7236   -4.2168 C   0  0  0  0  0  0
    4.2529   -3.2704   -5.0143 C   0  0  0  0  0  0
    2.1475   -1.8451   -5.0882 C   0  0  0  0  0  0
   -0.6710   -0.5264    2.4503 O   0  0  0  0  0  0
   -3.8812    3.2094    1.3760 C   0  0  0  0  0  0
   -1.8716    3.5453    0.7623 H   0  0  0  0  0  0
   -0.2118    1.8798    1.4614 H   0  0  0  0  0  0
   -0.7491   -0.9482    0.4557 H   0  0  0  0  0  0
   -1.3352    8.8225   -6.6316 H   0  0  0  0  0  0
   -2.2686    7.4285   -6.0963 H   0  0  0  0  0  0
   -0.7784    7.1963   -7.0091 H   0  0  0  0  0  0
    0.5282    8.2135   -5.0955 H   0  0  0  0  0  0
   -0.9249    8.4639   -4.2112 H   0  0  0  0  0  0
   -0.9366    5.9395   -2.4122 H   0  0  0  0  0  0
   -2.0479    6.9540   -3.2353 H   0  0  0  0  0  0
   -2.6304    5.0216   -4.7973 H   0  0  0  0  0  0
   -1.7859    3.9569   -3.7137 H   0  0  0  0  0  0
   -4.1390    5.7433   -2.9907 H   0  0  0  0  0  0
   -4.2375    4.0357   -3.2789 H   0  0  0  0  0  0
   -2.5836    5.2289   -0.9909 H   0  0  0  0  0  0
   -4.2680    4.8304   -0.8637 H   0  0  0  0  0  0
   -3.8278    2.4490   -1.3171 H   0  0  0  0  0  0
   -2.1575    2.7916   -1.6362 H   0  0  0  0  0  0
   -2.5445    1.1327    1.7711 H   0  0  0  0  0  0
   -2.6943    0.7170    0.1002 H   0  0  0  0  0  0
   -0.6624    1.0436   -1.3608 H   0  0  0  0  0  0
    0.9266    0.5450   -2.9506 H   0  0  0  0  0  0
    0.9477    0.9821   -5.3889 H   0  0  0  0  0  0
    0.8089    3.3003   -6.2425 H   0  0  0  0  0  0
    0.8552    4.7903   -2.1901 H   0  0  0  0  0  0
    1.6820   -0.0555    0.1683 H   0  0  0  0  0  0
    1.7812    0.0023    1.9085 H   0  0  0  0  0  0
    3.6270   -1.8026    1.6351 H   0  0  0  0  0  0
    3.1637   -3.3290    0.9113 H   0  0  0  0  0  0
    4.6215   -0.0869    0.2629 H   0  0  0  0  0  0
    5.3302    0.7327   -1.9673 H   0  0  0  0  0  0
    4.6196   -0.4577   -4.0189 H   0  0  0  0  0  0
    2.4900   -3.3363   -1.6068 H   0  0  0  0  0  0
    2.4653   -3.5837   -3.9032 H   0  0  0  0  0  0
    4.8632   -3.9326   -4.3997 H   0  0  0  0  0  0
    4.8952   -2.4693   -5.3808 H   0  0  0  0  0  0
    3.9165   -3.8429   -5.8790 H   0  0  0  0  0  0
    1.2763   -1.5074   -4.5263 H   0  0  0  0  0  0
    1.7850   -2.3974   -5.9556 H   0  0  0  0  0  0
    2.6708   -0.9617   -5.4556 H   0  0  0  0  0  0
   -0.3113    0.1310    3.0268 H   0  0  0  0  0  0
   -4.7519    2.6047    1.1203 H   0  0  0  0  0  0
   -4.1639    4.2580    1.2937 H   0  0  0  0  0  0
   -3.6538    3.0354    2.4283 H   0  0  0  0  0  0
    1.3090   -2.3320    1.9434 H   0  0  0  0  0  0
    1.0649   -2.3686    0.3227 H   0  0  0  0  0  0
  1  2  1  0  0  0
  1 41  1  0  0  0
  1 42  1  0  0  0
  1 43  1  0  0  0
  2  3  1  0  0  0
  2 44  1  0  0  0
  2 45  1  0  0  0
  3 21  1  0  0  0
  3  4  1  0  0  0
  4  5  1  0  0  0
  4 46  1  0  0  0
  4 47  1  0  0  0
  5  6  1  0  0  0
  5 48  1  0  0  0
  5 49  1  0  0  0
  6  7  1  0  0  0
  6 50  1  0  0  0
  6 51  1  0  0  0
  7  8  1  0  0  0
  7 52  1  0  0  0
  7 53  1  0  0  0
  8  9  1  0  0  0
  8 54  1  0  0  0
  8 55  1  0  0  0
  9 38  1  0  0  0
  9 10  1  0  0  0
  9 37  1  0  0  0
 10 11  1  0  0  0
 10 56  1  0  0  0
 10 57  1  0  0  0
 11 39  1  0  0  0
 11 12  1  0  0  0
 11 23  1  0  0  0
 12 13  1  0  0  0
 12 58  1  0  0  0
 13 14  2  0  0  0
 13 15  1  0  0  0
 15 20  1  0  0  0
 15 16  2  0  0  0
 16 17  1  0  0  0
 16 59  1  0  0  0
 17 18  2  0  0  0
 17 60  1  0  0  0
 18 19  1  0  0  0
 18 61  1  0  0  0
 19 20  2  0  0  0
 19 21  1  0  0  0
 20 62  1  0  0  0
 21 22  2  0  0  0
 23 40  1  0  0  0
 23 24  1  0  0  0
 23 36  1  0  0  0
 24 25  1  0  0  0
 24 63  1  0  0  0
 24 64  1  0  0  0
 25 26  1  0  0  0
 25 82  1  0  0  0
 25 83  1  0  0  0
 26 27  1  0  0  0
 26 65  1  0  0  0
 26 66  1  0  0  0
 27 32  1  0  0  0
 27 28  2  0  0  0
 28 29  1  0  0  0
 28 67  1  0  0  0
 29 30  2  0  0  0
 29 68  1  0  0  0
 30 31  1  0  0  0
 30 69  1  0  0  0
 31 32  2  0  0  0
 31 33  1  0  0  0
 32 70  1  0  0  0
 33 34  1  0  0  0
 33 35  1  0  0  0
 33 71  1  0  0  0
 34 72  1  0  0  0
 34 73  1  0  0  0
 34 74  1  0  0  0
 35 75  1  0  0  0
 35 76  1  0  0  0
 35 77  1  0  0  0
 36 78  1  0  0  0
 37 79  1  0  0  0
 37 80  1  0  0  0
 37 81  1  0  0  0
M  CHG  1  25   1
M  END
> <i_f3d_flags>
0

> <chiral flag>
1

> <version>
0

> <s_i_glide_gridfile>
base1a_gride_6

> <i_i_glide_lignum>
12

> <i_i_glide_rotatable_bonds>
8

> <r_i_docking_score>
-1.23836874775977

> <r_i_glide_ligand_efficiency>
-0.0334694256151289

> <r_i_glide_ligand_efficiency_sa>
-0.111527551262532

> <r_i_glide_ligand_efficiency_ln>
-0.268573149906631

> <r_glide_XP_GScore>
-1.25136874775977

> <r_i_glide_gscore>
-1.25136874775977

> <r_i_glide_evdw>
-29.9007568359375

> <r_i_glide_ecoul>
-5.64044046401978

> <r_i_glide_energy>
-35.5411972999573

> <r_i_glide_einternal>
5.96222877502441

> <r_i_glide_emodel>
-43.1772583358264

> <r_glide_XP_HBond>
-0.049411910718867

> <i_i_glide_confnum>
1

> <i_i_glide_posenum>
3

> <r_i_glide_eff_state_penalty>
0.013

> <i_glide_XP_PoseRank>
1

> <s_m_source_file>
glide-dock_pose_2-0006_raw.maegz

> <i_m_source_file_index>
2

> <i_lp_mmshare_version>
42013

> <s_epik_input>
YzEyW2NIXVtjSF1bY0hdYyhbY0hdMilDKD1PKU4oW0NIMl1bQ0gzXSlbQ0gyXVtDSDJdW0NIMl1bQ0gyXVtDSDJdW0NAQEhdKFtDSDNdKVtDSDJdW0NASF0oW05IXUMxPU8pW0NASF0oW09IXSlbQ0gyXVtOSF1bQ0gyXWMzW2NIXVtjSF1bY0hdYyhbY0hdMylbQ0hdKFtDSDNdKVtDSDNd

> <s_epik_cmdline>
J2VwaWtfcHl0aG9uJywgJy1waCcsICc3LjAnLCAnLXRuJywgJzgnLCAnLW1hJywgJzIwMCcsICctaW1hZScsICc8aW5maWxlLm1hZT4nLCAnLW9tYWUnLCAnPG91dGZpbGUubWFlPic=

> <r_epik_Ionization_Penalty>
0.016516

> <r_epik_Ionization_Penalty_Charging>
0.0165153

> <r_epik_Ionization_Penalty_Neutral>
7.37205e-07

> <r_epik_State_Penalty>
0.0130399

> <r_epik_Charging_Adjusted_Penalty>
0.0295552

> <i_epik_Tot_Q>
1

> <i_epik_Tot_abs_Q>
1

> <i_f3d_flags>
0

> <s_lp_Force_Field>
OPLS_2005

> <r_lp_Energy>
42.7267

> <b_lp_Chiralities_Consistent>
1

> <s_lp_Variant>
BACE_6.smi:1-1

$$$$
BACE_6.smi:1
                    3D
 Structure written by MMmdl.
 82 84  0  0  1  0            999 V2000
   -0.7194    7.6296   -6.3291 C   0  0  0  0  0  0
    0.1311    7.4846   -5.0591 C   0  0  0  0  0  0
    0.0376    6.1232   -4.5025 N   0  0  0  0  0  0
   -0.9968    5.9794   -3.4525 C   0  0  0  0  0  0
   -2.0915    4.9275   -3.7496 C   0  0  0  0  0  0
   -3.3113    5.0335   -2.8119 C   0  0  0  0  0  0
   -3.0397    4.7727   -1.3151 C   0  0  0  0  0  0
   -2.8839    3.2845   -0.9382 C   0  0  0  0  0  0
   -2.5406    3.0358    0.5567 C   0  0  2  0  0  0
   -2.2534    1.5401    0.8711 C   0  0  0  0  0  0
   -0.7646    1.1101    0.8008 C   0  0  2  0  0  0
   -0.2917    1.3031   -0.5651 N   0  0  0  0  0  0
    0.7198    2.0888   -0.9645 C   0  0  0  0  0  0
    1.4721    2.7017   -0.2077 O   0  0  0  0  0  0
    0.7854    2.2680   -2.4478 C   0  0  0  0  0  0
    0.6454    1.1639   -3.3177 C   0  0  0  0  0  0
    0.6244    1.3618   -4.7100 C   0  0  0  0  0  0
    0.7049    2.6647   -5.2360 C   0  0  0  0  0  0
    0.8315    3.7770   -4.3750 C   0  0  0  0  0  0
    0.9397    3.5621   -2.9835 C   0  0  0  0  0  0
    0.8853    5.1586   -4.9620 C   0  0  0  0  0  0
    1.6784    5.3565   -5.8844 O   0  0  0  0  0  0
   -0.5425   -0.3623    1.2555 C   0  0  1  0  0  0
    0.9203   -0.8562    1.1796 C   0  0  0  0  0  0
    1.3215   -1.1636   -0.1896 N   0  0  0  0  0  0
    2.7362   -1.4709   -0.3498 C   0  0  0  0  0  0
    3.1736   -1.2647   -1.7855 C   0  0  0  0  0  0
    2.7818   -2.1783   -2.7849 C   0  0  0  0  0  0
    3.1569   -1.9612   -4.1241 C   0  0  0  0  0  0
    3.9264   -0.8332   -4.4674 C   0  0  0  0  0  0
    4.3306    0.0843   -3.4724 C   0  0  0  0  0  0
    3.9453   -0.1360   -2.1325 C   0  0  0  0  0  0
    5.1684    1.3054   -3.8322 C   0  0  0  0  0  0
    4.3648    2.3129   -4.6663 C   0  0  0  0  0  0
    6.4847    0.9169   -4.5238 C   0  0  0  0  0  0
   -0.9105   -0.4651    2.6166 O   0  0  0  0  0  0
   -3.6577    3.5555    1.4832 C   0  0  0  0  0  0
   -1.6430    3.6066    0.7991 H   0  0  0  0  0  0
   -0.1988    1.7559    1.4752 H   0  0  0  0  0  0
   -1.1878   -1.0333    0.6861 H   0  0  0  0  0  0
   -0.6426    8.6391   -6.7331 H   0  0  0  0  0  0
   -1.7718    7.4347   -6.1212 H   0  0  0  0  0  0
   -0.3978    6.9368   -7.1070 H   0  0  0  0  0  0
    1.1678    7.7409   -5.2844 H   0  0  0  0  0  0
   -0.1733    8.2335   -4.3274 H   0  0  0  0  0  0
   -0.5225    5.7916   -2.4920 H   0  0  0  0  0  0
   -1.5111    6.9302   -3.3113 H   0  0  0  0  0  0
   -2.4377    5.0650   -4.7747 H   0  0  0  0  0  0
   -1.7005    3.9138   -3.7014 H   0  0  0  0  0  0
   -3.7332    6.0338   -2.9166 H   0  0  0  0  0  0
   -4.0906    4.3532   -3.1567 H   0  0  0  0  0  0
   -2.1702    5.3369   -0.9804 H   0  0  0  0  0  0
   -3.8853    5.1844   -0.7655 H   0  0  0  0  0  0
   -3.8015    2.7525   -1.1924 H   0  0  0  0  0  0
   -2.1120    2.8555   -1.5727 H   0  0  0  0  0  0
   -2.6065    1.3265    1.8799 H   0  0  0  0  0  0
   -2.8585    0.9034    0.2240 H   0  0  0  0  0  0
   -0.8458    0.8690   -1.2892 H   0  0  0  0  0  0
    0.5484    0.1618   -2.9252 H   0  0  0  0  0  0
    0.5231    0.5160   -5.3740 H   0  0  0  0  0  0
    0.6557    2.8066   -6.3061 H   0  0  0  0  0  0
    1.0859    4.3967   -2.3145 H   0  0  0  0  0  0
    1.5771   -0.0974    1.6077 H   0  0  0  0  0  0
    1.0442   -1.7516    1.7906 H   0  0  0  0  0  0
    3.3391   -0.8212    0.2860 H   0  0  0  0  0  0
    2.9431   -2.4949   -0.0381 H   0  0  0  0  0  0
    2.1851   -3.0410   -2.5270 H   0  0  0  0  0  0
    2.8519   -2.6591   -4.8897 H   0  0  0  0  0  0
    4.2040   -0.6763   -5.4993 H   0  0  0  0  0  0
    4.2355    0.5679   -1.3659 H   0  0  0  0  0  0
    5.4374    1.8057   -2.9009 H   0  0  0  0  0  0
    3.4832    2.6453   -4.1208 H   0  0  0  0  0  0
    4.0317    1.8814   -5.6106 H   0  0  0  0  0  0
    4.9587    3.1977   -4.8958 H   0  0  0  0  0  0
    7.0670    0.2361   -3.9022 H   0  0  0  0  0  0
    7.1004    1.7967   -4.7126 H   0  0  0  0  0  0
    6.3104    0.4277   -5.4824 H   0  0  0  0  0  0
   -0.8177   -1.3665    2.8847 H   0  0  0  0  0  0
   -4.6097    3.0686    1.2689 H   0  0  0  0  0  0
   -3.8008    4.6311    1.3884 H   0  0  0  0  0  0
   -3.4190    3.3702    2.5310 H   0  0  0  0  0  0
    1.0694   -0.3971   -0.8054 H   0  0  0  0  0  0
  1  2  1  0  0  0
  1 41  1  0  0  0
  1 42  1  0  0  0
  1 43  1  0  0  0
  2  3  1  0  0  0
  2 44  1  0  0  0
  2 45  1  0  0  0
  3 21  1  0  0  0
  3  4  1  0  0  0
  4  5  1  0  0  0
  4 46  1  0  0  0
  4 47  1  0  0  0
  5  6  1  0  0  0
  5 48  1  0  0  0
  5 49  1  0  0  0
  6  7  1  0  0  0
  6 50  1  0  0  0
  6 51  1  0  0  0
  7  8  1  0  0  0
  7 52  1  0  0  0
  7 53  1  0  0  0
  8  9  1  0  0  0
  8 54  1  0  0  0
  8 55  1  0  0  0
  9 38  1  0  0  0
  9 10  1  0  0  0
  9 37  1  0  0  0
 10 11  1  0  0  0
 10 56  1  0  0  0
 10 57  1  0  0  0
 11 39  1  0  0  0
 11 12  1  0  0  0
 11 23  1  0  0  0
 12 13  1  0  0  0
 12 58  1  0  0  0
 13 14  2  0  0  0
 13 15  1  0  0  0
 15 20  1  0  0  0
 15 16  2  0  0  0
 16 17  1  0  0  0
 16 59  1  0  0  0
 17 18  2  0  0  0
 17 60  1  0  0  0
 18 19  1  0  0  0
 18 61  1  0  0  0
 19 20  2  0  0  0
 19 21  1  0  0  0
 20 62  1  0  0  0
 21 22  2  0  0  0
 23 40  1  0  0  0
 23 24  1  0  0  0
 23 36  1  0  0  0
 24 25  1  0  0  0
 24 63  1  0  0  0
 24 64  1  0  0  0
 25 26  1  0  0  0
 25 82  1  0  0  0
 26 27  1  0  0  0
 26 65  1  0  0  0
 26 66  1  0  0  0
 27 32  1  0  0  0
 27 28  2  0  0  0
 28 29  1  0  0  0
 28 67  1  0  0  0
 29 30  2  0  0  0
 29 68  1  0  0  0
 30 31  1  0  0  0
 30 69  1  0  0  0
 31 32  2  0  0  0
 31 33  1  0  0  0
 32 70  1  0  0  0
 33 34  1  0  0  0
 33 35  1  0  0  0
 33 71  1  0  0  0
 34 72  1  0  0  0
 34 73  1  0  0  0
 34 74  1  0  0  0
 35 75  1  0  0  0
 35 76  1  0  0  0
 35 77  1  0  0  0
 36 78  1  0  0  0
 37 79  1  0  0  0
 37 80  1  0  0  0
 37 81  1  0  0  0
M  END
> <i_f3d_flags>
0

> <chiral flag>
1

> <version>
0

> <s_i_glide_gridfile>
base1a_gride_6

> <i_i_glide_lignum>
12

> <i_i_glide_rotatable_bonds>
8

> <r_i_docking_score>
-1.23836874775977

> <r_i_glide_ligand_efficiency>
-0.0334694256151289

> <r_i_glide_ligand_efficiency_sa>
-0.111527551262532

> <r_i_glide_ligand_efficiency_ln>
-0.268573149906631

> <r_glide_XP_GScore>
-1.25136874775977

> <r_i_glide_gscore>
-1.25136874775977

> <r_i_glide_evdw>
-29.9007568359375

> <r_i_glide_ecoul>
-5.64044046401978

> <r_i_glide_energy>
-35.5411972999573

> <r_i_glide_einternal>
5.96222877502441

> <r_i_glide_emodel>
-43.1772583358264

> <r_glide_XP_HBond>
-0.049411910718867

> <i_i_glide_confnum>
1

> <i_i_glide_posenum>
3

> <r_i_glide_eff_state_penalty>
0.013

> <i_glide_XP_PoseRank>
1

> <s_m_source_file>
glide-dock_pose_2-0006_raw.maegz

> <i_m_source_file_index>
2

> <i_lp_mmshare_version>
42013

> <s_epik_input>
YzEyW2NIXVtjSF1bY0hdYyhbY0hdMilDKD1PKU4oW0NIMl1bQ0gzXSlbQ0gyXVtDSDJdW0NIMl1bQ0gyXVtDSDJdW0NAQEhdKFtDSDNdKVtDSDJdW0NASF0oW05IXUMxPU8pW0NASF0oW09IXSlbQ0gyXVtOSF1bQ0gyXWMzW2NIXVtjSF1bY0hdYyhbY0hdMylbQ0hdKFtDSDNdKVtDSDNd

> <s_epik_cmdline>
J2VwaWtfcHl0aG9uJywgJy1waCcsICc3LjAnLCAnLXRuJywgJzgnLCAnLW1hJywgJzIwMCcsICctaW1hZScsICc8aW5maWxlLm1hZT4nLCAnLW9tYWUnLCAnPG91dGZpbGUubWFlPic=

> <r_epik_Ionization_Penalty>
2.12936

> <r_epik_Ionization_Penalty_Charging>
0

> <r_epik_Ionization_Penalty_Neutral>
2.12936

> <r_epik_State_Penalty>
2.26762

> <r_epik_Charging_Adjusted_Penalty>
2.26762

> <i_epik_Tot_Q>
0

> <i_epik_Tot_abs_Q>
0

> <i_f3d_flags>
0

> <s_lp_Force_Field>
OPLS_2005

> <r_lp_Energy>
47.782

> <b_lp_Chiralities_Consistent>
1

> <s_lp_Variant>
BACE_6.smi:1-2

$$$$
