BACE_16.smi:1
                    3D
 Structure written by MMmdl.
 85 88  0  0  1  0            999 V2000
   -4.3618    5.1131   -3.0333 C   0  0  0  0  0  0
   -3.3176    5.7273   -2.0880 C   0  0  0  0  0  0
   -1.9903    6.0025   -2.8116 C   0  0  0  0  0  0
   -3.1125    4.8712   -0.8446 C   0  0  0  0  0  0
   -3.4353    5.3875    0.4288 C   0  0  0  0  0  0
   -3.2460    4.6031    1.5827 C   0  0  0  0  0  0
   -2.7321    3.2975    1.4720 C   0  0  0  0  0  0
   -2.4069    2.7720    0.2046 C   0  0  0  0  0  0
   -2.5987    3.5596   -0.9497 C   0  0  0  0  0  0
   -1.8449    1.3704    0.0836 C   0  0  0  0  0  0
   -0.3722    1.3993    0.1540 N   0  3  0  0  0  0
    0.2609    0.0679    0.0741 C   0  0  0  0  0  0
    1.7988    0.1670    0.1613 C   0  0  2  0  0  0
    2.5339   -1.1944    0.0262 C   0  0  2  0  0  0
    4.0816   -1.0574    0.0513 C   0  0  0  0  0  0
    4.7003   -0.6965   -1.2939 C   0  0  0  0  0  0
    4.8024    0.6519   -1.6886 C   0  0  0  0  0  0
    5.3151    0.9748   -2.9578 C   0  0  0  0  0  0
    5.7289   -0.0446   -3.8367 C   0  0  0  0  0  0
    5.6486   -1.4061   -3.4480 C   0  0  0  0  0  0
    5.1432   -1.7131   -2.1682 C   0  0  0  0  0  0
    6.0318   -2.4723   -4.2380 O   0  0  0  0  0  0
    6.3075   -2.2570   -5.6201 C   0  0  0  0  0  0
    5.0047   -2.1034   -6.4258 C   0  0  0  0  0  0
    4.2650   -3.4380   -6.6198 C   0  0  0  0  0  0
    2.8367   -3.2576   -7.1659 C   0  0  0  0  0  0
    1.9873   -2.6774   -6.1780 O   0  0  0  0  0  0
    1.6394   -3.4560   -5.0957 C   0  0  0  0  0  0
    1.5770   -2.8277   -3.8384 C   0  0  0  0  0  0
    1.2741   -3.5659   -2.6712 C   0  0  0  0  0  0
    0.9714   -4.9399   -2.7842 C   0  0  0  0  0  0
    1.0009   -5.5847   -4.0451 C   0  0  0  0  0  0
    1.3412   -4.8356   -5.1888 C   0  0  0  0  0  0
    0.7215   -6.9203   -4.2349 O   0  0  0  0  0  0
    0.3722   -7.6922   -3.0940 C   0  0  0  0  0  0
    0.0955   -9.1353   -3.5116 C   0  0  0  0  0  0
    0.2104   -9.5126   -4.6769 O   0  0  0  0  0  0
   -0.3296  -10.1009   -2.4129 C   0  0  0  0  0  0
    1.2763   -2.9076   -1.3208 C   0  0  0  0  0  0
    0.5858   -3.3331   -0.3949 O   0  0  0  0  0  0
    2.1406   -1.8891   -1.1992 N   0  0  0  0  0  0
    2.1073    0.7177    1.4283 O   0  0  0  0  0  0
    2.1529    0.8513   -0.6100 H   0  0  0  0  0  0
    2.2497   -1.8018    0.8880 H   0  0  0  0  0  0
   -5.3157    4.9730   -2.5241 H   0  0  0  0  0  0
   -4.0407    4.1431   -3.4138 H   0  0  0  0  0  0
   -4.5404    5.7608   -3.8922 H   0  0  0  0  0  0
   -3.7098    6.6923   -1.7636 H   0  0  0  0  0  0
   -1.2728    6.4809   -2.1445 H   0  0  0  0  0  0
   -2.1401    6.6672   -3.6629 H   0  0  0  0  0  0
   -1.5373    5.0846   -3.1867 H   0  0  0  0  0  0
   -3.8295    6.3883    0.5283 H   0  0  0  0  0  0
   -3.4949    5.0048    2.5539 H   0  0  0  0  0  0
   -2.5876    2.7033    2.3626 H   0  0  0  0  0  0
   -2.3482    3.1556   -1.9198 H   0  0  0  0  0  0
   -2.2419    0.7446    0.8843 H   0  0  0  0  0  0
   -2.1627    0.9260   -0.8606 H   0  0  0  0  0  0
   -0.0238    1.9710   -0.6019 H   0  0  0  0  0  0
   -0.1247   -0.5727    0.8687 H   0  0  0  0  0  0
   -0.0408   -0.3787   -0.8732 H   0  0  0  0  0  0
    4.4083   -0.3420    0.8062 H   0  0  0  0  0  0
    4.5082   -2.0124    0.3610 H   0  0  0  0  0  0
    4.4759    1.4408   -1.0268 H   0  0  0  0  0  0
    5.3847    2.0086   -3.2629 H   0  0  0  0  0  0
    6.1050    0.2513   -4.8031 H   0  0  0  0  0  0
    5.0663   -2.7481   -1.8678 H   0  0  0  0  0  0
    6.9801   -1.4138   -5.7725 H   0  0  0  0  0  0
    6.8580   -3.1227   -5.9890 H   0  0  0  0  0  0
    4.3518   -1.3768   -5.9420 H   0  0  0  0  0  0
    5.2369   -1.6896   -7.4075 H   0  0  0  0  0  0
    4.8366   -4.0563   -7.3125 H   0  0  0  0  0  0
    4.2368   -3.9928   -5.6816 H   0  0  0  0  0  0
    2.8588   -2.5875   -8.0256 H   0  0  0  0  0  0
    2.4431   -4.1982   -7.5477 H   0  0  0  0  0  0
    1.8008   -1.7722   -3.7805 H   0  0  0  0  0  0
    0.7304   -5.4916   -1.8878 H   0  0  0  0  0  0
    1.3528   -5.3434   -6.1404 H   0  0  0  0  0  0
    1.1850   -7.6836   -2.3671 H   0  0  0  0  0  0
   -0.5200   -7.2825   -2.6194 H   0  0  0  0  0  0
   -0.8743   -9.5732   -1.6300 H   0  0  0  0  0  0
    0.5454  -10.5742   -1.9679 H   0  0  0  0  0  0
   -0.9763  -10.8791   -2.8183 H   0  0  0  0  0  0
    2.6602   -1.6375   -2.0283 H   0  0  0  0  0  0
    3.0456    0.8115    1.4967 H   0  0  0  0  0  0
   -0.1018    1.8243    1.0297 H   0  0  0  0  0  0
  1  2  1  0  0  0
  1 45  1  0  0  0
  1 46  1  0  0  0
  1 47  1  0  0  0
  2  3  1  0  0  0
  2  4  1  0  0  0
  2 48  1  0  0  0
  3 49  1  0  0  0
  3 50  1  0  0  0
  3 51  1  0  0  0
  4  9  1  0  0  0
  4  5  2  0  0  0
  5  6  1  0  0  0
  5 52  1  0  0  0
  6  7  2  0  0  0
  6 53  1  0  0  0
  7  8  1  0  0  0
  7 54  1  0  0  0
  8  9  2  0  0  0
  8 10  1  0  0  0
  9 55  1  0  0  0
 10 11  1  0  0  0
 10 56  1  0  0  0
 10 57  1  0  0  0
 11 12  1  0  0  0
 11 58  1  0  0  0
 11 85  1  0  0  0
 12 13  1  0  0  0
 12 59  1  0  0  0
 12 60  1  0  0  0
 13 43  1  0  0  0
 13 14  1  0  0  0
 13 42  1  0  0  0
 14 44  1  0  0  0
 14 41  1  0  0  0
 14 15  1  0  0  0
 15 16  1  0  0  0
 15 61  1  0  0  0
 15 62  1  0  0  0
 16 21  1  0  0  0
 16 17  2  0  0  0
 17 18  1  0  0  0
 17 63  1  0  0  0
 18 19  2  0  0  0
 18 64  1  0  0  0
 19 20  1  0  0  0
 19 65  1  0  0  0
 20 21  2  0  0  0
 20 22  1  0  0  0
 21 66  1  0  0  0
 22 23  1  0  0  0
 23 24  1  0  0  0
 23 67  1  0  0  0
 23 68  1  0  0  0
 24 25  1  0  0  0
 24 69  1  0  0  0
 24 70  1  0  0  0
 25 26  1  0  0  0
 25 71  1  0  0  0
 25 72  1  0  0  0
 26 27  1  0  0  0
 26 73  1  0  0  0
 26 74  1  0  0  0
 27 28  1  0  0  0
 28 33  1  0  0  0
 28 29  2  0  0  0
 29 30  1  0  0  0
 29 75  1  0  0  0
 30 31  2  0  0  0
 30 39  1  0  0  0
 31 32  1  0  0  0
 31 76  1  0  0  0
 32 33  2  0  0  0
 32 34  1  0  0  0
 33 77  1  0  0  0
 34 35  1  0  0  0
 35 36  1  0  0  0
 35 78  1  0  0  0
 35 79  1  0  0  0
 36 37  2  0  0  0
 36 38  1  0  0  0
 38 80  1  0  0  0
 38 81  1  0  0  0
 38 82  1  0  0  0
 39 40  2  0  0  0
 39 41  1  0  0  0
 41 83  1  0  0  0
 42 84  1  0  0  0
M  CHG  1  11   1
M  END
> <i_f3d_flags>
0

> <chiral flag>
1

> <version>
0

> <s_i_glide_gridfile>
base1a_gride_6

> <i_i_glide_lignum>
33

> <i_i_glide_rotatable_bonds>
10

> <r_i_docking_score>
-0.177683247420306

> <r_i_glide_ligand_efficiency>
-0.00423055351000729

> <r_i_glide_ligand_efficiency_sa>
-0.0147055167050818

> <r_i_glide_ligand_efficiency_ln>
-0.0375043558830274

> <r_glide_XP_GScore>
-2.35358324742031

> <r_i_glide_gscore>
-2.35358324742031

> <r_i_glide_evdw>
-33.1708602905273

> <r_i_glide_ecoul>
-7.17358779907227

> <r_i_glide_energy>
-40.3444480895996

> <r_i_glide_einternal>
13.482479095459

> <r_i_glide_emodel>
-48.3234682499519

> <r_glide_XP_HBond>
-0.825224296750553

> <i_i_glide_confnum>
1

> <i_i_glide_posenum>
5

> <r_i_glide_eff_state_penalty>
2.1759

> <i_glide_XP_PoseRank>
1

> <s_m_source_file>
glide-dock_pose_2-0017_raw.maegz

> <i_m_source_file_index>
1

> <i_lp_mmshare_version>
42013

> <s_epik_input>
W0NIM11bQ0hdKFtDSDNdKWMxW2NIXVtjSF1bY0hdYyhbY0hdMSlbQ0gyXVtOSF1bQ0gyXVtDQEBIXShbT0hdKVtDQEhdKFtDSDJdMilbTkhdQyg9TyljKFtjSF1jKFtjSF0zKU9bQ0gyXUMoPU8pW0NIM10pW2NIXWMzT1tDSDJdW0NIMl1bQ0gyXVtDSDJdT2MoW2NIXTQpW2NIXVtjSF1bY0hdYzI0

> <s_epik_cmdline>
J2VwaWtfcHl0aG9uJywgJy1waCcsICc3LjAnLCAnLXRuJywgJzgnLCAnLW1hJywgJzIwMCcsICctaW1hZScsICc8aW5maWxlLm1hZT4nLCAnLW9tYWUnLCAnPG91dGZpbGUubWFlPic=

> <r_lp_tautomer_probability>
1

> <r_epik_Ionization_Penalty>
0.0191203

> <r_epik_Ionization_Penalty_Charging>
0.0191194

> <r_epik_Ionization_Penalty_Neutral>
9.73569e-07

> <r_epik_State_Penalty>
0.0152524

> <r_epik_Charging_Adjusted_Penalty>
0.0343718

> <i_epik_Tot_Q>
1

> <i_epik_Tot_abs_Q>
1

> <i_f3d_flags>
0

> <s_lp_Force_Field>
OPLS_2005

> <r_lp_Energy>
32.7148

> <b_lp_Chiralities_Consistent>
1

> <s_lp_Variant>
BACE_16.smi:1-1

$$$$
BACE_16.smi:1
                    3D
 Structure written by MMmdl.
 84 87  0  0  1  0            999 V2000
   -3.3554    0.6113   -5.9868 C   0  0  0  0  0  0
   -2.0199    0.6291   -5.2285 C   0  0  0  0  0  0
   -0.8643    0.1274   -6.1073 C   0  0  0  0  0  0
   -2.1172   -0.1373   -3.9151 C   0  0  0  0  0  0
   -2.2926   -1.5387   -3.9043 C   0  0  0  0  0  0
   -2.3892   -2.2331   -2.6829 C   0  0  0  0  0  0
   -2.3156   -1.5318   -1.4644 C   0  0  0  0  0  0
   -2.1407   -0.1325   -1.4646 C   0  0  0  0  0  0
   -2.0410    0.5585   -2.6898 C   0  0  0  0  0  0
   -2.0275    0.6303   -0.1568 C   0  0  0  0  0  0
   -0.6458    1.0037    0.1328 N   0  0  0  0  0  0
    0.1379   -0.0876    0.7076 C   0  0  0  0  0  0
    1.6529    0.1555    0.5282 C   0  0  2  0  0  0
    2.4796   -1.1336    0.2639 C   0  0  2  0  0  0
    3.9942   -0.8535    0.0575 C   0  0  0  0  0  0
    4.3559   -0.3804   -1.3462 C   0  0  0  0  0  0
    4.2754    0.9869   -1.6749 C   0  0  0  0  0  0
    4.5421    1.4106   -2.9890 C   0  0  0  0  0  0
    4.8920    0.4732   -3.9797 C   0  0  0  0  0  0
    4.9956   -0.9048   -3.6615 C   0  0  0  0  0  0
    4.7366   -1.3124   -2.3366 C   0  0  0  0  0  0
    5.3343   -1.8947   -4.5633 O   0  0  0  0  0  0
    5.3448   -1.5974   -5.9576 C   0  0  0  0  0  0
    3.9131   -1.5432   -6.5207 C   0  0  0  0  0  0
    3.2829   -2.9379   -6.6733 C   0  0  0  0  0  0
    1.7734   -2.8830   -6.9710 C   0  0  0  0  0  0
    1.0512   -2.4363   -5.8261 O   0  0  0  0  0  0
    0.9621   -3.2944   -4.7535 C   0  0  0  0  0  0
    1.0940   -2.7419   -3.4667 C   0  0  0  0  0  0
    1.0677   -3.5649   -2.3168 C   0  0  0  0  0  0
    0.8443   -4.9508   -2.4688 C   0  0  0  0  0  0
    0.6737   -5.5198   -3.7545 C   0  0  0  0  0  0
    0.7410   -4.6843   -4.8863 C   0  0  0  0  0  0
    0.4484   -6.8597   -3.9822 O   0  0  0  0  0  0
    0.3712   -7.7199   -2.8540 C   0  0  0  0  0  0
    0.1034   -9.1515   -3.3151 C   0  0  0  0  0  0
   -0.0435   -9.4393   -4.5022 O   0  0  0  0  0  0
    0.0266  -10.2217   -2.2337 C   0  0  0  0  0  0
    1.2710   -2.9850   -0.9445 C   0  0  0  0  0  0
    0.8705   -3.5679    0.0631 O   0  0  0  0  0  0
    1.9726   -1.8417   -0.9130 N   0  0  0  0  0  0
    2.1118    0.7547    1.7232 O   0  0  0  0  0  0
    1.8174    0.8512   -0.2953 H   0  0  0  0  0  0
    2.3803   -1.7702    1.1452 H   0  0  0  0  0  0
   -4.1578    1.0259   -5.3757 H   0  0  0  0  0  0
   -3.6413   -0.4021   -6.2702 H   0  0  0  0  0  0
   -3.2959    1.2061   -6.8987 H   0  0  0  0  0  0
   -1.8024    1.6703   -4.9864 H   0  0  0  0  0  0
    0.0838    0.1680   -5.5702 H   0  0  0  0  0  0
   -0.7608    0.7396   -7.0035 H   0  0  0  0  0  0
   -1.0237   -0.9008   -6.4320 H   0  0  0  0  0  0
   -2.3517   -2.0885   -4.8321 H   0  0  0  0  0  0
   -2.5150   -3.3058   -2.6814 H   0  0  0  0  0  0
   -2.3821   -2.0720   -0.5313 H   0  0  0  0  0  0
   -1.9029    1.6301   -2.6849 H   0  0  0  0  0  0
   -2.6344    1.5316   -0.2470 H   0  0  0  0  0  0
   -2.4565    0.0531    0.6635 H   0  0  0  0  0  0
   -0.2036    1.2896   -0.7349 H   0  0  0  0  0  0
   -0.1225   -0.2410    1.7558 H   0  0  0  0  0  0
   -0.1454   -1.0112    0.2114 H   0  0  0  0  0  0
    4.3705   -0.1394    0.7903 H   0  0  0  0  0  0
    4.5464   -1.7749    0.2469 H   0  0  0  0  0  0
    3.9923    1.7116   -0.9254 H   0  0  0  0  0  0
    4.4691    2.4581   -3.2416 H   0  0  0  0  0  0
    5.0755    0.8443   -4.9753 H   0  0  0  0  0  0
    4.7980   -2.3619   -2.0872 H   0  0  0  0  0  0
    5.9010   -0.6861   -6.1741 H   0  0  0  0  0  0
    5.8999   -2.3881   -6.4632 H   0  0  0  0  0  0
    3.2874   -0.9136   -5.8876 H   0  0  0  0  0  0
    3.9300   -1.0609   -7.4984 H   0  0  0  0  0  0
    3.7885   -3.4626   -7.4844 H   0  0  0  0  0  0
    3.4633   -3.5329   -5.7774 H   0  0  0  0  0  0
    1.5876   -2.1775   -7.7813 H   0  0  0  0  0  0
    1.4132   -3.8427   -7.3379 H   0  0  0  0  0  0
    1.2465   -1.6755   -3.3813 H   0  0  0  0  0  0
    0.8141   -5.5701   -1.5847 H   0  0  0  0  0  0
    0.6042   -5.1336   -5.8573 H   0  0  0  0  0  0
    1.3071   -7.6961   -2.2947 H   0  0  0  0  0  0
   -0.4354   -7.4037   -2.1917 H   0  0  0  0  0  0
   -0.3264   -9.7940   -1.2951 H   0  0  0  0  0  0
    1.0108  -10.6597   -2.0673 H   0  0  0  0  0  0
   -0.6599  -11.0145   -2.5312 H   0  0  0  0  0  0
    2.2538   -1.4592   -1.8044 H   0  0  0  0  0  0
    1.6071    1.5393    1.8746 H   0  0  0  0  0  0
  1  2  1  0  0  0
  1 45  1  0  0  0
  1 46  1  0  0  0
  1 47  1  0  0  0
  2  3  1  0  0  0
  2  4  1  0  0  0
  2 48  1  0  0  0
  3 49  1  0  0  0
  3 50  1  0  0  0
  3 51  1  0  0  0
  4  9  1  0  0  0
  4  5  2  0  0  0
  5  6  1  0  0  0
  5 52  1  0  0  0
  6  7  2  0  0  0
  6 53  1  0  0  0
  7  8  1  0  0  0
  7 54  1  0  0  0
  8  9  2  0  0  0
  8 10  1  0  0  0
  9 55  1  0  0  0
 10 11  1  0  0  0
 10 56  1  0  0  0
 10 57  1  0  0  0
 11 12  1  0  0  0
 11 58  1  0  0  0
 12 13  1  0  0  0
 12 59  1  0  0  0
 12 60  1  0  0  0
 13 43  1  0  0  0
 13 14  1  0  0  0
 13 42  1  0  0  0
 14 44  1  0  0  0
 14 41  1  0  0  0
 14 15  1  0  0  0
 15 16  1  0  0  0
 15 61  1  0  0  0
 15 62  1  0  0  0
 16 21  1  0  0  0
 16 17  2  0  0  0
 17 18  1  0  0  0
 17 63  1  0  0  0
 18 19  2  0  0  0
 18 64  1  0  0  0
 19 20  1  0  0  0
 19 65  1  0  0  0
 20 21  2  0  0  0
 20 22  1  0  0  0
 21 66  1  0  0  0
 22 23  1  0  0  0
 23 24  1  0  0  0
 23 67  1  0  0  0
 23 68  1  0  0  0
 24 25  1  0  0  0
 24 69  1  0  0  0
 24 70  1  0  0  0
 25 26  1  0  0  0
 25 71  1  0  0  0
 25 72  1  0  0  0
 26 27  1  0  0  0
 26 73  1  0  0  0
 26 74  1  0  0  0
 27 28  1  0  0  0
 28 33  1  0  0  0
 28 29  2  0  0  0
 29 30  1  0  0  0
 29 75  1  0  0  0
 30 31  2  0  0  0
 30 39  1  0  0  0
 31 32  1  0  0  0
 31 76  1  0  0  0
 32 33  2  0  0  0
 32 34  1  0  0  0
 33 77  1  0  0  0
 34 35  1  0  0  0
 35 36  1  0  0  0
 35 78  1  0  0  0
 35 79  1  0  0  0
 36 37  2  0  0  0
 36 38  1  0  0  0
 38 80  1  0  0  0
 38 81  1  0  0  0
 38 82  1  0  0  0
 39 40  2  0  0  0
 39 41  1  0  0  0
 41 83  1  0  0  0
 42 84  1  0  0  0
M  END
> <i_f3d_flags>
0

> <chiral flag>
1

> <version>
0

> <s_i_glide_gridfile>
base1a_gride_6

> <i_i_glide_lignum>
33

> <i_i_glide_rotatable_bonds>
10

> <r_i_docking_score>
-0.177683247420306

> <r_i_glide_ligand_efficiency>
-0.00423055351000729

> <r_i_glide_ligand_efficiency_sa>
-0.0147055167050818

> <r_i_glide_ligand_efficiency_ln>
-0.0375043558830274

> <r_glide_XP_GScore>
-2.35358324742031

> <r_i_glide_gscore>
-2.35358324742031

> <r_i_glide_evdw>
-33.1708602905273

> <r_i_glide_ecoul>
-7.17358779907227

> <r_i_glide_energy>
-40.3444480895996

> <r_i_glide_einternal>
13.482479095459

> <r_i_glide_emodel>
-48.3234682499519

> <r_glide_XP_HBond>
-0.825224296750553

> <i_i_glide_confnum>
1

> <i_i_glide_posenum>
5

> <r_i_glide_eff_state_penalty>
2.1759

> <i_glide_XP_PoseRank>
1

> <s_m_source_file>
glide-dock_pose_2-0017_raw.maegz

> <i_m_source_file_index>
1

> <i_lp_mmshare_version>
42013

> <s_epik_input>
W0NIM11bQ0hdKFtDSDNdKWMxW2NIXVtjSF1bY0hdYyhbY0hdMSlbQ0gyXVtOSF1bQ0gyXVtDQEBIXShbT0hdKVtDQEhdKFtDSDJdMilbTkhdQyg9TyljKFtjSF1jKFtjSF0zKU9bQ0gyXUMoPU8pW0NIM10pW2NIXWMzT1tDSDJdW0NIMl1bQ0gyXVtDSDJdT2MoW2NIXTQpW2NIXVtjSF1bY0hdYzI0

> <s_epik_cmdline>
J2VwaWtfcHl0aG9uJywgJy1waCcsICc3LjAnLCAnLXRuJywgJzgnLCAnLW1hJywgJzIwMCcsICctaW1hZScsICc8aW5maWxlLm1hZT4nLCAnLW9tYWUnLCAnPG91dGZpbGUubWFlPic=

> <r_lp_tautomer_probability>
1

> <r_epik_Ionization_Penalty>
2.04391

> <r_epik_Ionization_Penalty_Charging>
0

> <r_epik_Ionization_Penalty_Neutral>
2.04391

> <r_epik_State_Penalty>
2.17586

> <r_epik_Charging_Adjusted_Penalty>
2.17586

> <i_epik_Tot_Q>
0

> <i_epik_Tot_abs_Q>
0

> <i_f3d_flags>
0

> <s_lp_Force_Field>
OPLS_2005

> <r_lp_Energy>
40.5038

> <b_lp_Chiralities_Consistent>
1

> <s_lp_Variant>
BACE_16.smi:1-2

$$$$
BACE_17.smi:1
                    3D
 Structure written by MMmdl.
 62 64  0  0  1  0            999 V2000
    1.4425    7.6231   -1.2939 C   0  0  0  0  0  0
    0.4542    6.5465   -1.3781 N   0  0  0  0  0  0
    0.8706    5.3868   -2.1750 C   0  0  0  0  0  0
   -0.7748    6.6976   -0.8255 C   0  0  0  0  0  0
   -1.1612    7.7562   -0.3289 O   0  0  0  0  0  0
   -1.7048    5.5183   -0.8310 C   0  0  0  0  0  0
   -2.9837    5.6375   -1.4127 C   0  0  0  0  0  0
   -1.3212    4.2938   -0.2450 C   0  0  0  0  0  0
   -2.1946    3.1867   -0.2752 C   0  0  0  0  0  0
   -3.4698    3.3181   -0.8620 C   0  0  0  0  0  0
   -3.8617    4.5365   -1.4669 C   0  0  0  0  0  0
   -1.7645    1.8559    0.2577 C   0  0  0  0  0  0
   -2.5488    1.1189    0.8550 O   0  0  0  0  0  0
   -0.5247    1.4973   -0.1079 N   0  0  0  0  0  0
    0.0116    0.1388   -0.0626 C   0  0  2  0  0  0
    1.5613    0.2108   -0.0427 C   0  0  1  0  0  0
    1.9518    0.9397    1.1074 O   0  0  0  0  0  0
    2.2556   -1.1630    0.0600 C   0  0  0  0  0  0
    3.6451   -1.0211   -0.1524 O   0  0  0  0  0  0
   -0.5762   -0.6711   -1.2529 C   0  0  0  0  0  0
   -0.3056   -0.0771   -2.6319 C   0  0  0  0  0  0
   -1.1599    0.9126   -3.1722 C   0  0  0  0  0  0
   -0.9136    1.4614   -4.4555 C   0  0  0  0  0  0
    0.1908    0.9880   -5.1927 C   0  0  0  0  0  0
    1.0430    0.0012   -4.6638 C   0  0  0  0  0  0
    0.7959   -0.5302   -3.3857 C   0  0  0  0  0  0
   -1.6803    2.4386   -5.0566 O   0  0  0  0  0  0
   -2.6718    3.1349   -4.3066 C   0  0  0  0  0  0
   -4.0154    2.3771   -4.2829 C   0  0  0  0  0  0
   -5.2705    3.2651   -4.1284 C   0  0  0  0  0  0
   -5.7335    3.6038   -2.6951 C   0  0  0  0  0  0
   -5.0501    4.7237   -2.1358 O   0  0  0  0  0  0
   -0.3134   -0.3382    0.8642 H   0  0  0  0  0  0
    1.9153    0.7403   -0.9287 H   0  0  0  0  0  0
    1.4623    8.0706   -0.2988 H   0  0  0  0  0  0
    1.2113    8.4066   -2.0165 H   0  0  0  0  0  0
    2.4517    7.2628   -1.4978 H   0  0  0  0  0  0
    1.2852    4.6110   -1.5309 H   0  0  0  0  0  0
    1.6373    5.6578   -2.9017 H   0  0  0  0  0  0
    0.0456    4.9580   -2.7460 H   0  0  0  0  0  0
   -3.2824    6.5721   -1.8656 H   0  0  0  0  0  0
   -0.3464    4.2005    0.2128 H   0  0  0  0  0  0
   -4.1119    2.4523   -0.8725 H   0  0  0  0  0  0
    0.0345    2.1823   -0.5951 H   0  0  0  0  0  0
    2.8961    0.9779    1.1264 H   0  0  0  0  0  0
    2.0714   -1.6312    1.0278 H   0  0  0  0  0  0
    1.8951   -1.8518   -0.7012 H   0  0  0  0  0  0
    4.0476   -1.8737   -0.0872 H   0  0  0  0  0  0
   -0.2276   -1.7027   -1.2311 H   0  0  0  0  0  0
   -1.6576   -0.7502   -1.1339 H   0  0  0  0  0  0
   -2.0023    1.2400   -2.5847 H   0  0  0  0  0  0
    0.3907    1.3920   -6.1744 H   0  0  0  0  0  0
    1.8871   -0.3482   -5.2400 H   0  0  0  0  0  0
    1.4539   -1.2889   -2.9889 H   0  0  0  0  0  0
   -2.3042    3.3802   -3.3134 H   0  0  0  0  0  0
   -2.8105    4.0910   -4.8116 H   0  0  0  0  0  0
   -4.1091    1.8677   -5.2428 H   0  0  0  0  0  0
   -4.0128    1.5855   -3.5346 H   0  0  0  0  0  0
   -5.1727    4.1774   -4.7175 H   0  0  0  0  0  0
   -6.0924    2.7180   -4.5919 H   0  0  0  0  0  0
   -6.7740    3.9225   -2.7612 H   0  0  0  0  0  0
   -5.7694    2.7223   -2.0592 H   0  0  0  0  0  0
  1  2  1  0  0  0
  1 35  1  0  0  0
  1 36  1  0  0  0
  1 37  1  0  0  0
  2  3  1  0  0  0
  2  4  1  0  0  0
  3 38  1  0  0  0
  3 39  1  0  0  0
  3 40  1  0  0  0
  4  5  2  0  0  0
  4  6  1  0  0  0
  6  7  1  0  0  0
  6  8  2  0  0  0
  7 11  2  0  0  0
  7 41  1  0  0  0
  8  9  1  0  0  0
  8 42  1  0  0  0
  9 10  2  0  0  0
  9 12  1  0  0  0
 10 11  1  0  0  0
 10 43  1  0  0  0
 11 32  1  0  0  0
 12 13  2  0  0  0
 12 14  1  0  0  0
 14 15  1  0  0  0
 14 44  1  0  0  0
 15 33  1  0  0  0
 15 16  1  0  0  0
 15 20  1  0  0  0
 16 34  1  0  0  0
 16 17  1  0  0  0
 16 18  1  0  0  0
 17 45  1  0  0  0
 18 19  1  0  0  0
 18 46  1  0  0  0
 18 47  1  0  0  0
 19 48  1  0  0  0
 20 21  1  0  0  0
 20 49  1  0  0  0
 20 50  1  0  0  0
 21 26  1  0  0  0
 21 22  2  0  0  0
 22 23  1  0  0  0
 22 51  1  0  0  0
 23 24  2  0  0  0
 23 27  1  0  0  0
 24 25  1  0  0  0
 24 52  1  0  0  0
 25 26  2  0  0  0
 25 53  1  0  0  0
 26 54  1  0  0  0
 27 28  1  0  0  0
 28 29  1  0  0  0
 28 55  1  0  0  0
 28 56  1  0  0  0
 29 30  1  0  0  0
 29 57  1  0  0  0
 29 58  1  0  0  0
 30 31  1  0  0  0
 30 59  1  0  0  0
 30 60  1  0  0  0
 31 32  1  0  0  0
 31 61  1  0  0  0
 31 62  1  0  0  0
M  END
> <i_f3d_flags>
0

> <chiral flag>
1

> <version>
0

> <s_i_glide_gridfile>
base1a_gride_6

> <i_i_glide_lignum>
34

> <i_i_glide_rotatable_bonds>
6

> <r_i_docking_score>
-2.54499059571539

> <r_i_glide_ligand_efficiency>
-0.079530956116106

> <r_i_glide_ligand_efficiency_sa>
-0.252495046513793

> <r_i_glide_ligand_efficiency_ln>
-0.569892768204194

> <r_glide_XP_GScore>
-2.54499059571539

> <r_i_glide_gscore>
-2.54499059571539

> <r_i_glide_evdw>
-16.4105472564697

> <r_i_glide_ecoul>
-14.8556861877441

> <r_i_glide_energy>
-31.2662334442139

> <r_i_glide_einternal>
2.90051078796387

> <r_i_glide_emodel>
-40.3072081441202

> <r_glide_XP_HBond>
-2.55624278436886

> <i_i_glide_confnum>
1

> <i_i_glide_posenum>
7

> <r_i_glide_eff_state_penalty>
-0

> <i_glide_XP_PoseRank>
1

> <s_m_source_file>
glide-dock_pose_2-0017_raw.maegz

> <i_m_source_file_index>
2

> <i_lp_mmshare_version>
42013

> <s_epik_input>
W0NIM11OKFtDSDNdKUMoPU8pYyhbY0hdYzEyKVtjSF1jKFtjSF0xKU9bQ0gyXVtDSDJdW0NIMl1bQ0gyXU9jM1tjSF1jKFtjSF1bY0hdW2NIXTMpW0NIMl1bQ0BIXShbTkhdQzI9TylbQ0BASF0oW09IXSlbQ0gyXVtPSF0=

> <s_epik_cmdline>
J2VwaWtfcHl0aG9uJywgJy1waCcsICc3LjAnLCAnLXRuJywgJzgnLCAnLW1hJywgJzIwMCcsICctaW1hZScsICc8aW5maWxlLm1hZT4nLCAnLW9tYWUnLCAnPG91dGZpbGUubWFlPic=

> <r_lp_tautomer_probability>
1

> <r_epik_Ionization_Penalty>
4.9027e-07

> <r_epik_Ionization_Penalty_Charging>
0

> <r_epik_Ionization_Penalty_Neutral>
4.9027e-07

> <r_epik_State_Penalty>
-0

> <r_epik_Charging_Adjusted_Penalty>
0

> <i_epik_Tot_Q>
0

> <i_epik_Tot_abs_Q>
0

> <i_f3d_flags>
0

> <s_lp_Force_Field>
OPLS_2005

> <r_lp_Energy>
48.3246

> <b_lp_Chiralities_Consistent>
1

> <s_lp_Variant>
BACE_17.smi:1-1

$$$$
