BACE_6.smi:1
                    3D
 Structure written by MMmdl.
 83 85  0  0  1  0            999 V2000
   -1.2567    7.8072   -6.2430 C   0  0  0  0  0  0
   -0.4622    7.7860   -4.9289 C   0  0  0  0  0  0
   -0.3571    6.4191   -4.3875 N   0  0  0  0  0  0
   -1.3973    6.0923   -3.3853 C   0  0  0  0  0  0
   -2.3163    4.9055   -3.7593 C   0  0  0  0  0  0
   -3.5819    4.8118   -2.8826 C   0  0  0  0  0  0
   -3.3477    4.5561   -1.3785 C   0  0  0  0  0  0
   -3.0012    3.0960   -1.0213 C   0  0  0  0  0  0
   -2.6756    2.8641    0.4800 C   0  0  2  0  0  0
   -2.1984    1.4146    0.7766 C   0  0  0  0  0  0
   -0.6640    1.1946    0.7417 C   0  0  2  0  0  0
   -0.1779    1.4976   -0.5999 N   0  0  0  0  0  0
    0.7536    2.4049   -0.9296 C   0  0  0  0  0  0
    1.4066    3.0623   -0.1199 O   0  0  0  0  0  0
    0.8570    2.6458   -2.4013 C   0  0  0  0  0  0
    0.9043    1.5643   -3.3087 C   0  0  0  0  0  0
    0.9120    1.8079   -4.6941 C   0  0  0  0  0  0
    0.8374    3.1280   -5.1761 C   0  0  0  0  0  0
    0.7754    4.2155   -4.2773 C   0  0  0  0  0  0
    0.8558    3.9678   -2.8896 C   0  0  0  0  0  0
    0.6516    5.6102   -4.8216 C   0  0  0  0  0  0
    1.4501    5.9553   -5.6946 O   0  0  0  0  0  0
   -0.2495   -0.2496    1.1290 C   0  0  1  0  0  0
    1.2745   -0.4903    1.0773 C   0  0  0  0  0  0
    1.5982   -1.9331    1.0615 N   0  3  0  0  0  0
    3.0270   -2.2493    0.8410 C   0  0  0  0  0  0
    3.5086   -1.7739   -0.5202 C   0  0  0  0  0  0
    4.3175   -0.6230   -0.6244 C   0  0  0  0  0  0
    4.7172   -0.1532   -1.8892 C   0  0  0  0  0  0
    4.3117   -0.8317   -3.0536 C   0  0  0  0  0  0
    3.5078   -1.9890   -2.9606 C   0  0  0  0  0  0
    3.1131   -2.4577   -1.6888 C   0  0  0  0  0  0
    3.0583   -2.7236   -4.2168 C   0  0  0  0  0  0
    4.2529   -3.2704   -5.0143 C   0  0  0  0  0  0
    2.1475   -1.8451   -5.0882 C   0  0  0  0  0  0
   -0.6710   -0.5264    2.4503 O   0  0  0  0  0  0
   -3.8812    3.2094    1.3760 C   0  0  0  0  0  0
   -1.8716    3.5453    0.7623 H   0  0  0  0  0  0
   -0.2118    1.8798    1.4614 H   0  0  0  0  0  0
   -0.7491   -0.9482    0.4557 H   0  0  0  0  0  0
   -1.3352    8.8225   -6.6316 H   0  0  0  0  0  0
   -2.2686    7.4285   -6.0964 H   0  0  0  0  0  0
   -0.7784    7.1963   -7.0091 H   0  0  0  0  0  0
    0.5282    8.2135   -5.0955 H   0  0  0  0  0  0
   -0.9249    8.4639   -4.2112 H   0  0  0  0  0  0
   -0.9366    5.9395   -2.4122 H   0  0  0  0  0  0
   -2.0479    6.9540   -3.2353 H   0  0  0  0  0  0
   -2.6304    5.0216   -4.7973 H   0  0  0  0  0  0
   -1.7859    3.9569   -3.7137 H   0  0  0  0  0  0
   -4.1390    5.7433   -2.9907 H   0  0  0  0  0  0
   -4.2375    4.0357   -3.2789 H   0  0  0  0  0  0
   -2.5836    5.2289   -0.9909 H   0  0  0  0  0  0
   -4.2680    4.8304   -0.8637 H   0  0  0  0  0  0
   -3.8278    2.4490   -1.3171 H   0  0  0  0  0  0
   -2.1575    2.7916   -1.6362 H   0  0  0  0  0  0
   -2.5445    1.1327    1.7711 H   0  0  0  0  0  0
   -2.6943    0.7170    0.1002 H   0  0  0  0  0  0
   -0.6624    1.0436   -1.3608 H   0  0  0  0  0  0
    0.9266    0.5450   -2.9506 H   0  0  0  0  0  0
    0.9477    0.9821   -5.3889 H   0  0  0  0  0  0
    0.8089    3.3003   -6.2425 H   0  0  0  0  0  0
    0.8552    4.7903   -2.1901 H   0  0  0  0  0  0
    1.6820   -0.0555    0.1683 H   0  0  0  0  0  0
    1.7812    0.0023    1.9085 H   0  0  0  0  0  0
    1.3090   -2.3320    1.9434 H   0  0  0  0  0  0
    3.6270   -1.8026    1.6351 H   0  0  0  0  0  0
    3.1637   -3.3290    0.9113 H   0  0  0  0  0  0
    4.6215   -0.0869    0.2629 H   0  0  0  0  0  0
    5.3302    0.7327   -1.9673 H   0  0  0  0  0  0
    4.6196   -0.4577   -4.0189 H   0  0  0  0  0  0
    2.4900   -3.3363   -1.6068 H   0  0  0  0  0  0
    2.4653   -3.5837   -3.9032 H   0  0  0  0  0  0
    4.8632   -3.9326   -4.3997 H   0  0  0  0  0  0
    4.8952   -2.4693   -5.3808 H   0  0  0  0  0  0
    3.9165   -3.8429   -5.8790 H   0  0  0  0  0  0
    1.2763   -1.5074   -4.5263 H   0  0  0  0  0  0
    1.7850   -2.3974   -5.9556 H   0  0  0  0  0  0
    2.6708   -0.9617   -5.4556 H   0  0  0  0  0  0
   -0.3113    0.1310    3.0268 H   0  0  0  0  0  0
   -4.7519    2.6047    1.1203 H   0  0  0  0  0  0
   -4.1639    4.2580    1.2937 H   0  0  0  0  0  0
   -3.6538    3.0354    2.4283 H   0  0  0  0  0  0
    1.0649   -2.3686    0.3227 H   0  0  0  0  0  0
  1  2  1  0  0  0
  1 41  1  0  0  0
  1 42  1  0  0  0
  1 43  1  0  0  0
  2  3  1  0  0  0
  2 44  1  0  0  0
  2 45  1  0  0  0
  3 21  1  0  0  0
  3  4  1  0  0  0
  4  5  1  0  0  0
  4 46  1  0  0  0
  4 47  1  0  0  0
  5  6  1  0  0  0
  5 48  1  0  0  0
  5 49  1  0  0  0
  6  7  1  0  0  0
  6 50  1  0  0  0
  6 51  1  0  0  0
  7  8  1  0  0  0
  7 52  1  0  0  0
  7 53  1  0  0  0
  8  9  1  0  0  0
  8 54  1  0  0  0
  8 55  1  0  0  0
  9 38  1  0  0  0
  9 10  1  0  0  0
  9 37  1  0  0  0
 10 11  1  0  0  0
 10 56  1  0  0  0
 10 57  1  0  0  0
 11 39  1  0  0  0
 11 12  1  0  0  0
 11 23  1  0  0  0
 12 13  1  0  0  0
 12 58  1  0  0  0
 13 14  2  0  0  0
 13 15  1  0  0  0
 15 20  1  0  0  0
 15 16  2  0  0  0
 16 17  1  0  0  0
 16 59  1  0  0  0
 17 18  2  0  0  0
 17 60  1  0  0  0
 18 19  1  0  0  0
 18 61  1  0  0  0
 19 20  2  0  0  0
 19 21  1  0  0  0
 20 62  1  0  0  0
 21 22  2  0  0  0
 23 40  1  0  0  0
 23 24  1  0  0  0
 23 36  1  0  0  0
 24 25  1  0  0  0
 24 63  1  0  0  0
 24 64  1  0  0  0
 25 26  1  0  0  0
 25 65  1  0  0  0
 25 83  1  0  0  0
 26 27  1  0  0  0
 26 66  1  0  0  0
 26 67  1  0  0  0
 27 32  1  0  0  0
 27 28  2  0  0  0
 28 29  1  0  0  0
 28 68  1  0  0  0
 29 30  2  0  0  0
 29 69  1  0  0  0
 30 31  1  0  0  0
 30 70  1  0  0  0
 31 32  2  0  0  0
 31 33  1  0  0  0
 32 71  1  0  0  0
 33 34  1  0  0  0
 33 35  1  0  0  0
 33 72  1  0  0  0
 34 73  1  0  0  0
 34 74  1  0  0  0
 34 75  1  0  0  0
 35 76  1  0  0  0
 35 77  1  0  0  0
 35 78  1  0  0  0
 36 79  1  0  0  0
 37 80  1  0  0  0
 37 81  1  0  0  0
 37 82  1  0  0  0
M  CHG  1  25   1
M  END
> <i_f3d_flags>
0

> <chiral flag>
1

> <version>
0

> <s_i_glide_gridfile>
base1a_gride_6

> <i_i_glide_lignum>
13

> <i_i_glide_rotatable_bonds>
8

> <r_i_docking_score>
0.0220171129205711

> <r_i_glide_ligand_efficiency>
0.00059505710596138

> <r_i_glide_ligand_efficiency_sa>
0.00198286228907506

> <r_i_glide_ligand_efficiency_ln>
0.00477499563811252

> <r_glide_XP_GScore>
-2.24558288707943

> <r_i_glide_gscore>
-2.24558288707943

> <r_i_glide_evdw>
-24.7861423492432

> <r_i_glide_ecoul>
-6.7656307220459

> <r_i_glide_energy>
-31.5517730712891

> <r_i_glide_einternal>
3.1404070854187

> <r_i_glide_emodel>
-41.1799290736719

> <r_glide_XP_HBond>
-1.27373863651578

> <i_i_glide_confnum>
1

> <i_i_glide_posenum>
2

> <r_i_glide_eff_state_penalty>
2.2676

> <i_glide_XP_PoseRank>
1

> <s_m_source_file>
glide-dock_pose_2-0007_raw.maegz

> <i_m_source_file_index>
1

> <i_lp_mmshare_version>
42013

> <s_epik_input>
YzEyW2NIXVtjSF1bY0hdYyhbY0hdMilDKD1PKU4oW0NIMl1bQ0gzXSlbQ0gyXVtDSDJdW0NIMl1bQ0gyXVtDSDJdW0NAQEhdKFtDSDNdKVtDSDJdW0NASF0oW05IXUMxPU8pW0NASF0oW09IXSlbQ0gyXVtOSF1bQ0gyXWMzW2NIXVtjSF1bY0hdYyhbY0hdMylbQ0hdKFtDSDNdKVtDSDNd

> <s_epik_cmdline>
J2VwaWtfcHl0aG9uJywgJy1waCcsICc3LjAnLCAnLXRuJywgJzgnLCAnLW1hJywgJzIwMCcsICctaW1hZScsICc8aW5maWxlLm1hZT4nLCAnLW9tYWUnLCAnPG91dGZpbGUubWFlPic=

> <r_epik_Ionization_Penalty>
0.016516

> <r_epik_Ionization_Penalty_Charging>
0.0165153

> <r_epik_Ionization_Penalty_Neutral>
7.37205e-07

> <r_epik_State_Penalty>
0.0130399

> <r_epik_Charging_Adjusted_Penalty>
0.0295552

> <i_epik_Tot_Q>
1

> <i_epik_Tot_abs_Q>
1

> <i_f3d_flags>
0

> <s_lp_Force_Field>
OPLS_2005

> <r_lp_Energy>
42.7267

> <b_lp_Chiralities_Consistent>
1

> <s_lp_Variant>
BACE_6.smi:1-1

$$$$
BACE_6.smi:1
                    3D
 Structure written by MMmdl.
 82 84  0  0  1  0            999 V2000
   -0.7171    7.6294   -6.3301 C   0  0  0  0  0  0
    0.1316    7.4849   -5.0588 C   0  0  0  0  0  0
    0.0379    6.1236   -4.5020 N   0  0  0  0  0  0
   -0.9967    5.9794   -3.4521 C   0  0  0  0  0  0
   -2.0916    4.9278   -3.7498 C   0  0  0  0  0  0
   -3.3114    5.0332   -2.8123 C   0  0  0  0  0  0
   -3.0405    4.7718   -1.3156 C   0  0  0  0  0  0
   -2.8838    3.2837   -0.9387 C   0  0  0  0  0  0
   -2.5404    3.0358    0.5563 C   0  0  2  0  0  0
   -2.2531    1.5403    0.8718 C   0  0  0  0  0  0
   -0.7644    1.1100    0.8011 C   0  0  2  0  0  0
   -0.2917    1.3031   -0.5649 N   0  0  0  0  0  0
    0.7202    2.0884   -0.9644 C   0  0  0  0  0  0
    1.4737    2.7002   -0.2080 O   0  0  0  0  0  0
    0.7846    2.2679   -2.4476 C   0  0  0  0  0  0
    0.6434    1.1641   -3.3175 C   0  0  0  0  0  0
    0.6213    1.3624   -4.7098 C   0  0  0  0  0  0
    0.7027    2.6651   -5.2355 C   0  0  0  0  0  0
    0.8310    3.7772   -4.3744 C   0  0  0  0  0  0
    0.9398    3.5620   -2.9831 C   0  0  0  0  0  0
    0.8854    5.1588   -4.9615 C   0  0  0  0  0  0
    1.6784    5.3564   -5.8839 O   0  0  0  0  0  0
   -0.5428   -0.3627    1.2552 C   0  0  1  0  0  0
    0.9199   -0.8572    1.1800 C   0  0  0  0  0  0
    1.3223   -1.1624   -0.1892 N   0  0  0  0  0  0
    2.7370   -1.4703   -0.3490 C   0  0  0  0  0  0
    3.1746   -1.2647   -1.7847 C   0  0  0  0  0  0
    2.7830   -2.1789   -2.7837 C   0  0  0  0  0  0
    3.1581   -1.9622   -4.1230 C   0  0  0  0  0  0
    3.9273   -0.8340   -4.4669 C   0  0  0  0  0  0
    4.3311    0.0840   -3.4724 C   0  0  0  0  0  0
    3.9459   -0.1358   -2.1322 C   0  0  0  0  0  0
    5.1680    1.3055   -3.8329 C   0  0  0  0  0  0
    4.3641    2.3123   -4.6672 C   0  0  0  0  0  0
    6.4846    0.9179   -4.5250 C   0  0  0  0  0  0
   -0.9120   -0.4663    2.6159 O   0  0  0  0  0  0
   -3.6572    3.5563    1.4829 C   0  0  0  0  0  0
   -1.6426    3.6066    0.7981 H   0  0  0  0  0  0
   -0.1983    1.7550    1.4760 H   0  0  0  0  0  0
   -1.1875   -1.0329    0.6845 H   0  0  0  0  0  0
   -0.6396    8.6389   -6.7340 H   0  0  0  0  0  0
   -1.7697    7.4351   -6.1235 H   0  0  0  0  0  0
   -0.3943    6.9363   -7.1071 H   0  0  0  0  0  0
    1.1685    7.7416   -5.2830 H   0  0  0  0  0  0
   -0.1739    8.2341   -4.3278 H   0  0  0  0  0  0
   -0.5225    5.7911   -2.4920 H   0  0  0  0  0  0
   -1.5107    6.9303   -3.3103 H   0  0  0  0  0  0
   -2.4376    5.0660   -4.7747 H   0  0  0  0  0  0
   -1.7010    3.9138   -3.7022 H   0  0  0  0  0  0
   -3.7336    6.0334   -2.9167 H   0  0  0  0  0  0
   -4.0905    4.3528   -3.1580 H   0  0  0  0  0  0
   -2.1717    5.3370   -0.9799 H   0  0  0  0  0  0
   -3.8869    5.1827   -0.7665 H   0  0  0  0  0  0
   -3.8013    2.7515   -1.1925 H   0  0  0  0  0  0
   -2.1119    2.8548   -1.5734 H   0  0  0  0  0  0
   -2.6053    1.3281    1.8813 H   0  0  0  0  0  0
   -2.8587    0.9030    0.2259 H   0  0  0  0  0  0
   -0.8464    0.8695   -1.2887 H   0  0  0  0  0  0
    0.5460    0.1620   -2.9251 H   0  0  0  0  0  0
    0.5181    0.5170   -5.3740 H   0  0  0  0  0  0
    0.6528    2.8074   -6.3055 H   0  0  0  0  0  0
    1.0869    4.3965   -2.3140 H   0  0  0  0  0  0
    1.5765   -0.0994    1.6098 H   0  0  0  0  0  0
    1.0426   -1.7537    1.7897 H   0  0  0  0  0  0
    1.0711   -0.3947   -0.8040 H   0  0  0  0  0  0
    3.3398   -0.8208    0.2870 H   0  0  0  0  0  0
    2.9436   -2.4943   -0.0362 H   0  0  0  0  0  0
    2.1860   -3.0413   -2.5256 H   0  0  0  0  0  0
    2.8528   -2.6607   -4.8881 H   0  0  0  0  0  0
    4.2051   -0.6773   -5.4987 H   0  0  0  0  0  0
    4.2358    0.5686   -1.3661 H   0  0  0  0  0  0
    5.4373    1.8065   -2.9022 H   0  0  0  0  0  0
    3.4828    2.6460   -4.1219 H   0  0  0  0  0  0
    4.0301    1.8808   -5.6112 H   0  0  0  0  0  0
    4.9588    3.1964   -4.8983 H   0  0  0  0  0  0
    7.0674    0.2376   -3.9035 H   0  0  0  0  0  0
    7.0993    1.7985   -4.7135 H   0  0  0  0  0  0
    6.3107    0.4290   -5.4840 H   0  0  0  0  0  0
   -0.8192   -1.3678    2.8837 H   0  0  0  0  0  0
   -4.6094    3.0695    1.2697 H   0  0  0  0  0  0
   -3.8006    4.6317    1.3869 H   0  0  0  0  0  0
   -3.4178    3.3723    2.5307 H   0  0  0  0  0  0
  1  2  1  0  0  0
  1 41  1  0  0  0
  1 42  1  0  0  0
  1 43  1  0  0  0
  2  3  1  0  0  0
  2 44  1  0  0  0
  2 45  1  0  0  0
  3 21  1  0  0  0
  3  4  1  0  0  0
  4  5  1  0  0  0
  4 46  1  0  0  0
  4 47  1  0  0  0
  5  6  1  0  0  0
  5 48  1  0  0  0
  5 49  1  0  0  0
  6  7  1  0  0  0
  6 50  1  0  0  0
  6 51  1  0  0  0
  7  8  1  0  0  0
  7 52  1  0  0  0
  7 53  1  0  0  0
  8  9  1  0  0  0
  8 54  1  0  0  0
  8 55  1  0  0  0
  9 38  1  0  0  0
  9 10  1  0  0  0
  9 37  1  0  0  0
 10 11  1  0  0  0
 10 56  1  0  0  0
 10 57  1  0  0  0
 11 39  1  0  0  0
 11 12  1  0  0  0
 11 23  1  0  0  0
 12 13  1  0  0  0
 12 58  1  0  0  0
 13 14  2  0  0  0
 13 15  1  0  0  0
 15 20  1  0  0  0
 15 16  2  0  0  0
 16 17  1  0  0  0
 16 59  1  0  0  0
 17 18  2  0  0  0
 17 60  1  0  0  0
 18 19  1  0  0  0
 18 61  1  0  0  0
 19 20  2  0  0  0
 19 21  1  0  0  0
 20 62  1  0  0  0
 21 22  2  0  0  0
 23 40  1  0  0  0
 23 24  1  0  0  0
 23 36  1  0  0  0
 24 25  1  0  0  0
 24 63  1  0  0  0
 24 64  1  0  0  0
 25 26  1  0  0  0
 25 65  1  0  0  0
 26 27  1  0  0  0
 26 66  1  0  0  0
 26 67  1  0  0  0
 27 32  1  0  0  0
 27 28  2  0  0  0
 28 29  1  0  0  0
 28 68  1  0  0  0
 29 30  2  0  0  0
 29 69  1  0  0  0
 30 31  1  0  0  0
 30 70  1  0  0  0
 31 32  2  0  0  0
 31 33  1  0  0  0
 32 71  1  0  0  0
 33 34  1  0  0  0
 33 35  1  0  0  0
 33 72  1  0  0  0
 34 73  1  0  0  0
 34 74  1  0  0  0
 34 75  1  0  0  0
 35 76  1  0  0  0
 35 77  1  0  0  0
 35 78  1  0  0  0
 36 79  1  0  0  0
 37 80  1  0  0  0
 37 81  1  0  0  0
 37 82  1  0  0  0
M  END
> <i_f3d_flags>
0

> <chiral flag>
1

> <version>
0

> <s_i_glide_gridfile>
base1a_gride_6

> <i_i_glide_lignum>
13

> <i_i_glide_rotatable_bonds>
8

> <r_i_docking_score>
0.0220171129205711

> <r_i_glide_ligand_efficiency>
0.00059505710596138

> <r_i_glide_ligand_efficiency_sa>
0.00198286228907506

> <r_i_glide_ligand_efficiency_ln>
0.00477499563811252

> <r_glide_XP_GScore>
-2.24558288707943

> <r_i_glide_gscore>
-2.24558288707943

> <r_i_glide_evdw>
-24.7861423492432

> <r_i_glide_ecoul>
-6.7656307220459

> <r_i_glide_energy>
-31.5517730712891

> <r_i_glide_einternal>
3.1404070854187

> <r_i_glide_emodel>
-41.1799290736719

> <r_glide_XP_HBond>
-1.27373863651578

> <i_i_glide_confnum>
1

> <i_i_glide_posenum>
2

> <r_i_glide_eff_state_penalty>
2.2676

> <i_glide_XP_PoseRank>
1

> <s_m_source_file>
glide-dock_pose_2-0007_raw.maegz

> <i_m_source_file_index>
1

> <i_lp_mmshare_version>
42013

> <s_epik_input>
YzEyW2NIXVtjSF1bY0hdYyhbY0hdMilDKD1PKU4oW0NIMl1bQ0gzXSlbQ0gyXVtDSDJdW0NIMl1bQ0gyXVtDSDJdW0NAQEhdKFtDSDNdKVtDSDJdW0NASF0oW05IXUMxPU8pW0NASF0oW09IXSlbQ0gyXVtOSF1bQ0gyXWMzW2NIXVtjSF1bY0hdYyhbY0hdMylbQ0hdKFtDSDNdKVtDSDNd

> <s_epik_cmdline>
J2VwaWtfcHl0aG9uJywgJy1waCcsICc3LjAnLCAnLXRuJywgJzgnLCAnLW1hJywgJzIwMCcsICctaW1hZScsICc8aW5maWxlLm1hZT4nLCAnLW9tYWUnLCAnPG91dGZpbGUubWFlPic=

> <r_epik_Ionization_Penalty>
2.12936

> <r_epik_Ionization_Penalty_Charging>
0

> <r_epik_Ionization_Penalty_Neutral>
2.12936

> <r_epik_State_Penalty>
2.26762

> <r_epik_Charging_Adjusted_Penalty>
2.26762

> <i_epik_Tot_Q>
0

> <i_epik_Tot_abs_Q>
0

> <i_f3d_flags>
0

> <s_lp_Force_Field>
OPLS_2005

> <r_lp_Energy>
47.7451

> <b_lp_Chiralities_Consistent>
1

> <s_lp_Variant>
BACE_6.smi:1-2

$$$$
BACE_7.smi:1
                    3D
 Structure written by MMmdl.
 99103  0  0  1  0            999 V2000
   -2.1682   -0.2178   -2.2923 C   0  0  0  0  0  0
   -2.8510    0.3344   -1.0187 C   0  0  2  0  0  0
   -4.1564    1.0904   -1.3877 C   0  0  0  0  0  0
   -3.9617    2.2701   -2.3684 C   0  0  0  0  0  0
   -5.2587    2.9295   -2.8619 C   0  0  0  0  0  0
   -5.0913    3.7190   -4.1804 C   0  0  0  0  0  0
   -4.3675    5.0880   -4.1055 C   0  0  0  0  0  0
   -2.9399    5.0222   -3.7098 N   0  0  0  0  0  0
   -2.0449    4.4724   -4.5859 C   0  0  0  0  0  0
   -2.3352    4.1556   -5.7400 O   0  0  0  0  0  0
   -0.6405    4.2088   -4.1139 C   0  0  0  0  0  0
    0.4605    4.8276   -4.7412 C   0  0  0  0  0  0
    1.7714    4.6179   -4.2528 C   0  0  0  0  0  0
    1.9785    3.7664   -3.1421 C   0  0  0  0  0  0
    0.8876    3.1105   -2.5339 C   0  0  0  0  0  0
   -0.4103    3.3277   -3.0422 C   0  0  0  0  0  0
    1.0613    2.2920   -1.2871 C   0  0  0  0  0  0
    1.9011    2.5829   -0.4359 O   0  0  0  0  0  0
    0.1823    1.2852   -1.1636 N   0  0  0  0  0  0
   -0.4496    0.8669    0.0860 C   0  0  1  0  0  0
   -1.9690    1.1648   -0.0333 C   0  0  0  0  0  0
   -0.0815   -0.5756    0.5196 C   0  0  1  0  0  0
    1.4342   -0.8565    0.4810 C   0  0  0  0  0  0
    1.7335   -2.2685    0.8015 N   0  3  0  0  0  0
    3.1688   -2.6221    0.7826 C   0  0  0  0  0  0
    3.7439   -2.5822   -0.6221 C   0  0  0  0  0  0
    4.4963   -1.4689   -1.0516 C   0  0  0  0  0  0
    5.0118   -1.4285   -2.3605 C   0  0  0  0  0  0
    4.7795   -2.5006   -3.2430 C   0  0  0  0  0  0
    4.0308   -3.6218   -2.8221 C   0  0  0  0  0  0
    3.5169   -3.6565   -1.5078 C   0  0  0  0  0  0
    3.7756   -4.7861   -3.7714 C   0  0  0  0  0  0
    5.0845   -5.4795   -4.1805 C   0  0  0  0  0  0
    2.9564   -4.3507   -4.9969 C   0  0  0  0  0  0
   -0.5147   -0.7526    1.8545 O   0  0  0  0  0  0
    2.9035    5.3079   -4.8641 C   0  0  0  0  0  0
    4.2023    5.1768   -4.5904 N   0  0  0  0  0  0
    4.8461    6.0669   -5.4371 C   0  0  0  0  0  0
    3.8933    6.7002   -6.1901 C   0  0  0  0  0  0
    2.6584    6.2290   -5.8377 O   0  0  0  0  0  0
   -2.4995    5.7193   -2.4620 C   0  0  2  0  0  0
   -3.6116    6.1368   -1.4770 C   0  0  0  0  0  0
   -1.5882    6.9124   -2.7430 C   0  0  0  0  0  0
   -1.9400    7.8754   -3.7147 C   0  0  0  0  0  0
   -1.0784    8.9553   -3.9884 C   0  0  0  0  0  0
    0.1385    9.0804   -3.2913 C   0  0  0  0  0  0
    0.4906    8.1287   -2.3153 C   0  0  0  0  0  0
   -0.3723    7.0509   -2.0383 C   0  0  0  0  0  0
   -3.1587   -0.5493   -0.4579 H   0  0  0  0  0  0
   -0.0771    1.5279    0.8721 H   0  0  0  0  0  0
   -0.5962   -1.3093   -0.0970 H   0  0  0  0  0  0
   -1.9219    5.0041   -1.8812 H   0  0  0  0  0  0
   -1.7234    0.5652   -2.9038 H   0  0  0  0  0  0
   -2.8911   -0.7423   -2.9178 H   0  0  0  0  0  0
   -1.3817   -0.9346   -2.0691 H   0  0  0  0  0  0
   -4.8512    0.3781   -1.8345 H   0  0  0  0  0  0
   -4.6440    1.4482   -0.4801 H   0  0  0  0  0  0
   -3.3469    3.0324   -1.8986 H   0  0  0  0  0  0
   -3.4196    1.9250   -3.2467 H   0  0  0  0  0  0
   -5.9924    2.1438   -3.0458 H   0  0  0  0  0  0
   -5.6883    3.5612   -2.0841 H   0  0  0  0  0  0
   -4.6191    3.0805   -4.9272 H   0  0  0  0  0  0
   -6.0906    3.9105   -4.5728 H   0  0  0  0  0  0
   -4.4189    5.5546   -5.0909 H   0  0  0  0  0  0
   -4.9645    5.7547   -3.4913 H   0  0  0  0  0  0
    0.2887    5.4927   -5.5754 H   0  0  0  0  0  0
    2.9744    3.6285   -2.7456 H   0  0  0  0  0  0
   -1.2567    2.8566   -2.5716 H   0  0  0  0  0  0
   -0.3575    1.0785   -1.9918 H   0  0  0  0  0  0
   -2.0572    2.2219   -0.2823 H   0  0  0  0  0  0
   -2.4177    1.0911    0.9581 H   0  0  0  0  0  0
    1.8200   -0.6489   -0.5164 H   0  0  0  0  0  0
    1.9643   -0.1985    1.1713 H   0  0  0  0  0  0
    3.7259   -1.9570    1.4439 H   0  0  0  0  0  0
    3.2837   -3.6299    1.1830 H   0  0  0  0  0  0
    4.6745   -0.6401   -0.3819 H   0  0  0  0  0  0
    5.5850   -0.5737   -2.6886 H   0  0  0  0  0  0
    5.1802   -2.4577   -4.2452 H   0  0  0  0  0  0
    2.9411   -4.5086   -1.1760 H   0  0  0  0  0  0
    3.1782   -5.5252   -3.2354 H   0  0  0  0  0  0
    5.6304   -5.8312   -3.3045 H   0  0  0  0  0  0
    5.7404   -4.8078   -4.7349 H   0  0  0  0  0  0
    4.8878   -6.3448   -4.8144 H   0  0  0  0  0  0
    2.0053   -3.9105   -4.6958 H   0  0  0  0  0  0
    2.7346   -5.2022   -5.6411 H   0  0  0  0  0  0
    3.4894   -3.6134   -5.5979 H   0  0  0  0  0  0
   -1.4450   -0.5881    1.8943 H   0  0  0  0  0  0
    5.9203    6.1798   -5.4364 H   0  0  0  0  0  0
    3.9246    7.4553   -6.9616 H   0  0  0  0  0  0
   -3.1765    6.4700   -0.5343 H   0  0  0  0  0  0
   -4.2784    5.3080   -1.2418 H   0  0  0  0  0  0
   -4.2072    6.9685   -1.8548 H   0  0  0  0  0  0
   -2.8691    7.7847   -4.2581 H   0  0  0  0  0  0
   -1.3500    9.6862   -4.7358 H   0  0  0  0  0  0
    0.8010    9.9063   -3.5045 H   0  0  0  0  0  0
    1.4244    8.2233   -1.7811 H   0  0  0  0  0  0
   -0.0879    6.3214   -1.2939 H   0  0  0  0  0  0
    1.3742   -2.4540    1.7272 H   0  0  0  0  0  0
    1.2481   -2.8612    0.1438 H   0  0  0  0  0  0
  1  2  1  0  0  0
  1 53  1  0  0  0
  1 54  1  0  0  0
  1 55  1  0  0  0
  2 49  1  0  0  0
  2 21  1  0  0  0
  2  3  1  0  0  0
  3  4  1  0  0  0
  3 56  1  0  0  0
  3 57  1  0  0  0
  4  5  1  0  0  0
  4 58  1  0  0  0
  4 59  1  0  0  0
  5  6  1  0  0  0
  5 60  1  0  0  0
  5 61  1  0  0  0
  6  7  1  0  0  0
  6 62  1  0  0  0
  6 63  1  0  0  0
  7  8  1  0  0  0
  7 64  1  0  0  0
  7 65  1  0  0  0
  8  9  1  0  0  0
  8 41  1  0  0  0
  9 10  2  0  0  0
  9 11  1  0  0  0
 11 16  1  0  0  0
 11 12  2  0  0  0
 12 13  1  0  0  0
 12 66  1  0  0  0
 13 14  2  0  0  0
 13 36  1  0  0  0
 14 15  1  0  0  0
 14 67  1  0  0  0
 15 16  2  0  0  0
 15 17  1  0  0  0
 16 68  1  0  0  0
 17 18  2  0  0  0
 17 19  1  0  0  0
 19 20  1  0  0  0
 19 69  1  0  0  0
 20 50  1  0  0  0
 20 21  1  0  0  0
 20 22  1  0  0  0
 21 70  1  0  0  0
 21 71  1  0  0  0
 22 51  1  0  0  0
 22 23  1  0  0  0
 22 35  1  0  0  0
 23 24  1  0  0  0
 23 72  1  0  0  0
 23 73  1  0  0  0
 24 25  1  0  0  0
 24 98  1  0  0  0
 24 99  1  0  0  0
 25 26  1  0  0  0
 25 74  1  0  0  0
 25 75  1  0  0  0
 26 31  1  0  0  0
 26 27  2  0  0  0
 27 28  1  0  0  0
 27 76  1  0  0  0
 28 29  2  0  0  0
 28 77  1  0  0  0
 29 30  1  0  0  0
 29 78  1  0  0  0
 30 31  2  0  0  0
 30 32  1  0  0  0
 31 79  1  0  0  0
 32 33  1  0  0  0
 32 34  1  0  0  0
 32 80  1  0  0  0
 33 81  1  0  0  0
 33 82  1  0  0  0
 33 83  1  0  0  0
 34 84  1  0  0  0
 34 85  1  0  0  0
 34 86  1  0  0  0
 35 87  1  0  0  0
 36 40  1  0  0  0
 36 37  2  0  0  0
 37 38  1  0  0  0
 38 39  2  0  0  0
 38 88  1  0  0  0
 39 40  1  0  0  0
 39 89  1  0  0  0
 41 52  1  0  0  0
 41 42  1  0  0  0
 41 43  1  0  0  0
 42 90  1  0  0  0
 42 91  1  0  0  0
 42 92  1  0  0  0
 43 48  1  0  0  0
 43 44  2  0  0  0
 44 45  1  0  0  0
 44 93  1  0  0  0
 45 46  2  0  0  0
 45 94  1  0  0  0
 46 47  1  0  0  0
 46 95  1  0  0  0
 47 48  2  0  0  0
 47 96  1  0  0  0
 48 97  1  0  0  0
M  CHG  1  24   1
M  END
> <i_f3d_flags>
0

> <chiral flag>
1

> <version>
0

> <s_i_glide_gridfile>
base1a_gride_6

> <i_i_glide_lignum>
14

> <i_i_glide_rotatable_bonds>
10

> <r_i_docking_score>
-3.62229659755441

> <r_i_glide_ligand_efficiency>
-0.0754645124490503

> <r_i_glide_ligand_efficiency_sa>
-0.274256238844513

> <r_i_glide_ligand_efficiency_ln>
-0.743614683410343

> <r_glide_XP_GScore>
-3.63529659755441

> <r_i_glide_gscore>
-3.63529659755441

> <r_i_glide_evdw>
-37.0415878295898

> <r_i_glide_ecoul>
-7.45276784896851

> <r_i_glide_energy>
-44.4943556785583

> <r_i_glide_einternal>
0

> <r_i_glide_emodel>
-56.2008261451516

> <r_glide_XP_HBond>
-0.258453697907167

> <i_i_glide_confnum>
1

> <i_i_glide_posenum>
33

> <r_i_glide_eff_state_penalty>
0.013

> <i_glide_XP_PoseRank>
1

> <s_m_source_file>
glide-dock_pose_2-0007_raw.maegz

> <i_m_source_file_index>
2

> <i_lp_mmshare_version>
42013

> <s_epik_input>
W2NIXTFbY0hdW2NIXVtjSF1bY0hdYzFbQ0BASF0oW0NIM10pTihDMj1PKVtDSDJdW0NIMl1bQ0gyXVtDSDJdW0NIMl1bQ0BASF0oW0NIM10pW0NIMl1bQ0BIXShbTkhdQyg9TyljKFtjSF0zKVtjSF1jKFtjSF1jMjMpLWM0bltjSF1bY0hdbzQpW0NASF0oW09IXSlbQ0gyXVtOSF1bQ0gyXWM1W2NIXVtjSF1bY0hdYyhbY0hdNSlbQ0hdKFtDSDNdKVtDSDNd

> <s_epik_cmdline>
J2VwaWtfcHl0aG9uJywgJy1waCcsICc3LjAnLCAnLXRuJywgJzgnLCAnLW1hJywgJzIwMCcsICctaW1hZScsICc8aW5maWxlLm1hZT4nLCAnLW9tYWUnLCAnPG91dGZpbGUubWFlPic=

> <r_epik_Ionization_Penalty>
0.0165162

> <r_epik_Ionization_Penalty_Charging>
0.0165153

> <r_epik_Ionization_Penalty_Neutral>
9.01175e-07

> <r_epik_State_Penalty>
0.0130399

> <r_epik_Charging_Adjusted_Penalty>
0.0295552

> <i_epik_Tot_Q>
1

> <i_epik_Tot_abs_Q>
1

> <i_f3d_flags>
0

> <s_lp_Force_Field>
OPLS_2005

> <r_lp_Energy>
64.405

> <b_lp_Chiralities_Consistent>
1

> <s_lp_Variant>
BACE_7.smi:1-1

$$$$
BACE_7.smi:1
                    3D
 Structure written by MMmdl.
 98102  0  0  1  0            999 V2000
   -1.9527   -0.2840   -2.4116 C   0  0  0  0  0  0
   -2.6684    0.2132   -1.1329 C   0  0  2  0  0  0
   -4.0007    0.9218   -1.4983 C   0  0  0  0  0  0
   -3.8481    2.1285   -2.4528 C   0  0  0  0  0  0
   -5.1681    2.7340   -2.9543 C   0  0  0  0  0  0
   -5.0256    3.5370   -4.2678 C   0  0  0  0  0  0
   -4.3641    4.9362   -4.1807 C   0  0  0  0  0  0
   -2.9392    4.9317   -3.7699 N   0  0  0  0  0  0
   -2.0110    4.4267   -4.6382 C   0  0  0  0  0  0
   -2.2733    4.1053   -5.7977 O   0  0  0  0  0  0
   -0.6030    4.2203   -4.1491 C   0  0  0  0  0  0
    0.4790    4.8915   -4.7555 C   0  0  0  0  0  0
    1.7902    4.7373   -4.2484 C   0  0  0  0  0  0
    2.0167    3.8913   -3.1377 C   0  0  0  0  0  0
    0.9487    3.1774   -2.5553 C   0  0  0  0  0  0
   -0.3492    3.3397   -3.0819 C   0  0  0  0  0  0
    1.1433    2.3507   -1.3174 C   0  0  0  0  0  0
    1.9474    2.6793   -0.4457 O   0  0  0  0  0  0
    0.3233    1.2916   -1.2272 N   0  0  0  0  0  0
   -0.3005    0.8100    0.0044 C   0  0  1  0  0  0
   -1.8287    1.0550   -0.1200 C   0  0  0  0  0  0
    0.1048   -0.6355    0.4006 C   0  0  1  0  0  0
    1.6166   -0.9157    0.2760 C   0  0  0  0  0  0
    1.8990   -2.3507    0.2890 N   0  0  0  0  0  0
    3.2838   -2.6796   -0.0416 C   0  0  0  0  0  0
    3.5633   -2.5732   -1.5296 C   0  0  0  0  0  0
    3.2157   -3.6331   -2.3917 C   0  0  0  0  0  0
    3.4478   -3.5213   -3.7757 C   0  0  0  0  0  0
    4.0211   -2.3481   -4.3029 C   0  0  0  0  0  0
    4.3707   -1.2804   -3.4486 C   0  0  0  0  0  0
    4.1452   -1.4032   -2.0600 C   0  0  0  0  0  0
    4.9743   -0.0064   -4.0258 C   0  0  0  0  0  0
    6.3992    0.2332   -3.5034 C   0  0  0  0  0  0
    4.0683    1.2091   -3.7766 C   0  0  0  0  0  0
   -0.2486   -0.8169    1.7577 O   0  0  0  0  0  0
    2.8987    5.4665   -4.8570 C   0  0  0  0  0  0
    2.8611    6.3665   -5.8406 N   0  0  0  0  0  0
    4.1794    6.7507   -6.0351 C   0  0  0  0  0  0
    4.9588    6.0546   -5.1499 C   0  0  0  0  0  0
    4.1607    5.2373   -4.3976 O   0  0  0  0  0  0
   -2.5433    5.6374   -2.5122 C   0  0  2  0  0  0
   -3.6827    5.9984   -1.5366 C   0  0  0  0  0  0
   -1.6789    6.8699   -2.7703 C   0  0  0  0  0  0
   -2.0445    7.8167   -3.7528 C   0  0  0  0  0  0
   -1.2229    8.9328   -4.0033 C   0  0  0  0  0  0
   -0.0338    9.1116   -3.2710 C   0  0  0  0  0  0
    0.3308    8.1770   -2.2835 C   0  0  0  0  0  0
   -0.4911    7.0619   -2.0311 C   0  0  0  0  0  0
   -2.9444   -0.6943   -0.5941 H   0  0  0  0  0  0
    0.0452    1.4607    0.8111 H   0  0  0  0  0  0
   -0.4477   -1.3627   -0.1907 H   0  0  0  0  0  0
   -1.9430    4.9422   -1.9303 H   0  0  0  0  0  0
   -1.5333    0.5285   -3.0019 H   0  0  0  0  0  0
   -2.6486   -0.8231   -3.0550 H   0  0  0  0  0  0
   -1.1404   -0.9743   -2.1965 H   0  0  0  0  0  0
   -4.6599    0.1897   -1.9666 H   0  0  0  0  0  0
   -4.5112    1.2384   -0.5881 H   0  0  0  0  0  0
   -3.2762    2.9093   -1.9591 H   0  0  0  0  0  0
   -3.2780    1.8260   -3.3290 H   0  0  0  0  0  0
   -5.8658    1.9186   -3.1483 H   0  0  0  0  0  0
   -5.6316    3.3415   -2.1770 H   0  0  0  0  0  0
   -4.5198    2.9240   -5.0141 H   0  0  0  0  0  0
   -6.0293    3.6851   -4.6675 H   0  0  0  0  0  0
   -4.4262    5.4037   -5.1651 H   0  0  0  0  0  0
   -4.9960    5.5736   -3.5700 H   0  0  0  0  0  0
    0.2944    5.5539   -5.5893 H   0  0  0  0  0  0
    3.0095    3.7935   -2.7228 H   0  0  0  0  0  0
   -1.1788    2.8246   -2.6278 H   0  0  0  0  0  0
   -0.1848    1.0605   -2.0687 H   0  0  0  0  0  0
   -1.9577    2.1137   -0.3427 H   0  0  0  0  0  0
   -2.2796    0.9349    0.8659 H   0  0  0  0  0  0
    1.9744   -0.5070   -0.6669 H   0  0  0  0  0  0
    2.1746   -0.4022    1.0600 H   0  0  0  0  0  0
    3.9748   -2.0475    0.5178 H   0  0  0  0  0  0
    3.4946   -3.7048    0.2639 H   0  0  0  0  0  0
    2.7664   -4.5316   -1.9943 H   0  0  0  0  0  0
    3.1805   -4.3341   -4.4346 H   0  0  0  0  0  0
    4.1873   -2.2720   -5.3675 H   0  0  0  0  0  0
    4.4039   -0.5903   -1.3971 H   0  0  0  0  0  0
    5.0471   -0.1345   -5.1067 H   0  0  0  0  0  0
    7.0465   -0.6144   -3.7309 H   0  0  0  0  0  0
    6.4124    0.3825   -2.4234 H   0  0  0  0  0  0
    6.8413    1.1174   -3.9634 H   0  0  0  0  0  0
    3.0734    1.0501   -4.1937 H   0  0  0  0  0  0
    4.4785    2.1069   -4.2403 H   0  0  0  0  0  0
    3.9524    1.4128   -2.7118 H   0  0  0  0  0  0
    0.2686   -0.2261    2.2834 H   0  0  0  0  0  0
    4.4567    7.4820   -6.7800 H   0  0  0  0  0  0
    6.0181    6.0267   -4.9417 H   0  0  0  0  0  0
   -3.2725    6.3436   -0.5872 H   0  0  0  0  0  0
   -4.3138    5.1387   -1.3139 H   0  0  0  0  0  0
   -4.3107    6.8053   -1.9152 H   0  0  0  0  0  0
   -2.9525    7.6858   -4.3229 H   0  0  0  0  0  0
   -1.5036    9.6504   -4.7598 H   0  0  0  0  0  0
    0.5981    9.9655   -3.4657 H   0  0  0  0  0  0
    1.2431    8.3129   -1.7217 H   0  0  0  0  0  0
   -0.1974    6.3459   -1.2773 H   0  0  0  0  0  0
    1.2828   -2.8100   -0.3740 H   0  0  0  0  0  0
  1  2  1  0  0  0
  1 53  1  0  0  0
  1 54  1  0  0  0
  1 55  1  0  0  0
  2 49  1  0  0  0
  2 21  1  0  0  0
  2  3  1  0  0  0
  3  4  1  0  0  0
  3 56  1  0  0  0
  3 57  1  0  0  0
  4  5  1  0  0  0
  4 58  1  0  0  0
  4 59  1  0  0  0
  5  6  1  0  0  0
  5 60  1  0  0  0
  5 61  1  0  0  0
  6  7  1  0  0  0
  6 62  1  0  0  0
  6 63  1  0  0  0
  7  8  1  0  0  0
  7 64  1  0  0  0
  7 65  1  0  0  0
  8  9  1  0  0  0
  8 41  1  0  0  0
  9 10  2  0  0  0
  9 11  1  0  0  0
 11 16  1  0  0  0
 11 12  2  0  0  0
 12 13  1  0  0  0
 12 66  1  0  0  0
 13 14  2  0  0  0
 13 36  1  0  0  0
 14 15  1  0  0  0
 14 67  1  0  0  0
 15 16  2  0  0  0
 15 17  1  0  0  0
 16 68  1  0  0  0
 17 18  2  0  0  0
 17 19  1  0  0  0
 19 20  1  0  0  0
 19 69  1  0  0  0
 20 50  1  0  0  0
 20 21  1  0  0  0
 20 22  1  0  0  0
 21 70  1  0  0  0
 21 71  1  0  0  0
 22 51  1  0  0  0
 22 23  1  0  0  0
 22 35  1  0  0  0
 23 24  1  0  0  0
 23 72  1  0  0  0
 23 73  1  0  0  0
 24 25  1  0  0  0
 24 98  1  0  0  0
 25 26  1  0  0  0
 25 74  1  0  0  0
 25 75  1  0  0  0
 26 31  1  0  0  0
 26 27  2  0  0  0
 27 28  1  0  0  0
 27 76  1  0  0  0
 28 29  2  0  0  0
 28 77  1  0  0  0
 29 30  1  0  0  0
 29 78  1  0  0  0
 30 31  2  0  0  0
 30 32  1  0  0  0
 31 79  1  0  0  0
 32 33  1  0  0  0
 32 34  1  0  0  0
 32 80  1  0  0  0
 33 81  1  0  0  0
 33 82  1  0  0  0
 33 83  1  0  0  0
 34 84  1  0  0  0
 34 85  1  0  0  0
 34 86  1  0  0  0
 35 87  1  0  0  0
 36 40  1  0  0  0
 36 37  2  0  0  0
 37 38  1  0  0  0
 38 39  2  0  0  0
 38 88  1  0  0  0
 39 40  1  0  0  0
 39 89  1  0  0  0
 41 52  1  0  0  0
 41 42  1  0  0  0
 41 43  1  0  0  0
 42 90  1  0  0  0
 42 91  1  0  0  0
 42 92  1  0  0  0
 43 48  1  0  0  0
 43 44  2  0  0  0
 44 45  1  0  0  0
 44 93  1  0  0  0
 45 46  2  0  0  0
 45 94  1  0  0  0
 46 47  1  0  0  0
 46 95  1  0  0  0
 47 48  2  0  0  0
 47 96  1  0  0  0
 48 97  1  0  0  0
M  END
> <i_f3d_flags>
0

> <chiral flag>
1

> <version>
0

> <s_i_glide_gridfile>
base1a_gride_6

> <i_i_glide_lignum>
14

> <i_i_glide_rotatable_bonds>
10

> <r_i_docking_score>
-3.62229659755441

> <r_i_glide_ligand_efficiency>
-0.0754645124490503

> <r_i_glide_ligand_efficiency_sa>
-0.274256238844513

> <r_i_glide_ligand_efficiency_ln>
-0.743614683410343

> <r_glide_XP_GScore>
-3.63529659755441

> <r_i_glide_gscore>
-3.63529659755441

> <r_i_glide_evdw>
-37.0415878295898

> <r_i_glide_ecoul>
-7.45276784896851

> <r_i_glide_energy>
-44.4943556785583

> <r_i_glide_einternal>
0

> <r_i_glide_emodel>
-56.2008261451516

> <r_glide_XP_HBond>
-0.258453697907167

> <i_i_glide_confnum>
1

> <i_i_glide_posenum>
33

> <r_i_glide_eff_state_penalty>
0.013

> <i_glide_XP_PoseRank>
1

> <s_m_source_file>
glide-dock_pose_2-0007_raw.maegz

> <i_m_source_file_index>
2

> <i_lp_mmshare_version>
42013

> <s_epik_input>
W2NIXTFbY0hdW2NIXVtjSF1bY0hdYzFbQ0BASF0oW0NIM10pTihDMj1PKVtDSDJdW0NIMl1bQ0gyXVtDSDJdW0NIMl1bQ0BASF0oW0NIM10pW0NIMl1bQ0BIXShbTkhdQyg9TyljKFtjSF0zKVtjSF1jKFtjSF1jMjMpLWM0bltjSF1bY0hdbzQpW0NASF0oW09IXSlbQ0gyXVtOSF1bQ0gyXWM1W2NIXVtjSF1bY0hdYyhbY0hdNSlbQ0hdKFtDSDNdKVtDSDNd

> <s_epik_cmdline>
J2VwaWtfcHl0aG9uJywgJy1waCcsICc3LjAnLCAnLXRuJywgJzgnLCAnLW1hJywgJzIwMCcsICctaW1hZScsICc8aW5maWxlLm1hZT4nLCAnLW9tYWUnLCAnPG91dGZpbGUubWFlPic=

> <r_epik_Ionization_Penalty>
2.12936

> <r_epik_Ionization_Penalty_Charging>
0

> <r_epik_Ionization_Penalty_Neutral>
2.12936

> <r_epik_State_Penalty>
2.26762

> <r_epik_Charging_Adjusted_Penalty>
2.26762

> <i_epik_Tot_Q>
0

> <i_epik_Tot_abs_Q>
0

> <i_f3d_flags>
0

> <s_lp_Force_Field>
OPLS_2005

> <r_lp_Energy>
70.7337

> <b_lp_Chiralities_Consistent>
1

> <s_lp_Variant>
BACE_7.smi:1-2

$$$$
