BACE_6.smi:1
                    3D
 Structure written by MMmdl.
 82 84  0  0  1  0            999 V2000
   16.9838   51.9185  -12.6701 C   0  0  0  0  0  0
   17.7788   50.7374  -13.2462 C   0  0  0  0  0  0
   17.1832   49.4475  -12.8496 N   0  0  0  0  0  0
   17.8036   48.8617  -11.6375 C   0  0  0  0  0  0
   16.8622   48.6991  -10.4207 C   0  0  0  0  0  0
   17.6066   48.3514   -9.1143 C   0  0  0  0  0  0
   18.3563   47.0004   -9.0949 C   0  0  0  0  0  0
   17.4693   45.7731   -8.8102 C   0  0  0  0  0  0
   18.2073   44.4082   -8.9160 C   0  0  2  0  0  0
   17.2505   43.2002   -8.7181 C   0  0  0  0  0  0
   16.6099   42.6026   -9.9983 C   0  0  2  0  0  0
   15.8733   43.6361  -10.7307 N   0  0  0  0  0  0
   16.2438   44.1588  -11.9099 C   0  0  0  0  0  0
   17.1876   43.7497  -12.5876 O   0  0  0  0  0  0
   15.4695   45.3591  -12.3543 C   0  0  0  0  0  0
   14.0578   45.3573  -12.3611 C   0  0  0  0  0  0
   13.3594   46.4825  -12.8391 C   0  0  0  0  0  0
   14.0653   47.6263  -13.2577 C   0  0  0  0  0  0
   15.4771   47.6582  -13.2066 C   0  0  0  0  0  0
   16.1696   46.4878  -12.8281 C   0  0  0  0  0  0
   16.1930   48.9146  -13.6260 C   0  0  0  0  0  0
   15.7766   49.4823  -14.6375 O   0  0  0  0  0  0
   15.7510   41.3180   -9.7595 C   0  0  1  0  0  0
   14.8998   41.3000   -8.4639 C   0  0  0  0  0  0
   15.6425   40.9411   -7.2439 N   0  0  0  0  0  0
   15.9194   39.5093   -7.0625 C   0  0  0  0  0  0
   17.1432   39.0023   -7.8052 C   0  0  0  0  0  0
   17.0340   37.8902   -8.6635 C   0  0  0  0  0  0
   18.1571   37.4386   -9.3795 C   0  0  0  0  0  0
   19.3928   38.0976   -9.2380 C   0  0  0  0  0  0
   19.5222   39.1964   -8.3623 C   0  0  0  0  0  0
   18.3906   39.6414   -7.6460 C   0  0  0  0  0  0
   20.8592   39.9083   -8.2006 C   0  0  0  0  0  0
   21.2534   40.6503   -9.4870 C   0  0  0  0  0  0
   21.9697   38.9487   -7.7375 C   0  0  0  0  0  0
   14.8597   41.1191  -10.8501 O   0  0  0  0  0  0
   19.3675   44.3137   -7.9057 C   0  0  0  0  0  0
   18.6513   44.3315   -9.9091 H   0  0  0  0  0  0
   17.4427   42.2745  -10.6233 H   0  0  0  0  0  0
   16.4154   40.4594   -9.7718 H   0  0  0  0  0  0
   17.4286   52.8656  -12.9719 H   0  0  0  0  0  0
   16.9662   51.8912  -11.5807 H   0  0  0  0  0  0
   15.9526   51.9148  -13.0253 H   0  0  0  0  0  0
   17.8260   50.8316  -14.3329 H   0  0  0  0  0  0
   18.8207   50.8116  -12.9347 H   0  0  0  0  0  0
   18.2967   47.9283  -11.8919 H   0  0  0  0  0  0
   18.6291   49.4902  -11.3017 H   0  0  0  0  0  0
   16.3451   49.6450  -10.2652 H   0  0  0  0  0  0
   16.0831   47.9591  -10.5971 H   0  0  0  0  0  0
   18.3307   49.1429   -8.9158 H   0  0  0  0  0  0
   16.9053   48.3869   -8.2801 H   0  0  0  0  0  0
   18.9120   46.8532  -10.0199 H   0  0  0  0  0  0
   19.1120   47.0664   -8.3126 H   0  0  0  0  0  0
   17.0311   45.8705   -7.8171 H   0  0  0  0  0  0
   16.6314   45.8008   -9.5017 H   0  0  0  0  0  0
   17.8021   42.3887   -8.2447 H   0  0  0  0  0  0
   16.4837   43.4768   -7.9935 H   0  0  0  0  0  0
   15.0674   44.0242  -10.2668 H   0  0  0  0  0  0
   13.5113   44.4797  -12.0418 H   0  0  0  0  0  0
   12.2814   46.4753  -12.8844 H   0  0  0  0  0  0
   13.5168   48.4829  -13.6279 H   0  0  0  0  0  0
   17.2465   46.4441  -12.8778 H   0  0  0  0  0  0
   14.4427   42.2805   -8.3346 H   0  0  0  0  0  0
   14.0671   40.6054   -8.5804 H   0  0  0  0  0  0
   15.1248   41.2656   -6.4227 H   0  0  0  0  0  0
   16.1029   39.3165   -6.0091 H   0  0  0  0  0  0
   15.0433   38.9110   -7.3145 H   0  0  0  0  0  0
   16.0889   37.3787   -8.7719 H   0  0  0  0  0  0
   18.0712   36.5874  -10.0393 H   0  0  0  0  0  0
   20.2459   37.7506   -9.8015 H   0  0  0  0  0  0
   18.4685   40.4842   -6.9738 H   0  0  0  0  0  0
   20.7380   40.6597   -7.4193 H   0  0  0  0  0  0
   20.4828   41.3657   -9.7812 H   0  0  0  0  0  0
   21.4014   39.9571  -10.3155 H   0  0  0  0  0  0
   22.1807   41.2076   -9.3526 H   0  0  0  0  0  0
   21.6956   38.4572   -6.8018 H   0  0  0  0  0  0
   22.9072   39.4813   -7.5681 H   0  0  0  0  0  0
   22.1678   38.1712   -8.4759 H   0  0  0  0  0  0
   14.2941   40.3928  -10.6295 H   0  0  0  0  0  0
   19.0071   44.4200   -6.8819 H   0  0  0  0  0  0
   20.1247   45.0782   -8.0798 H   0  0  0  0  0  0
   19.8787   43.3518   -7.9752 H   0  0  0  0  0  0
  1  2  1  0  0  0
  1 41  1  0  0  0
  1 42  1  0  0  0
  1 43  1  0  0  0
  2  3  1  0  0  0
  2 44  1  0  0  0
  2 45  1  0  0  0
  3 21  1  0  0  0
  3  4  1  0  0  0
  4  5  1  0  0  0
  4 46  1  0  0  0
  4 47  1  0  0  0
  5  6  1  0  0  0
  5 48  1  0  0  0
  5 49  1  0  0  0
  6  7  1  0  0  0
  6 50  1  0  0  0
  6 51  1  0  0  0
  7  8  1  0  0  0
  7 52  1  0  0  0
  7 53  1  0  0  0
  8  9  1  0  0  0
  8 54  1  0  0  0
  8 55  1  0  0  0
  9 38  1  0  0  0
  9 10  1  0  0  0
  9 37  1  0  0  0
 10 11  1  0  0  0
 10 56  1  0  0  0
 10 57  1  0  0  0
 11 39  1  0  0  0
 11 12  1  0  0  0
 11 23  1  0  0  0
 12 13  1  0  0  0
 12 58  1  0  0  0
 13 14  2  0  0  0
 13 15  1  0  0  0
 15 20  1  0  0  0
 15 16  2  0  0  0
 16 17  1  0  0  0
 16 59  1  0  0  0
 17 18  2  0  0  0
 17 60  1  0  0  0
 18 19  1  0  0  0
 18 61  1  0  0  0
 19 20  2  0  0  0
 19 21  1  0  0  0
 20 62  1  0  0  0
 21 22  2  0  0  0
 23 40  1  0  0  0
 23 24  1  0  0  0
 23 36  1  0  0  0
 24 25  1  0  0  0
 24 63  1  0  0  0
 24 64  1  0  0  0
 25 26  1  0  0  0
 25 65  1  0  0  0
 26 27  1  0  0  0
 26 66  1  0  0  0
 26 67  1  0  0  0
 27 32  1  0  0  0
 27 28  2  0  0  0
 28 29  1  0  0  0
 28 68  1  0  0  0
 29 30  2  0  0  0
 29 69  1  0  0  0
 30 31  1  0  0  0
 30 70  1  0  0  0
 31 32  2  0  0  0
 31 33  1  0  0  0
 32 71  1  0  0  0
 33 34  1  0  0  0
 33 35  1  0  0  0
 33 72  1  0  0  0
 34 73  1  0  0  0
 34 74  1  0  0  0
 34 75  1  0  0  0
 35 76  1  0  0  0
 35 77  1  0  0  0
 35 78  1  0  0  0
 36 79  1  0  0  0
 37 80  1  0  0  0
 37 81  1  0  0  0
 37 82  1  0  0  0
M  END
> <s_m_source_file>
BACE_6.smi

> <i_m_source_file_index>
1

> <i_lp_mmshare_version>
42013

> <i_f3d_flags>
0

> <s_epik_input>
YzEyW2NIXVtjSF1bY0hdYyhbY0hdMilDKD1PKU4oW0NIMl1bQ0gzXSlbQ0gyXVtDSDJdW0NIMl1bQ0gyXVtDSDJdW0NAQEhdKFtDSDNdKVtDSDJdW0NASF0oW05IXUMxPU8pW0NASF0oW09IXSlbQ0gyXVtOSF1bQ0gyXWMzW2NIXVtjSF1bY0hdYyhbY0hdMylbQ0hdKFtDSDNdKVtDSDNd

> <s_epik_cmdline>
J2VwaWtfcHl0aG9uJywgJy1waCcsICc3LjAnLCAnLXRuJywgJzgnLCAnLW1hJywgJzIwMCcsICctaW1hZScsICc8aW5maWxlLm1hZT4nLCAnLW9tYWUnLCAnPG91dGZpbGUubWFlPic=

> <r_epik_Ionization_Penalty>
  2.1294

> <r_epik_Ionization_Penalty_Charging>
  0.0000

> <r_epik_Ionization_Penalty_Neutral>
  2.1294

> <r_epik_State_Penalty>
  2.2676

> <r_epik_Charging_Adjusted_Penalty>
2.26762

> <i_epik_Tot_Q>
0

> <i_epik_Tot_abs_Q>
0

> <s_lp_Force_Field>
OPLS_2005

> <r_lp_Energy>
47.7451

> <b_lp_Chiralities_Consistent>
1

> <s_lp_Variant>
BACE_6.smi:1-2

> <chiral flag>
1

> <version>
0

> <r_i_glide_lipo>
-1.10063

> <r_i_glide_hbond>
-0.479066

> <r_i_glide_metal>
-0

> <r_i_glide_rewards>
0

> <r_i_glide_erotb>
0.397034

> <r_i_glide_esite>
-0.00445794

> <chiral flag>
1

> <s_i_glide_gridfile>
second_dock_grid_2

> <i_i_glide_lignum>
13

> <i_i_glide_rotatable_bonds>
8

> <r_i_docking_score>
-1.3269

> <r_i_glide_ligand_efficiency>
-0.0358622

> <r_i_glide_ligand_efficiency_sa>
-0.119501

> <r_i_glide_ligand_efficiency_ln>
-0.287774

> <r_glide_XP_GScore>
-3.5945

> <r_i_glide_gscore>
-3.5945

> <r_i_glide_evdw>
-35.1074

> <r_i_glide_ecoul>
-9.9412

> <r_i_glide_energy>
-45.0486

> <r_i_glide_einternal>
4.98534

> <r_i_glide_emodel>
-59.5961

> <r_glide_XP_HBond>
-0.104026

> <i_i_glide_confnum>
1

> <i_i_glide_posenum>
2

> <r_i_glide_eff_state_penalty>
2.2676

> <i_glide_XP_PoseRank>
1

$$$$
BACE_6.smi:1
                    3D
 Structure written by MMmdl.
 82 84  0  0  1  0            999 V2000
   23.8426   49.2477   -7.5305 C   0  0  0  0  0  0
   22.3355   49.5379   -7.5967 C   0  0  0  0  0  0
   21.5523   48.2897   -7.6041 N   0  0  0  0  0  0
   21.1834   47.8214   -8.9577 C   0  0  0  0  0  0
   21.7764   46.4497   -9.3573 C   0  0  0  0  0  0
   21.6258   46.1394  -10.8606 C   0  0  0  0  0  0
   20.1780   45.9598  -11.3707 C   0  0  0  0  0  0
   19.5838   44.5539  -11.1318 C   0  0  0  0  0  0
   18.1228   44.3992  -11.6320 C   0  0  2  0  0  0
   17.4447   43.0979  -11.1290 C   0  0  0  0  0  0
   16.5971   43.2602   -9.8461 C   0  0  2  0  0  0
   17.4865   43.6111   -8.7406 N   0  0  0  0  0  0
   17.4678   44.7484   -8.0291 C   0  0  0  0  0  0
   16.6142   45.6306   -8.1437 O   0  0  0  0  0  0
   18.6778   44.9412   -7.1658 C   0  0  0  0  0  0
   19.2604   43.8580   -6.4702 C   0  0  0  0  0  0
   20.4331   44.0413   -5.7191 C   0  0  0  0  0  0
   21.0582   45.3000   -5.7005 C   0  0  0  0  0  0
   20.5024   46.3884   -6.4072 C   0  0  0  0  0  0
   19.2704   46.2174   -7.0780 C   0  0  0  0  0  0
   21.2343   47.6988   -6.4137 C   0  0  0  0  0  0
   21.5867   48.1647   -5.3278 O   0  0  0  0  0  0
   15.7883   41.9802   -9.5160 C   0  0  1  0  0  0
   15.0264   42.0576   -8.1705 C   0  0  0  0  0  0
   14.9357   40.7780   -7.4589 N   0  0  0  0  0  0
   16.2115   40.2462   -6.9870 C   0  0  0  0  0  0
   16.8393   39.2162   -7.9015 C   0  0  0  0  0  0
   16.0599   38.1784   -8.4396 C   0  0  0  0  0  0
   16.6518   37.2141   -9.2663 C   0  0  0  0  0  0
   18.0225   37.2924   -9.5630 C   0  0  0  0  0  0
   18.8230   38.3246   -9.0278 C   0  0  0  0  0  0
   18.2170   39.2897   -8.1931 C   0  0  0  0  0  0
   20.3095   38.3748   -9.3726 C   0  0  0  0  0  0
   21.1973   38.7918   -8.1851 C   0  0  0  0  0  0
   20.5634   39.2604  -10.6027 C   0  0  0  0  0  0
   14.8030   41.7765  -10.5092 O   0  0  0  0  0  0
   18.0320   44.4442  -13.1647 C   0  0  0  0  0  0
   17.5467   45.2437  -11.2547 H   0  0  0  0  0  0
   15.8801   44.0660  -10.0094 H   0  0  0  0  0  0
   16.4704   41.1347   -9.5506 H   0  0  0  0  0  0
   24.4195   50.1728   -7.5228 H   0  0  0  0  0  0
   24.1675   48.6626   -8.3915 H   0  0  0  0  0  0
   24.1039   48.6898   -6.6302 H   0  0  0  0  0  0
   22.0457   50.1635   -6.7508 H   0  0  0  0  0  0
   22.1186   50.1517   -8.4721 H   0  0  0  0  0  0
   20.1022   47.8312   -9.0692 H   0  0  0  0  0  0
   21.5254   48.5371   -9.7049 H   0  0  0  0  0  0
   22.8395   46.4449   -9.1153 H   0  0  0  0  0  0
   21.3383   45.6328   -8.7853 H   0  0  0  0  0  0
   22.0937   46.9499  -11.4221 H   0  0  0  0  0  0
   22.2058   45.2480  -11.1082 H   0  0  0  0  0  0
   19.5248   46.7175  -10.9390 H   0  0  0  0  0  0
   20.1853   46.1625  -12.4370 H   0  0  0  0  0  0
   20.2154   43.8029  -11.6103 H   0  0  0  0  0  0
   19.6414   44.3423  -10.0660 H   0  0  0  0  0  0
   16.7811   42.7201  -11.9072 H   0  0  0  0  0  0
   18.1881   42.3083  -10.9972 H   0  0  0  0  0  0
   18.2486   42.9732   -8.5599 H   0  0  0  0  0  0
   18.8050   42.8760   -6.5011 H   0  0  0  0  0  0
   20.8635   43.2128   -5.1770 H   0  0  0  0  0  0
   21.9826   45.4192   -5.1534 H   0  0  0  0  0  0
   18.8042   47.0518   -7.5784 H   0  0  0  0  0  0
   15.5201   42.7631   -7.5099 H   0  0  0  0  0  0
   14.0317   42.4776   -8.3235 H   0  0  0  0  0  0
   14.3538   40.9111   -6.6228 H   0  0  0  0  0  0
   16.9203   41.0603   -6.8434 H   0  0  0  0  0  0
   16.0662   39.7666   -6.0194 H   0  0  0  0  0  0
   15.0071   38.1183   -8.2029 H   0  0  0  0  0  0
   16.0534   36.4156   -9.6825 H   0  0  0  0  0  0
   18.4612   36.5470  -10.2053 H   0  0  0  0  0  0
   18.7992   40.0914   -7.7712 H   0  0  0  0  0  0
   20.6097   37.3601   -9.6368 H   0  0  0  0  0  0
   21.0236   38.1500   -7.3182 H   0  0  0  0  0  0
   21.0170   39.8244   -7.8849 H   0  0  0  0  0  0
   22.2536   38.7154   -8.4464 H   0  0  0  0  0  0
   19.9893   38.9065  -11.4610 H   0  0  0  0  0  0
   21.6184   39.2527  -10.8796 H   0  0  0  0  0  0
   20.2739   40.2942  -10.4103 H   0  0  0  0  0  0
   14.2432   41.0756  -10.1999 H   0  0  0  0  0  0
   18.5350   43.5866  -13.6089 H   0  0  0  0  0  0
   18.4597   45.3543  -13.5824 H   0  0  0  0  0  0
   16.9907   44.4087  -13.4841 H   0  0  0  0  0  0
  1  2  1  0  0  0
  1 41  1  0  0  0
  1 42  1  0  0  0
  1 43  1  0  0  0
  2  3  1  0  0  0
  2 44  1  0  0  0
  2 45  1  0  0  0
  3 21  1  0  0  0
  3  4  1  0  0  0
  4  5  1  0  0  0
  4 46  1  0  0  0
  4 47  1  0  0  0
  5  6  1  0  0  0
  5 48  1  0  0  0
  5 49  1  0  0  0
  6  7  1  0  0  0
  6 50  1  0  0  0
  6 51  1  0  0  0
  7  8  1  0  0  0
  7 52  1  0  0  0
  7 53  1  0  0  0
  8  9  1  0  0  0
  8 54  1  0  0  0
  8 55  1  0  0  0
  9 38  1  0  0  0
  9 10  1  0  0  0
  9 37  1  0  0  0
 10 11  1  0  0  0
 10 56  1  0  0  0
 10 57  1  0  0  0
 11 39  1  0  0  0
 11 12  1  0  0  0
 11 23  1  0  0  0
 12 13  1  0  0  0
 12 58  1  0  0  0
 13 14  2  0  0  0
 13 15  1  0  0  0
 15 20  1  0  0  0
 15 16  2  0  0  0
 16 17  1  0  0  0
 16 59  1  0  0  0
 17 18  2  0  0  0
 17 60  1  0  0  0
 18 19  1  0  0  0
 18 61  1  0  0  0
 19 20  2  0  0  0
 19 21  1  0  0  0
 20 62  1  0  0  0
 21 22  2  0  0  0
 23 40  1  0  0  0
 23 24  1  0  0  0
 23 36  1  0  0  0
 24 25  1  0  0  0
 24 63  1  0  0  0
 24 64  1  0  0  0
 25 26  1  0  0  0
 25 65  1  0  0  0
 26 27  1  0  0  0
 26 66  1  0  0  0
 26 67  1  0  0  0
 27 32  1  0  0  0
 27 28  2  0  0  0
 28 29  1  0  0  0
 28 68  1  0  0  0
 29 30  2  0  0  0
 29 69  1  0  0  0
 30 31  1  0  0  0
 30 70  1  0  0  0
 31 32  2  0  0  0
 31 33  1  0  0  0
 32 71  1  0  0  0
 33 34  1  0  0  0
 33 35  1  0  0  0
 33 72  1  0  0  0
 34 73  1  0  0  0
 34 74  1  0  0  0
 34 75  1  0  0  0
 35 76  1  0  0  0
 35 77  1  0  0  0
 35 78  1  0  0  0
 36 79  1  0  0  0
 37 80  1  0  0  0
 37 81  1  0  0  0
 37 82  1  0  0  0
M  END
> <s_m_source_file>
BACE_6.smi

> <i_m_source_file_index>
1

> <i_lp_mmshare_version>
42013

> <i_f3d_flags>
0

> <s_epik_input>
YzEyW2NIXVtjSF1bY0hdYyhbY0hdMilDKD1PKU4oW0NIMl1bQ0gzXSlbQ0gyXVtDSDJdW0NIMl1bQ0gyXVtDSDJdW0NAQEhdKFtDSDNdKVtDSDJdW0NASF0oW05IXUMxPU8pW0NASF0oW09IXSlbQ0gyXVtOSF1bQ0gyXWMzW2NIXVtjSF1bY0hdYyhbY0hdMylbQ0hdKFtDSDNdKVtDSDNd

> <s_epik_cmdline>
J2VwaWtfcHl0aG9uJywgJy1waCcsICc3LjAnLCAnLXRuJywgJzgnLCAnLW1hJywgJzIwMCcsICctaW1hZScsICc8aW5maWxlLm1hZT4nLCAnLW9tYWUnLCAnPG91dGZpbGUubWFlPic=

> <r_epik_Ionization_Penalty>
  2.1294

> <r_epik_Ionization_Penalty_Charging>
  0.0000

> <r_epik_Ionization_Penalty_Neutral>
  2.1294

> <r_epik_State_Penalty>
  2.2676

> <r_epik_Charging_Adjusted_Penalty>
2.26762

> <i_epik_Tot_Q>
0

> <i_epik_Tot_abs_Q>
0

> <s_lp_Force_Field>
OPLS_2005

> <r_lp_Energy>
47.7451

> <b_lp_Chiralities_Consistent>
1

> <s_lp_Variant>
BACE_6.smi:1-2

> <chiral flag>
1

> <version>
0

> <r_i_glide_lipo>
-1.10063

> <r_i_glide_hbond>
-0.479066

> <r_i_glide_metal>
-0

> <r_i_glide_rewards>
0

> <r_i_glide_erotb>
0.397034

> <r_i_glide_esite>
-0.00445794

> <chiral flag>
1

> <s_i_glide_gridfile>
second_dock_grid_2

> <i_i_glide_lignum>
13

> <i_i_glide_rotatable_bonds>
8

> <r_i_docking_score>
0.0218035

> <r_i_glide_ligand_efficiency>
0.000589283

> <r_i_glide_ligand_efficiency_sa>
0.00196362

> <r_i_glide_ligand_efficiency_ln>
0.00472866

> <r_glide_XP_GScore>
-2.2458

> <r_i_glide_gscore>
-2.2458

> <r_i_glide_evdw>
-36.0883

> <r_i_glide_ecoul>
-5.7834

> <r_i_glide_energy>
-41.8717

> <r_i_glide_einternal>
2.84933

> <r_i_glide_emodel>
-54.7539

> <r_glide_XP_HBond>
-0.104026

> <i_i_glide_confnum>
1

> <i_i_glide_posenum>
5

> <r_i_glide_eff_state_penalty>
2.2676

> <i_glide_XP_PoseRank>
2

$$$$
BACE_6.smi:1
                    3D
 Structure written by MMmdl.
 82 84  0  0  1  0            999 V2000
   20.6350   51.1520   -8.0332 C   0  0  0  0  0  0
   21.6286   49.9833   -7.9526 C   0  0  0  0  0  0
   20.9289   48.6926   -7.8535 N   0  0  0  0  0  0
   20.6362   48.0793   -9.1658 C   0  0  0  0  0  0
   21.3811   46.7551   -9.4523 C   0  0  0  0  0  0
   21.2746   46.3131  -10.9228 C   0  0  0  0  0  0
   19.8492   45.9918  -11.4175 C   0  0  0  0  0  0
   19.3733   44.5505  -11.1530 C   0  0  0  0  0  0
   17.9394   44.2764  -11.6761 C   0  0  2  0  0  0
   17.3306   42.9669  -11.1189 C   0  0  0  0  0  0
   16.4705   43.1362   -9.8449 C   0  0  2  0  0  0
   17.3264   43.6140   -8.7609 N   0  0  0  0  0  0
   17.1869   44.7593   -8.0747 C   0  0  0  0  0  0
   16.2299   45.5279   -8.1970 O   0  0  0  0  0  0
   18.3769   45.1227   -7.2407 C   0  0  0  0  0  0
   19.1015   44.1397   -6.5272 C   0  0  0  0  0  0
   20.2424   44.4970   -5.7875 C   0  0  0  0  0  0
   20.7050   45.8250   -5.8071 C   0  0  0  0  0  0
   20.0134   46.8102   -6.5414 C   0  0  0  0  0  0
   18.8084   46.4662   -7.1954 C   0  0  0  0  0  0
   20.5878   48.1942   -6.6308 C   0  0  0  0  0  0
   20.8012   48.8041   -5.5820 O   0  0  0  0  0  0
   15.7854   41.8068   -9.4489 C   0  0  1  0  0  0
   15.0540   41.8517   -8.0885 C   0  0  0  0  0  0
   14.9977   40.5534   -7.4155 N   0  0  0  0  0  0
   16.2975   40.0805   -6.9477 C   0  0  0  0  0  0
   17.0039   39.1022   -7.8588 C   0  0  0  0  0  0
   16.2793   38.1465   -8.5946 C   0  0  0  0  0  0
   16.9623   37.2747   -9.4577 C   0  0  0  0  0  0
   18.3620   37.3550   -9.5816 C   0  0  0  0  0  0
   19.1045   38.2924   -8.8320 C   0  0  0  0  0  0
   18.4078   39.1686   -7.9723 C   0  0  0  0  0  0
   20.6211   38.3531   -8.9829 C   0  0  0  0  0  0
   21.3623   38.7206   -7.6845 C   0  0  0  0  0  0
   21.0171   39.2805  -10.1409 C   0  0  0  0  0  0
   14.7939   41.4873  -10.4086 O   0  0  0  0  0  0
   17.8947   44.2502  -13.2136 C   0  0  0  0  0  0
   17.3013   45.0992  -11.3536 H   0  0  0  0  0  0
   15.6900   43.8699  -10.0456 H   0  0  0  0  0  0
   16.5425   41.0279   -9.4708 H   0  0  0  0  0  0
   21.1571   52.0935   -8.1958 H   0  0  0  0  0  0
   20.0494   51.2361   -7.1184 H   0  0  0  0  0  0
   19.9408   51.0209   -8.8648 H   0  0  0  0  0  0
   22.2871   49.9906   -8.8212 H   0  0  0  0  0  0
   22.2994   50.1265   -7.1035 H   0  0  0  0  0  0
   19.5605   47.9554   -9.2661 H   0  0  0  0  0  0
   20.8817   48.7826   -9.9634 H   0  0  0  0  0  0
   22.4379   46.8843   -9.2118 H   0  0  0  0  0  0
   21.0264   45.9462   -8.8185 H   0  0  0  0  0  0
   21.6852   47.1111  -11.5440 H   0  0  0  0  0  0
   21.9227   45.4527  -11.0961 H   0  0  0  0  0  0
   19.1269   46.7010  -11.0186 H   0  0  0  0  0  0
   19.8470   46.1698  -12.4863 H   0  0  0  0  0  0
   20.0700   43.8440  -11.6046 H   0  0  0  0  0  0
   19.4308   44.3709  -10.0820 H   0  0  0  0  0  0
   16.6965   42.5156  -11.8814 H   0  0  0  0  0  0
   18.1204   42.2325  -10.9497 H   0  0  0  0  0  0
   18.1603   43.0699   -8.5828 H   0  0  0  0  0  0
   18.7741   43.1083   -6.5207 H   0  0  0  0  0  0
   20.7840   43.7434   -5.2325 H   0  0  0  0  0  0
   21.6117   46.0792   -5.2744 H   0  0  0  0  0  0
   18.2453   47.2195   -7.7260 H   0  0  0  0  0  0
   15.5432   42.5483   -7.4110 H   0  0  0  0  0  0
   14.0559   42.2587   -8.2233 H   0  0  0  0  0  0
   14.3929   40.6414   -6.5969 H   0  0  0  0  0  0
   16.9603   40.9343   -6.8400 H   0  0  0  0  0  0
   16.1838   39.6066   -5.9736 H   0  0  0  0  0  0
   15.2036   38.0860   -8.4973 H   0  0  0  0  0  0
   16.4107   36.5504  -10.0344 H   0  0  0  0  0  0
   18.8595   36.6906  -10.2675 H   0  0  0  0  0  0
   18.9396   39.9090   -7.3921 H   0  0  0  0  0  0
   20.9509   37.3481   -9.2403 H   0  0  0  0  0  0
   21.0798   38.0589   -6.8665 H   0  0  0  0  0  0
   21.1629   39.7444   -7.3734 H   0  0  0  0  0  0
   22.4395   38.6351   -7.8237 H   0  0  0  0  0  0
   20.5652   38.9550  -11.0778 H   0  0  0  0  0  0
   22.0982   39.2923  -10.2843 H   0  0  0  0  0  0
   20.6930   40.3039   -9.9547 H   0  0  0  0  0  0
   14.2828   40.7760  -10.0422 H   0  0  0  0  0  0
   18.4629   43.4109  -13.6150 H   0  0  0  0  0  0
   18.2916   45.1700  -13.6406 H   0  0  0  0  0  0
   16.8690   44.1505  -13.5708 H   0  0  0  0  0  0
  1  2  1  0  0  0
  1 41  1  0  0  0
  1 42  1  0  0  0
  1 43  1  0  0  0
  2  3  1  0  0  0
  2 44  1  0  0  0
  2 45  1  0  0  0
  3 21  1  0  0  0
  3  4  1  0  0  0
  4  5  1  0  0  0
  4 46  1  0  0  0
  4 47  1  0  0  0
  5  6  1  0  0  0
  5 48  1  0  0  0
  5 49  1  0  0  0
  6  7  1  0  0  0
  6 50  1  0  0  0
  6 51  1  0  0  0
  7  8  1  0  0  0
  7 52  1  0  0  0
  7 53  1  0  0  0
  8  9  1  0  0  0
  8 54  1  0  0  0
  8 55  1  0  0  0
  9 38  1  0  0  0
  9 10  1  0  0  0
  9 37  1  0  0  0
 10 11  1  0  0  0
 10 56  1  0  0  0
 10 57  1  0  0  0
 11 39  1  0  0  0
 11 12  1  0  0  0
 11 23  1  0  0  0
 12 13  1  0  0  0
 12 58  1  0  0  0
 13 14  2  0  0  0
 13 15  1  0  0  0
 15 20  1  0  0  0
 15 16  2  0  0  0
 16 17  1  0  0  0
 16 59  1  0  0  0
 17 18  2  0  0  0
 17 60  1  0  0  0
 18 19  1  0  0  0
 18 61  1  0  0  0
 19 20  2  0  0  0
 19 21  1  0  0  0
 20 62  1  0  0  0
 21 22  2  0  0  0
 23 40  1  0  0  0
 23 24  1  0  0  0
 23 36  1  0  0  0
 24 25  1  0  0  0
 24 63  1  0  0  0
 24 64  1  0  0  0
 25 26  1  0  0  0
 25 65  1  0  0  0
 26 27  1  0  0  0
 26 66  1  0  0  0
 26 67  1  0  0  0
 27 32  1  0  0  0
 27 28  2  0  0  0
 28 29  1  0  0  0
 28 68  1  0  0  0
 29 30  2  0  0  0
 29 69  1  0  0  0
 30 31  1  0  0  0
 30 70  1  0  0  0
 31 32  2  0  0  0
 31 33  1  0  0  0
 32 71  1  0  0  0
 33 34  1  0  0  0
 33 35  1  0  0  0
 33 72  1  0  0  0
 34 73  1  0  0  0
 34 74  1  0  0  0
 34 75  1  0  0  0
 35 76  1  0  0  0
 35 77  1  0  0  0
 35 78  1  0  0  0
 36 79  1  0  0  0
 37 80  1  0  0  0
 37 81  1  0  0  0
 37 82  1  0  0  0
M  END
> <s_m_source_file>
BACE_6.smi

> <i_m_source_file_index>
1

> <i_lp_mmshare_version>
42013

> <i_f3d_flags>
0

> <s_epik_input>
YzEyW2NIXVtjSF1bY0hdYyhbY0hdMilDKD1PKU4oW0NIMl1bQ0gzXSlbQ0gyXVtDSDJdW0NIMl1bQ0gyXVtDSDJdW0NAQEhdKFtDSDNdKVtDSDJdW0NASF0oW05IXUMxPU8pW0NASF0oW09IXSlbQ0gyXVtOSF1bQ0gyXWMzW2NIXVtjSF1bY0hdYyhbY0hdMylbQ0hdKFtDSDNdKVtDSDNd

> <s_epik_cmdline>
J2VwaWtfcHl0aG9uJywgJy1waCcsICc3LjAnLCAnLXRuJywgJzgnLCAnLW1hJywgJzIwMCcsICctaW1hZScsICc8aW5maWxlLm1hZT4nLCAnLW9tYWUnLCAnPG91dGZpbGUubWFlPic=

> <r_epik_Ionization_Penalty>
  2.1294

> <r_epik_Ionization_Penalty_Charging>
  0.0000

> <r_epik_Ionization_Penalty_Neutral>
  2.1294

> <r_epik_State_Penalty>
  2.2676

> <r_epik_Charging_Adjusted_Penalty>
2.26762

> <i_epik_Tot_Q>
0

> <i_epik_Tot_abs_Q>
0

> <s_lp_Force_Field>
OPLS_2005

> <r_lp_Energy>
47.7451

> <b_lp_Chiralities_Consistent>
1

> <s_lp_Variant>
BACE_6.smi:1-2

> <chiral flag>
1

> <version>
0

> <r_i_glide_lipo>
-1.10063

> <r_i_glide_hbond>
-0.479066

> <r_i_glide_metal>
-0

> <r_i_glide_rewards>
0

> <r_i_glide_erotb>
0.397034

> <r_i_glide_esite>
-0.00445794

> <chiral flag>
1

> <s_i_glide_gridfile>
second_dock_grid_2

> <i_i_glide_lignum>
13

> <i_i_glide_rotatable_bonds>
8

> <r_i_docking_score>
0.0675372

> <r_i_glide_ligand_efficiency>
0.00182533

> <r_i_glide_ligand_efficiency_sa>
0.0060824

> <r_i_glide_ligand_efficiency_ln>
0.0146472

> <r_glide_XP_GScore>
-2.20006

> <r_i_glide_gscore>
-2.20006

> <r_i_glide_evdw>
-37.9671

> <r_i_glide_ecoul>
-5.41394

> <r_i_glide_energy>
-43.381

> <r_i_glide_einternal>
3.82847

> <r_i_glide_emodel>
-55.9567

> <r_glide_XP_HBond>
-0.104026

> <i_i_glide_confnum>
1

> <i_i_glide_posenum>
3

> <r_i_glide_eff_state_penalty>
2.2676

> <i_glide_XP_PoseRank>
3

$$$$
BACE_6.smi:1
                    3D
 Structure written by MMmdl.
 82 84  0  0  1  0            999 V2000
   26.6920   44.8331   -6.2233 C   0  0  0  0  0  0
   25.7654   45.7833   -6.9939 C   0  0  0  0  0  0
   24.4108   45.2187   -7.1113 N   0  0  0  0  0  0
   24.2184   44.3728   -8.3090 C   0  0  0  0  0  0
   23.9417   42.8838   -8.0019 C   0  0  0  0  0  0
   24.0977   41.9651   -9.2258 C   0  0  0  0  0  0
   23.1532   42.2569  -10.4077 C   0  0  0  0  0  0
   21.6958   41.7920  -10.2110 C   0  0  0  0  0  0
   20.7544   42.0887  -11.4159 C   0  0  2  0  0  0
   19.2614   41.7453  -11.1592 C   0  0  0  0  0  0
   18.3909   42.8253  -10.4725 C   0  0  2  0  0  0
   18.9338   43.1376   -9.1618 N   0  0  0  0  0  0
   19.2882   44.3524   -8.7214 C   0  0  0  0  0  0
   19.1014   45.4053   -9.3297 O   0  0  0  0  0  0
   20.0784   44.3032   -7.4576 C   0  0  0  0  0  0
   19.6608   43.4817   -6.3884 C   0  0  0  0  0  0
   20.4696   43.3459   -5.2474 C   0  0  0  0  0  0
   21.7065   44.0102   -5.1894 C   0  0  0  0  0  0
   22.1322   44.8379   -6.2466 C   0  0  0  0  0  0
   21.2845   45.0277   -7.3586 C   0  0  0  0  0  0
   23.4768   45.4952   -6.1584 C   0  0  0  0  0  0
   23.6967   46.2224   -5.1873 O   0  0  0  0  0  0
   16.9215   42.3538  -10.3529 C   0  0  1  0  0  0
   15.9898   43.2312   -9.4893 C   0  0  0  0  0  0
   16.0152   42.8799   -8.0698 N   0  0  0  0  0  0
   15.1537   41.7571   -7.6723 C   0  0  0  0  0  0
   15.6719   40.3941   -8.0742 C   0  0  0  0  0  0
   14.8437   39.4875   -8.7655 C   0  0  0  0  0  0
   15.3505   38.2333   -9.1523 C   0  0  0  0  0  0
   16.6780   37.8800   -8.8419 C   0  0  0  0  0  0
   17.5063   38.7817   -8.1405 C   0  0  0  0  0  0
   16.9971   40.0372   -7.7638 C   0  0  0  0  0  0
   18.9252   38.3945   -7.7684 C   0  0  0  0  0  0
   19.2011   38.5735   -6.2718 C   0  0  0  0  0  0
   19.9671   39.1289   -8.6097 C   0  0  0  0  0  0
   16.3759   42.3606  -11.6400 O   0  0  0  0  0  0
   21.2235   41.3214  -12.6679 C   0  0  0  0  0  0
   20.8123   43.1548  -11.6394 H   0  0  0  0  0  0
   18.4139   43.7247  -11.0907 H   0  0  0  0  0  0
   16.8970   41.3159  -10.0440 H   0  0  0  0  0  0
   27.6827   45.2710   -6.0978 H   0  0  0  0  0  0
   26.8079   43.8807   -6.7451 H   0  0  0  0  0  0
   26.2984   44.6204   -5.2300 H   0  0  0  0  0  0
   25.7431   46.7532   -6.4948 H   0  0  0  0  0  0
   26.1897   45.9961   -7.9744 H   0  0  0  0  0  0
   23.4370   44.7890   -8.9383 H   0  0  0  0  0  0
   25.1102   44.4102   -8.9342 H   0  0  0  0  0  0
   24.6455   42.5526   -7.2405 H   0  0  0  0  0  0
   22.9515   42.7383   -7.5756 H   0  0  0  0  0  0
   25.1262   42.0415   -9.5807 H   0  0  0  0  0  0
   23.9805   40.9256   -8.9173 H   0  0  0  0  0  0
   23.1830   43.3115  -10.6805 H   0  0  0  0  0  0
   23.5724   41.7232  -11.2527 H   0  0  0  0  0  0
   21.7035   40.7203  -10.0199 H   0  0  0  0  0  0
   21.3190   42.2535   -9.3023 H   0  0  0  0  0  0
   18.7886   41.5413  -12.1190 H   0  0  0  0  0  0
   19.1878   40.8063  -10.6208 H   0  0  0  0  0  0
   19.1857   42.3514   -8.5813 H   0  0  0  0  0  0
   18.7287   42.9368   -6.4388 H   0  0  0  0  0  0
   20.1531   42.7116   -4.4313 H   0  0  0  0  0  0
   22.3378   43.8733   -4.3223 H   0  0  0  0  0  0
   21.5856   45.6727   -8.1707 H   0  0  0  0  0  0
   16.2757   44.2762   -9.6171 H   0  0  0  0  0  0
   14.9631   43.1657   -9.8480 H   0  0  0  0  0  0
   16.9655   42.6766   -7.7800 H   0  0  0  0  0  0
   15.0758   41.7341   -6.5877 H   0  0  0  0  0  0
   14.1416   41.9045   -8.0509 H   0  0  0  0  0  0
   13.8196   39.7483   -8.9967 H   0  0  0  0  0  0
   14.7131   37.5339   -9.6706 H   0  0  0  0  0  0
   17.0509   36.9077   -9.1246 H   0  0  0  0  0  0
   17.6267   40.7372   -7.2393 H   0  0  0  0  0  0
   19.0345   37.3454   -8.0069 H   0  0  0  0  0  0
   18.4828   38.0261   -5.6550 H   0  0  0  0  0  0
   19.1699   39.6218   -5.9742 H   0  0  0  0  0  0
   20.2004   38.2102   -6.0405 H   0  0  0  0  0  0
   19.8347   38.9080   -9.6678 H   0  0  0  0  0  0
   20.9778   38.8226   -8.3389 H   0  0  0  0  0  0
   19.8961   40.2055   -8.4619 H   0  0  0  0  0  0
   16.7259   41.6009  -12.0829 H   0  0  0  0  0  0
   21.4160   40.2701  -12.4481 H   0  0  0  0  0  0
   22.1294   41.7539  -13.0805 H   0  0  0  0  0  0
   20.4834   41.3503  -13.4653 H   0  0  0  0  0  0
  1  2  1  0  0  0
  1 41  1  0  0  0
  1 42  1  0  0  0
  1 43  1  0  0  0
  2  3  1  0  0  0
  2 44  1  0  0  0
  2 45  1  0  0  0
  3 21  1  0  0  0
  3  4  1  0  0  0
  4  5  1  0  0  0
  4 46  1  0  0  0
  4 47  1  0  0  0
  5  6  1  0  0  0
  5 48  1  0  0  0
  5 49  1  0  0  0
  6  7  1  0  0  0
  6 50  1  0  0  0
  6 51  1  0  0  0
  7  8  1  0  0  0
  7 52  1  0  0  0
  7 53  1  0  0  0
  8  9  1  0  0  0
  8 54  1  0  0  0
  8 55  1  0  0  0
  9 38  1  0  0  0
  9 10  1  0  0  0
  9 37  1  0  0  0
 10 11  1  0  0  0
 10 56  1  0  0  0
 10 57  1  0  0  0
 11 39  1  0  0  0
 11 12  1  0  0  0
 11 23  1  0  0  0
 12 13  1  0  0  0
 12 58  1  0  0  0
 13 14  2  0  0  0
 13 15  1  0  0  0
 15 20  1  0  0  0
 15 16  2  0  0  0
 16 17  1  0  0  0
 16 59  1  0  0  0
 17 18  2  0  0  0
 17 60  1  0  0  0
 18 19  1  0  0  0
 18 61  1  0  0  0
 19 20  2  0  0  0
 19 21  1  0  0  0
 20 62  1  0  0  0
 21 22  2  0  0  0
 23 40  1  0  0  0
 23 24  1  0  0  0
 23 36  1  0  0  0
 24 25  1  0  0  0
 24 63  1  0  0  0
 24 64  1  0  0  0
 25 26  1  0  0  0
 25 65  1  0  0  0
 26 27  1  0  0  0
 26 66  1  0  0  0
 26 67  1  0  0  0
 27 32  1  0  0  0
 27 28  2  0  0  0
 28 29  1  0  0  0
 28 68  1  0  0  0
 29 30  2  0  0  0
 29 69  1  0  0  0
 30 31  1  0  0  0
 30 70  1  0  0  0
 31 32  2  0  0  0
 31 33  1  0  0  0
 32 71  1  0  0  0
 33 34  1  0  0  0
 33 35  1  0  0  0
 33 72  1  0  0  0
 34 73  1  0  0  0
 34 74  1  0  0  0
 34 75  1  0  0  0
 35 76  1  0  0  0
 35 77  1  0  0  0
 35 78  1  0  0  0
 36 79  1  0  0  0
 37 80  1  0  0  0
 37 81  1  0  0  0
 37 82  1  0  0  0
M  END
> <s_m_source_file>
BACE_6.smi

> <i_m_source_file_index>
1

> <i_lp_mmshare_version>
42013

> <i_f3d_flags>
0

> <s_epik_input>
YzEyW2NIXVtjSF1bY0hdYyhbY0hdMilDKD1PKU4oW0NIMl1bQ0gzXSlbQ0gyXVtDSDJdW0NIMl1bQ0gyXVtDSDJdW0NAQEhdKFtDSDNdKVtDSDJdW0NASF0oW05IXUMxPU8pW0NASF0oW09IXSlbQ0gyXVtOSF1bQ0gyXWMzW2NIXVtjSF1bY0hdYyhbY0hdMylbQ0hdKFtDSDNdKVtDSDNd

> <s_epik_cmdline>
J2VwaWtfcHl0aG9uJywgJy1waCcsICc3LjAnLCAnLXRuJywgJzgnLCAnLW1hJywgJzIwMCcsICctaW1hZScsICc8aW5maWxlLm1hZT4nLCAnLW9tYWUnLCAnPG91dGZpbGUubWFlPic=

> <r_epik_Ionization_Penalty>
  2.1294

> <r_epik_Ionization_Penalty_Charging>
  0.0000

> <r_epik_Ionization_Penalty_Neutral>
  2.1294

> <r_epik_State_Penalty>
  2.2676

> <r_epik_Charging_Adjusted_Penalty>
2.26762

> <i_epik_Tot_Q>
0

> <i_epik_Tot_abs_Q>
0

> <s_lp_Force_Field>
OPLS_2005

> <r_lp_Energy>
47.7451

> <b_lp_Chiralities_Consistent>
1

> <s_lp_Variant>
BACE_6.smi:1-2

> <chiral flag>
1

> <version>
0

> <r_i_glide_lipo>
-1.10063

> <r_i_glide_hbond>
-0.479066

> <r_i_glide_metal>
-0

> <r_i_glide_rewards>
0

> <r_i_glide_erotb>
0.397034

> <r_i_glide_esite>
-0.00445794

> <chiral flag>
1

> <s_i_glide_gridfile>
second_dock_grid_2

> <i_i_glide_lignum>
13

> <i_i_glide_rotatable_bonds>
8

> <r_i_docking_score>
4.25186

> <r_i_glide_ligand_efficiency>
0.114915

> <r_i_glide_ligand_efficiency_sa>
0.382922

> <r_i_glide_ligand_efficiency_ln>
0.922128

> <r_glide_XP_GScore>
1.98426

> <r_i_glide_gscore>
1.98426

> <r_i_glide_evdw>
-33.9597

> <r_i_glide_ecoul>
-5.3732

> <r_i_glide_energy>
-39.3329

> <r_i_glide_einternal>
2.95603

> <r_i_glide_emodel>
-55.9286

> <r_glide_XP_HBond>
-0.104026

> <i_i_glide_confnum>
1

> <i_i_glide_posenum>
6

> <r_i_glide_eff_state_penalty>
2.2676

> <i_glide_XP_PoseRank>
5

$$$$
BACE_7.smi:1
                    3D
 Structure written by MMmdl.
 99103  0  0  1  0            999 V2000
   18.2972   38.4388   -6.2777 C   0  0  0  0  0  0
   18.3813   38.7328   -7.7841 C   0  0  2  0  0  0
   17.4977   37.7629   -8.6061 C   0  0  0  0  0  0
   16.0162   38.1917   -8.6528 C   0  0  0  0  0  0
   15.7599   39.3810   -9.5983 C   0  0  0  0  0  0
   14.4598   40.1377   -9.2810 C   0  0  0  0  0  0
   14.2234   41.3633  -10.1862 C   0  0  0  0  0  0
   15.2661   42.4021  -10.0206 N   0  0  0  0  0  0
   15.2000   43.2436   -8.9577 C   0  0  0  0  0  0
   14.1405   43.5949   -8.4383 O   0  0  0  0  0  0
   16.5016   43.7436   -8.4028 C   0  0  0  0  0  0
   16.7004   45.1203   -8.1847 C   0  0  0  0  0  0
   17.9178   45.5831   -7.6403 C   0  0  0  0  0  0
   18.9494   44.6647   -7.3400 C   0  0  0  0  0  0
   18.7646   43.2820   -7.5594 C   0  0  0  0  0  0
   17.5148   42.8321   -8.0418 C   0  0  0  0  0  0
   19.8615   42.3012   -7.2400 C   0  0  0  0  0  0
   20.6556   42.5113   -6.3260 O   0  0  0  0  0  0
   19.9185   41.2254   -8.0455 N   0  0  0  0  0  0
   20.6763   39.9955   -7.8033 C   0  0  1  0  0  0
   19.8412   38.7915   -8.3114 C   0  0  0  0  0  0
   22.1018   40.0277   -8.4431 C   0  0  1  0  0  0
   22.2267   40.8227   -9.7724 C   0  0  0  0  0  0
   23.6004   40.8402  -10.3433 N   0  3  0  0  0  0
   24.5234   41.8143   -9.7245 C   0  0  0  0  0  0
   25.5176   42.3657  -10.7277 C   0  0  0  0  0  0
   25.1622   43.4788  -11.5151 C   0  0  0  0  0  0
   26.0930   44.0388  -12.4082 C   0  0  0  0  0  0
   27.3822   43.4843  -12.5178 C   0  0  0  0  0  0
   27.7461   42.3524  -11.7519 C   0  0  0  0  0  0
   26.8039   41.7993  -10.8550 C   0  0  0  0  0  0
   29.1432   41.7455  -11.8479 C   0  0  0  0  0  0
   30.0673   42.3306  -10.7706 C   0  0  0  0  0  0
   29.7689   41.8545  -13.2504 C   0  0  0  0  0  0
   22.9791   40.5418   -7.4651 O   0  0  0  0  0  0
   18.1128   47.0090   -7.4188 C   0  0  0  0  0  0
   19.0035   47.6116   -6.6302 N   0  0  0  0  0  0
   18.7873   48.9685   -6.8161 C   0  0  0  0  0  0
   17.7466   49.1198   -7.6935 C   0  0  0  0  0  0
   17.3076   47.8857   -8.0815 O   0  0  0  0  0  0
   16.0192   42.7804  -11.2410 C   0  0  2  0  0  0
   17.5331   42.4715  -11.2070 C   0  0  0  0  0  0
   15.6483   44.1803  -11.7591 C   0  0  0  0  0  0
   14.2923   44.4827  -12.0250 C   0  0  0  0  0  0
   13.9141   45.7497  -12.5061 C   0  0  0  0  0  0
   14.8926   46.7362  -12.7288 C   0  0  0  0  0  0
   16.2437   46.4572  -12.4501 C   0  0  0  0  0  0
   16.6218   45.1866  -11.9713 C   0  0  0  0  0  0
   17.9479   39.7165   -7.9057 H   0  0  0  0  0  0
   20.7843   39.8587   -6.7246 H   0  0  0  0  0  0
   22.4313   39.0021   -8.6151 H   0  0  0  0  0  0
   15.6819   42.1119  -12.0184 H   0  0  0  0  0  0
   18.6555   37.4386   -6.0410 H   0  0  0  0  0  0
   17.2655   38.5074   -5.9317 H   0  0  0  0  0  0
   18.8670   39.1557   -5.6873 H   0  0  0  0  0  0
   17.8604   37.6819   -9.6305 H   0  0  0  0  0  0
   17.5752   36.7597   -8.1849 H   0  0  0  0  0  0
   15.4019   37.3514   -8.9777 H   0  0  0  0  0  0
   15.6778   38.4286   -7.6433 H   0  0  0  0  0  0
   16.5855   40.0823   -9.5345 H   0  0  0  0  0  0
   15.7486   39.0315  -10.6317 H   0  0  0  0  0  0
   13.6138   39.4559   -9.3763 H   0  0  0  0  0  0
   14.4656   40.4532   -8.2365 H   0  0  0  0  0  0
   14.1349   41.0127  -11.2135 H   0  0  0  0  0  0
   13.2423   41.7819   -9.9614 H   0  0  0  0  0  0
   15.9130   45.8186   -8.4283 H   0  0  0  0  0  0
   19.8895   45.0226   -6.9454 H   0  0  0  0  0  0
   17.3224   41.7777   -8.1573 H   0  0  0  0  0  0
   19.2344   41.1848   -8.7874 H   0  0  0  0  0  0
   20.3472   37.8578   -8.0688 H   0  0  0  0  0  0
   19.8166   38.8374   -9.4004 H   0  0  0  0  0  0
   21.5740   40.3521  -10.5080 H   0  0  0  0  0  0
   21.8694   41.8476   -9.6675 H   0  0  0  0  0  0
   24.0108   39.9154  -10.2726 H   0  0  0  0  0  0
   23.9731   42.6516   -9.2938 H   0  0  0  0  0  0
   25.0564   41.3368   -8.9020 H   0  0  0  0  0  0
   24.1802   43.9207  -11.4236 H   0  0  0  0  0  0
   25.8257   44.9005  -13.0007 H   0  0  0  0  0  0
   28.0833   43.9429  -13.1963 H   0  0  0  0  0  0
   27.0815   40.9499  -10.2480 H   0  0  0  0  0  0
   29.0467   40.6794  -11.6473 H   0  0  0  0  0  0
   29.6666   42.1557   -9.7721 H   0  0  0  0  0  0
   30.1848   43.4073  -10.8958 H   0  0  0  0  0  0
   31.0593   41.8809  -10.8134 H   0  0  0  0  0  0
   29.1270   41.3933  -14.0015 H   0  0  0  0  0  0
   30.7313   41.3480  -13.2920 H   0  0  0  0  0  0
   29.9508   42.8859  -13.5470 H   0  0  0  0  0  0
   23.8692   40.4147   -7.7400 H   0  0  0  0  0  0
   19.3808   49.7128   -6.3082 H   0  0  0  0  0  0
   17.2431   49.9719   -8.1249 H   0  0  0  0  0  0
   17.9672   42.5614  -12.2034 H   0  0  0  0  0  0
   17.7304   41.4524  -10.8772 H   0  0  0  0  0  0
   18.0917   43.1470  -10.5627 H   0  0  0  0  0  0
   13.5308   43.7327  -11.8663 H   0  0  0  0  0  0
   12.8755   45.9581  -12.7248 H   0  0  0  0  0  0
   14.6123   47.7046  -13.1160 H   0  0  0  0  0  0
   16.9949   47.2154  -12.6135 H   0  0  0  0  0  0
   17.6663   45.0085  -11.7697 H   0  0  0  0  0  0
   23.5403   41.0713  -11.3301 H   0  0  0  0  0  0
  1  2  1  0  0  0
  1 53  1  0  0  0
  1 54  1  0  0  0
  1 55  1  0  0  0
  2 49  1  0  0  0
  2 21  1  0  0  0
  2  3  1  0  0  0
  3  4  1  0  0  0
  3 56  1  0  0  0
  3 57  1  0  0  0
  4  5  1  0  0  0
  4 58  1  0  0  0
  4 59  1  0  0  0
  5  6  1  0  0  0
  5 60  1  0  0  0
  5 61  1  0  0  0
  6  7  1  0  0  0
  6 62  1  0  0  0
  6 63  1  0  0  0
  7  8  1  0  0  0
  7 64  1  0  0  0
  7 65  1  0  0  0
  8  9  1  0  0  0
  8 41  1  0  0  0
  9 10  2  0  0  0
  9 11  1  0  0  0
 11 16  1  0  0  0
 11 12  2  0  0  0
 12 13  1  0  0  0
 12 66  1  0  0  0
 13 14  2  0  0  0
 13 36  1  0  0  0
 14 15  1  0  0  0
 14 67  1  0  0  0
 15 16  2  0  0  0
 15 17  1  0  0  0
 16 68  1  0  0  0
 17 18  2  0  0  0
 17 19  1  0  0  0
 19 20  1  0  0  0
 19 69  1  0  0  0
 20 50  1  0  0  0
 20 21  1  0  0  0
 20 22  1  0  0  0
 21 70  1  0  0  0
 21 71  1  0  0  0
 22 51  1  0  0  0
 22 23  1  0  0  0
 22 35  1  0  0  0
 23 24  1  0  0  0
 23 72  1  0  0  0
 23 73  1  0  0  0
 24 25  1  0  0  0
 24 74  1  0  0  0
 24 99  1  0  0  0
 25 26  1  0  0  0
 25 75  1  0  0  0
 25 76  1  0  0  0
 26 31  1  0  0  0
 26 27  2  0  0  0
 27 28  1  0  0  0
 27 77  1  0  0  0
 28 29  2  0  0  0
 28 78  1  0  0  0
 29 30  1  0  0  0
 29 79  1  0  0  0
 30 31  2  0  0  0
 30 32  1  0  0  0
 31 80  1  0  0  0
 32 33  1  0  0  0
 32 34  1  0  0  0
 32 81  1  0  0  0
 33 82  1  0  0  0
 33 83  1  0  0  0
 33 84  1  0  0  0
 34 85  1  0  0  0
 34 86  1  0  0  0
 34 87  1  0  0  0
 35 88  1  0  0  0
 36 40  1  0  0  0
 36 37  2  0  0  0
 37 38  1  0  0  0
 38 39  2  0  0  0
 38 89  1  0  0  0
 39 40  1  0  0  0
 39 90  1  0  0  0
 41 52  1  0  0  0
 41 42  1  0  0  0
 41 43  1  0  0  0
 42 91  1  0  0  0
 42 92  1  0  0  0
 42 93  1  0  0  0
 43 48  1  0  0  0
 43 44  2  0  0  0
 44 45  1  0  0  0
 44 94  1  0  0  0
 45 46  2  0  0  0
 45 95  1  0  0  0
 46 47  1  0  0  0
 46 96  1  0  0  0
 47 48  2  0  0  0
 47 97  1  0  0  0
 48 98  1  0  0  0
M  CHG  1  24   1
M  END
> <s_m_source_file>
BACE_7.smi

> <i_m_source_file_index>
1

> <i_lp_mmshare_version>
42013

> <i_f3d_flags>
0

> <s_epik_input>
W2NIXTFbY0hdW2NIXVtjSF1bY0hdYzFbQ0BASF0oW0NIM10pTihDMj1PKVtDSDJdW0NIMl1bQ0gyXVtDSDJdW0NIMl1bQ0BASF0oW0NIM10pW0NIMl1bQ0BIXShbTkhdQyg9TyljKFtjSF0zKVtjSF1jKFtjSF1jMjMpLWM0bltjSF1bY0hdbzQpW0NASF0oW09IXSlbQ0gyXVtOSF1bQ0gyXWM1W2NIXVtjSF1bY0hdYyhbY0hdNSlbQ0hdKFtDSDNdKVtDSDNd

> <s_epik_cmdline>
J2VwaWtfcHl0aG9uJywgJy1waCcsICc3LjAnLCAnLXRuJywgJzgnLCAnLW1hJywgJzIwMCcsICctaW1hZScsICc8aW5maWxlLm1hZT4nLCAnLW9tYWUnLCAnPG91dGZpbGUubWFlPic=

> <r_epik_Ionization_Penalty>
  0.0165

> <r_epik_Ionization_Penalty_Charging>
  0.0165

> <r_epik_Ionization_Penalty_Neutral>
  0.0000

> <r_epik_State_Penalty>
  0.0130

> <r_epik_Charging_Adjusted_Penalty>
0.0295552

> <i_epik_Tot_Q>
1

> <i_epik_Tot_abs_Q>
1

> <s_lp_Force_Field>
OPLS_2005

> <r_lp_Energy>
54.1327

> <b_lp_Chiralities_Consistent>
1

> <s_lp_Variant>
BACE_7.smi:1-1

> <chiral flag>
1

> <version>
0

> <r_i_glide_lipo>
-0.655821

> <r_i_glide_hbond>
-0.111534

> <r_i_glide_metal>
-0

> <r_i_glide_rewards>
0

> <r_i_glide_erotb>
0.24809

> <r_i_glide_esite>
-0.0271944

> <chiral flag>
1

> <s_i_glide_gridfile>
second_dock_grid_2

> <i_i_glide_lignum>
14

> <i_i_glide_rotatable_bonds>
10

> <r_i_docking_score>
-4.22165

> <r_i_glide_ligand_efficiency>
-0.0879511

> <r_i_glide_ligand_efficiency_sa>
-0.319636

> <r_i_glide_ligand_efficiency_ln>
-0.866656

> <r_glide_XP_GScore>
-4.23465

> <r_i_glide_gscore>
-4.23465

> <r_i_glide_evdw>
-53.8465

> <r_i_glide_ecoul>
-7.50824

> <r_i_glide_energy>
-61.3547

> <r_i_glide_einternal>
4.96884

> <r_i_glide_emodel>
-90.386

> <r_glide_XP_HBond>
-0.48

> <i_i_glide_confnum>
1

> <i_i_glide_posenum>
31

> <r_i_glide_eff_state_penalty>
0.013

> <i_glide_XP_PoseRank>
1

$$$$
BACE_7.smi:1
                    3D
 Structure written by MMmdl.
 99103  0  0  1  0            999 V2000
   17.8982   38.1534   -7.0044 C   0  0  0  0  0  0
   18.0493   38.6072   -8.4675 C   0  0  2  0  0  0
   17.0656   37.8731   -9.4073 C   0  0  0  0  0  0
   15.6375   38.4510   -9.3474 C   0  0  0  0  0  0
   15.4916   39.8044  -10.0750 C   0  0  0  0  0  0
   14.3406   40.6540   -9.5133 C   0  0  0  0  0  0
   14.1690   42.0289  -10.1847 C   0  0  0  0  0  0
   15.3528   42.9074  -10.0298 N   0  0  0  0  0  0
   15.4469   43.7084   -8.9379 C   0  0  0  0  0  0
   14.4692   44.2675   -8.4391 O   0  0  0  0  0  0
   16.8144   43.9038   -8.3353 C   0  0  0  0  0  0
   17.2280   45.1886   -7.9195 C   0  0  0  0  0  0
   18.5046   45.3756   -7.3468 C   0  0  0  0  0  0
   19.3771   44.2785   -7.2015 C   0  0  0  0  0  0
   18.9790   42.9883   -7.6055 C   0  0  0  0  0  0
   17.6815   42.8050   -8.1355 C   0  0  0  0  0  0
   19.9242   41.8344   -7.4239 C   0  0  0  0  0  0
   20.7371   41.8112   -6.5002 O   0  0  0  0  0  0
   19.8473   40.8854   -8.3663 N   0  0  0  0  0  0
   20.4752   39.5638   -8.3123 C   0  0  1  0  0  0
   19.5162   38.5433   -8.9751 C   0  0  0  0  0  0
   21.9005   39.5440   -8.9506 C   0  0  1  0  0  0
   22.1948   40.6515   -9.9975 C   0  0  0  0  0  0
   23.6074   40.6675  -10.4398 N   0  3  0  0  0  0
   24.4947   41.5881   -9.7022 C   0  0  0  0  0  0
   25.4886   42.2354  -10.6493 C   0  0  0  0  0  0
   25.0818   43.3238  -11.4481 C   0  0  0  0  0  0
   25.9920   43.9236  -12.3381 C   0  0  0  0  0  0
   27.3084   43.4336  -12.4352 C   0  0  0  0  0  0
   27.7264   42.3444  -11.6401 C   0  0  0  0  0  0
   26.8085   41.7502  -10.7474 C   0  0  0  0  0  0
   29.1550   41.8206  -11.7377 C   0  0  0  0  0  0
   30.1698   42.8537  -11.2233 C   0  0  0  0  0  0
   29.4960   41.3512  -13.1607 C   0  0  0  0  0  0
   22.8598   39.5792   -7.9122 O   0  0  0  0  0  0
   18.9467   46.6965   -6.9285 C   0  0  0  0  0  0
   18.2115   47.7742   -6.6494 N   0  0  0  0  0  0
   19.1370   48.7527   -6.3280 C   0  0  0  0  0  0
   20.3951   48.2157   -6.4158 C   0  0  0  0  0  0
   20.2872   46.9088   -6.7945 O   0  0  0  0  0  0
   16.0166   43.2882  -11.3033 C   0  0  2  0  0  0
   17.5567   43.1623  -11.2899 C   0  0  0  0  0  0
   15.4815   44.6114  -11.8802 C   0  0  0  0  0  0
   16.3385   45.6919  -12.2066 C   0  0  0  0  0  0
   15.8210   46.8720  -12.7743 C   0  0  0  0  0  0
   14.4432   46.9902  -13.0320 C   0  0  0  0  0  0
   13.5765   45.9349  -12.6968 C   0  0  0  0  0  0
   14.0941   44.7598  -12.1200 C   0  0  0  0  0  0
   17.7386   39.6438   -8.4727 H   0  0  0  0  0  0
   20.5625   39.2677   -7.2650 H   0  0  0  0  0  0
   22.0481   38.5759   -9.4320 H   0  0  0  0  0  0
   15.7370   42.5374  -12.0396 H   0  0  0  0  0  0
   18.0601   37.0809   -6.8954 H   0  0  0  0  0  0
   16.8932   38.3645   -6.6370 H   0  0  0  0  0  0
   18.5823   38.6683   -6.3328 H   0  0  0  0  0  0
   17.4102   37.9259  -10.4397 H   0  0  0  0  0  0
   17.0484   36.8119   -9.1561 H   0  0  0  0  0  0
   14.9371   37.7386   -9.7831 H   0  0  0  0  0  0
   15.3337   38.5459   -8.3033 H   0  0  0  0  0  0
   16.4128   40.3776  -10.0034 H   0  0  0  0  0  0
   15.3411   39.6281  -11.1396 H   0  0  0  0  0  0
   13.4100   40.0953   -9.6289 H   0  0  0  0  0  0
   14.4646   40.7946   -8.4381 H   0  0  0  0  0  0
   13.9158   41.8558  -11.2296 H   0  0  0  0  0  0
   13.2802   42.5062   -9.7667 H   0  0  0  0  0  0
   16.5664   46.0327   -8.0433 H   0  0  0  0  0  0
   20.3594   44.4202   -6.7727 H   0  0  0  0  0  0
   17.3383   41.8177   -8.4017 H   0  0  0  0  0  0
   19.1614   41.0261   -9.0934 H   0  0  0  0  0  0
   19.9020   37.5318   -8.8451 H   0  0  0  0  0  0
   19.5219   38.7277  -10.0507 H   0  0  0  0  0  0
   21.5697   40.4720  -10.8742 H   0  0  0  0  0  0
   21.9208   41.6468   -9.6414 H   0  0  0  0  0  0
   23.9935   39.7300  -10.3785 H   0  0  0  0  0  0
   23.9338   42.3834   -9.2081 H   0  0  0  0  0  0
   25.0109   41.0404   -8.9124 H   0  0  0  0  0  0
   24.0714   43.7020  -11.3838 H   0  0  0  0  0  0
   25.6797   44.7566  -12.9500 H   0  0  0  0  0  0
   27.9981   43.9046  -13.1192 H   0  0  0  0  0  0
   27.1214   40.9218  -10.1315 H   0  0  0  0  0  0
   29.2384   40.9506  -11.0870 H   0  0  0  0  0  0
   29.9519   43.1387  -10.1939 H   0  0  0  0  0  0
   30.1600   43.7591  -11.8300 H   0  0  0  0  0  0
   31.1820   42.4519  -11.2453 H   0  0  0  0  0  0
   28.8602   40.5207  -13.4614 H   0  0  0  0  0  0
   30.5246   41.0054  -13.2336 H   0  0  0  0  0  0
   29.3774   42.1484  -13.8946 H   0  0  0  0  0  0
   23.5464   38.9611   -8.1176 H   0  0  0  0  0  0
   18.8347   49.7504   -6.0407 H   0  0  0  0  0  0
   21.3921   48.5970   -6.2483 H   0  0  0  0  0  0
   17.9615   43.2457  -12.2982 H   0  0  0  0  0  0
   17.8697   42.1913  -10.9058 H   0  0  0  0  0  0
   18.0429   43.9294  -10.6891 H   0  0  0  0  0  0
   17.4034   45.6350  -12.0381 H   0  0  0  0  0  0
   16.4872   47.6840  -13.0286 H   0  0  0  0  0  0
   14.0529   47.8864  -13.4916 H   0  0  0  0  0  0
   12.5161   46.0186  -12.8971 H   0  0  0  0  0  0
   13.4086   43.9573  -11.8907 H   0  0  0  0  0  0
   23.6451   40.9474  -11.4165 H   0  0  0  0  0  0
  1  2  1  0  0  0
  1 53  1  0  0  0
  1 54  1  0  0  0
  1 55  1  0  0  0
  2 49  1  0  0  0
  2 21  1  0  0  0
  2  3  1  0  0  0
  3  4  1  0  0  0
  3 56  1  0  0  0
  3 57  1  0  0  0
  4  5  1  0  0  0
  4 58  1  0  0  0
  4 59  1  0  0  0
  5  6  1  0  0  0
  5 60  1  0  0  0
  5 61  1  0  0  0
  6  7  1  0  0  0
  6 62  1  0  0  0
  6 63  1  0  0  0
  7  8  1  0  0  0
  7 64  1  0  0  0
  7 65  1  0  0  0
  8  9  1  0  0  0
  8 41  1  0  0  0
  9 10  2  0  0  0
  9 11  1  0  0  0
 11 16  1  0  0  0
 11 12  2  0  0  0
 12 13  1  0  0  0
 12 66  1  0  0  0
 13 14  2  0  0  0
 13 36  1  0  0  0
 14 15  1  0  0  0
 14 67  1  0  0  0
 15 16  2  0  0  0
 15 17  1  0  0  0
 16 68  1  0  0  0
 17 18  2  0  0  0
 17 19  1  0  0  0
 19 20  1  0  0  0
 19 69  1  0  0  0
 20 50  1  0  0  0
 20 21  1  0  0  0
 20 22  1  0  0  0
 21 70  1  0  0  0
 21 71  1  0  0  0
 22 51  1  0  0  0
 22 23  1  0  0  0
 22 35  1  0  0  0
 23 24  1  0  0  0
 23 72  1  0  0  0
 23 73  1  0  0  0
 24 25  1  0  0  0
 24 74  1  0  0  0
 24 99  1  0  0  0
 25 26  1  0  0  0
 25 75  1  0  0  0
 25 76  1  0  0  0
 26 31  1  0  0  0
 26 27  2  0  0  0
 27 28  1  0  0  0
 27 77  1  0  0  0
 28 29  2  0  0  0
 28 78  1  0  0  0
 29 30  1  0  0  0
 29 79  1  0  0  0
 30 31  2  0  0  0
 30 32  1  0  0  0
 31 80  1  0  0  0
 32 33  1  0  0  0
 32 34  1  0  0  0
 32 81  1  0  0  0
 33 82  1  0  0  0
 33 83  1  0  0  0
 33 84  1  0  0  0
 34 85  1  0  0  0
 34 86  1  0  0  0
 34 87  1  0  0  0
 35 88  1  0  0  0
 36 40  1  0  0  0
 36 37  2  0  0  0
 37 38  1  0  0  0
 38 39  2  0  0  0
 38 89  1  0  0  0
 39 40  1  0  0  0
 39 90  1  0  0  0
 41 52  1  0  0  0
 41 42  1  0  0  0
 41 43  1  0  0  0
 42 91  1  0  0  0
 42 92  1  0  0  0
 42 93  1  0  0  0
 43 48  1  0  0  0
 43 44  2  0  0  0
 44 45  1  0  0  0
 44 94  1  0  0  0
 45 46  2  0  0  0
 45 95  1  0  0  0
 46 47  1  0  0  0
 46 96  1  0  0  0
 47 48  2  0  0  0
 47 97  1  0  0  0
 48 98  1  0  0  0
M  CHG  1  24   1
M  END
> <s_m_source_file>
BACE_7.smi

> <i_m_source_file_index>
1

> <i_lp_mmshare_version>
42013

> <i_f3d_flags>
0

> <s_epik_input>
W2NIXTFbY0hdW2NIXVtjSF1bY0hdYzFbQ0BASF0oW0NIM10pTihDMj1PKVtDSDJdW0NIMl1bQ0gyXVtDSDJdW0NIMl1bQ0BASF0oW0NIM10pW0NIMl1bQ0BIXShbTkhdQyg9TyljKFtjSF0zKVtjSF1jKFtjSF1jMjMpLWM0bltjSF1bY0hdbzQpW0NASF0oW09IXSlbQ0gyXVtOSF1bQ0gyXWM1W2NIXVtjSF1bY0hdYyhbY0hdNSlbQ0hdKFtDSDNdKVtDSDNd

> <s_epik_cmdline>
J2VwaWtfcHl0aG9uJywgJy1waCcsICc3LjAnLCAnLXRuJywgJzgnLCAnLW1hJywgJzIwMCcsICctaW1hZScsICc8aW5maWxlLm1hZT4nLCAnLW9tYWUnLCAnPG91dGZpbGUubWFlPic=

> <r_epik_Ionization_Penalty>
  0.0165

> <r_epik_Ionization_Penalty_Charging>
  0.0165

> <r_epik_Ionization_Penalty_Neutral>
  0.0000

> <r_epik_State_Penalty>
  0.0130

> <r_epik_Charging_Adjusted_Penalty>
0.0295552

> <i_epik_Tot_Q>
1

> <i_epik_Tot_abs_Q>
1

> <s_lp_Force_Field>
OPLS_2005

> <r_lp_Energy>
54.1327

> <b_lp_Chiralities_Consistent>
1

> <s_lp_Variant>
BACE_7.smi:1-1

> <chiral flag>
1

> <version>
0

> <r_i_glide_lipo>
-0.655821

> <r_i_glide_hbond>
-0.111534

> <r_i_glide_metal>
-0

> <r_i_glide_rewards>
0

> <r_i_glide_erotb>
0.24809

> <r_i_glide_esite>
-0.0271944

> <chiral flag>
1

> <s_i_glide_gridfile>
second_dock_grid_2

> <i_i_glide_lignum>
14

> <i_i_glide_rotatable_bonds>
10

> <r_i_docking_score>
-4.04894

> <r_i_glide_ligand_efficiency>
-0.0843528

> <r_i_glide_ligand_efficiency_sa>
-0.306559

> <r_i_glide_ligand_efficiency_ln>
-0.831199

> <r_glide_XP_GScore>
-4.06194

> <r_i_glide_gscore>
-4.06194

> <r_i_glide_evdw>
-52.8636

> <r_i_glide_ecoul>
-9.80012

> <r_i_glide_energy>
-62.6637

> <r_i_glide_einternal>
5.04322

> <r_i_glide_emodel>
-92.4963

> <r_glide_XP_HBond>
-0.48

> <i_i_glide_confnum>
1

> <i_i_glide_posenum>
18

> <r_i_glide_eff_state_penalty>
0.013

> <i_glide_XP_PoseRank>
2

$$$$
BACE_7.smi:1
                    3D
 Structure written by MMmdl.
 99103  0  0  1  0            999 V2000
   18.2758   38.4111   -6.4257 C   0  0  0  0  0  0
   18.3305   38.7362   -7.9274 C   0  0  2  0  0  0
   17.3853   37.8213   -8.7422 C   0  0  0  0  0  0
   15.9253   38.3123   -8.7262 C   0  0  0  0  0  0
   15.6829   39.5303   -9.6399 C   0  0  0  0  0  0
   14.4484   40.3440   -9.2209 C   0  0  0  0  0  0
   14.1874   41.5846  -10.0959 C   0  0  0  0  0  0
   15.2680   42.5876   -9.9812 N   0  0  0  0  0  0
   15.2744   43.4367   -8.9278 C   0  0  0  0  0  0
   14.2416   43.8672   -8.4135 O   0  0  0  0  0  0
   16.6139   43.8548   -8.3956 C   0  0  0  0  0  0
   16.8766   45.2123   -8.1241 C   0  0  0  0  0  0
   18.1260   45.6066   -7.6063 C   0  0  0  0  0  0
   19.1269   44.6389   -7.3673 C   0  0  0  0  0  0
   18.8834   43.2766   -7.6383 C   0  0  0  0  0  0
   17.6069   42.8916   -8.1060 C   0  0  0  0  0  0
   19.9582   42.2494   -7.3883 C   0  0  0  0  0  0
   20.8198   42.4258   -6.5303 O   0  0  0  0  0  0
   19.9314   41.1800   -8.2009 N   0  0  0  0  0  0
   20.6684   39.9258   -8.0121 C   0  0  1  0  0  0
   19.7749   38.7498   -8.4917 C   0  0  0  0  0  0
   22.0669   39.9143   -8.7180 C   0  0  1  0  0  0
   22.2835   40.9867   -9.8209 C   0  0  0  0  0  0
   23.6303   40.9497  -10.4358 N   0  3  0  0  0  0
   24.6520   41.7404   -9.7155 C   0  0  0  0  0  0
   25.6417   42.3449  -10.6873 C   0  0  0  0  0  0
   25.2603   43.4680  -11.4522 C   0  0  0  0  0  0
   26.1726   44.0486  -12.3507 C   0  0  0  0  0  0
   27.4689   43.5180  -12.4781 C   0  0  0  0  0  0
   27.8601   42.3966  -11.7192 C   0  0  0  0  0  0
   26.9388   41.8091  -10.8243 C   0  0  0  0  0  0
   29.2671   41.8300  -11.8530 C   0  0  0  0  0  0
   30.3251   42.8228  -11.3550 C   0  0  0  0  0  0
   29.5543   41.3617  -13.2899 C   0  0  0  0  0  0
   23.0687   40.0101   -7.7231 O   0  0  0  0  0  0
   18.3671   47.0123   -7.3119 C   0  0  0  0  0  0
   17.6726   48.0718   -7.7246 N   0  0  0  0  0  0
   18.3327   49.1666   -7.1891 C   0  0  0  0  0  0
   19.3834   48.7051   -6.4402 C   0  0  0  0  0  0
   19.4185   47.3418   -6.5102 O   0  0  0  0  0  0
   15.9520   42.9529  -11.2466 C   0  0  2  0  0  0
   17.4804   42.7260  -11.2520 C   0  0  0  0  0  0
   15.4966   44.3180  -11.7890 C   0  0  0  0  0  0
   16.4054   45.3718  -12.0493 C   0  0  0  0  0  0
   15.9500   46.5984  -12.5690 C   0  0  0  0  0  0
   14.5835   46.7895  -12.8402 C   0  0  0  0  0  0
   13.6644   45.7586  -12.5675 C   0  0  0  0  0  0
   14.1202   44.5355  -12.0402 C   0  0  0  0  0  0
   17.9297   39.7380   -8.0120 H   0  0  0  0  0  0
   20.8158   39.7838   -6.9385 H   0  0  0  0  0  0
   22.2175   38.9318   -9.1713 H   0  0  0  0  0  0
   15.6218   42.2466  -12.0010 H   0  0  0  0  0  0
   18.5602   37.3802   -6.2206 H   0  0  0  0  0  0
   17.2668   38.5493   -6.0388 H   0  0  0  0  0  0
   18.9270   39.0644   -5.8455 H   0  0  0  0  0  0
   17.7079   37.7522   -9.7811 H   0  0  0  0  0  0
   17.4344   36.8065   -8.3447 H   0  0  0  0  0  0
   15.2603   37.5061   -9.0340 H   0  0  0  0  0  0
   15.6402   38.5437   -7.6986 H   0  0  0  0  0  0
   16.5489   40.1865   -9.6294 H   0  0  0  0  0  0
   15.5812   39.1981  -10.6734 H   0  0  0  0  0  0
   13.5711   39.6971   -9.2541 H   0  0  0  0  0  0
   14.5465   40.6473   -8.1780 H   0  0  0  0  0  0
   14.0228   41.2510  -11.1208 H   0  0  0  0  0  0
   13.2330   42.0254   -9.8012 H   0  0  0  0  0  0
   16.1090   45.9508   -8.3120 H   0  0  0  0  0  0
   20.0876   44.9431   -6.9803 H   0  0  0  0  0  0
   17.3769   41.8500   -8.2675 H   0  0  0  0  0  0
   19.1945   41.1619   -8.8897 H   0  0  0  0  0  0
   20.2577   37.8008   -8.2539 H   0  0  0  0  0  0
   19.7259   38.7933   -9.5810 H   0  0  0  0  0  0
   21.5514   40.8121  -10.6132 H   0  0  0  0  0  0
   22.0856   41.9933   -9.4442 H   0  0  0  0  0  0
   23.9529   39.9928  -10.4956 H   0  0  0  0  0  0
   24.1996   42.5526   -9.1439 H   0  0  0  0  0  0
   25.1658   41.1026   -9.0002 H   0  0  0  0  0  0
   24.2675   43.8859  -11.3543 H   0  0  0  0  0  0
   25.8780   44.9041  -12.9389 H   0  0  0  0  0  0
   28.1602   43.9816  -13.1612 H   0  0  0  0  0  0
   27.2364   40.9509  -10.2334 H   0  0  0  0  0  0
   29.3340   40.9496  -11.2142 H   0  0  0  0  0  0
   30.1362   43.1110  -10.3216 H   0  0  0  0  0  0
   30.3365   43.7318  -11.9558 H   0  0  0  0  0  0
   31.3243   42.3884  -11.3981 H   0  0  0  0  0  0
   28.8612   40.5760  -13.5930 H   0  0  0  0  0  0
   30.5583   40.9547  -13.3859 H   0  0  0  0  0  0
   29.4698   42.1796  -14.0104 H   0  0  0  0  0  0
   23.7819   39.4250   -7.9494 H   0  0  0  0  0  0
   17.9983   50.1774   -7.3664 H   0  0  0  0  0  0
   20.1465   49.1809   -5.8395 H   0  0  0  0  0  0
   17.8760   42.7929  -12.2659 H   0  0  0  0  0  0
   17.7351   41.7339  -10.8791 H   0  0  0  0  0  0
   18.0216   43.4583  -10.6542 H   0  0  0  0  0  0
   17.4627   45.2584  -11.8639 H   0  0  0  0  0  0
   16.6554   47.3928  -12.7709 H   0  0  0  0  0  0
   14.2423   47.7241  -13.2612 H   0  0  0  0  0  0
   12.6143   45.9002  -12.7827 H   0  0  0  0  0  0
   13.4049   43.7455  -11.8543 H   0  0  0  0  0  0
   23.5776   41.3116  -11.3801 H   0  0  0  0  0  0
  1  2  1  0  0  0
  1 53  1  0  0  0
  1 54  1  0  0  0
  1 55  1  0  0  0
  2 49  1  0  0  0
  2 21  1  0  0  0
  2  3  1  0  0  0
  3  4  1  0  0  0
  3 56  1  0  0  0
  3 57  1  0  0  0
  4  5  1  0  0  0
  4 58  1  0  0  0
  4 59  1  0  0  0
  5  6  1  0  0  0
  5 60  1  0  0  0
  5 61  1  0  0  0
  6  7  1  0  0  0
  6 62  1  0  0  0
  6 63  1  0  0  0
  7  8  1  0  0  0
  7 64  1  0  0  0
  7 65  1  0  0  0
  8  9  1  0  0  0
  8 41  1  0  0  0
  9 10  2  0  0  0
  9 11  1  0  0  0
 11 16  1  0  0  0
 11 12  2  0  0  0
 12 13  1  0  0  0
 12 66  1  0  0  0
 13 14  2  0  0  0
 13 36  1  0  0  0
 14 15  1  0  0  0
 14 67  1  0  0  0
 15 16  2  0  0  0
 15 17  1  0  0  0
 16 68  1  0  0  0
 17 18  2  0  0  0
 17 19  1  0  0  0
 19 20  1  0  0  0
 19 69  1  0  0  0
 20 50  1  0  0  0
 20 21  1  0  0  0
 20 22  1  0  0  0
 21 70  1  0  0  0
 21 71  1  0  0  0
 22 51  1  0  0  0
 22 23  1  0  0  0
 22 35  1  0  0  0
 23 24  1  0  0  0
 23 72  1  0  0  0
 23 73  1  0  0  0
 24 25  1  0  0  0
 24 74  1  0  0  0
 24 99  1  0  0  0
 25 26  1  0  0  0
 25 75  1  0  0  0
 25 76  1  0  0  0
 26 31  1  0  0  0
 26 27  2  0  0  0
 27 28  1  0  0  0
 27 77  1  0  0  0
 28 29  2  0  0  0
 28 78  1  0  0  0
 29 30  1  0  0  0
 29 79  1  0  0  0
 30 31  2  0  0  0
 30 32  1  0  0  0
 31 80  1  0  0  0
 32 33  1  0  0  0
 32 34  1  0  0  0
 32 81  1  0  0  0
 33 82  1  0  0  0
 33 83  1  0  0  0
 33 84  1  0  0  0
 34 85  1  0  0  0
 34 86  1  0  0  0
 34 87  1  0  0  0
 35 88  1  0  0  0
 36 40  1  0  0  0
 36 37  2  0  0  0
 37 38  1  0  0  0
 38 39  2  0  0  0
 38 89  1  0  0  0
 39 40  1  0  0  0
 39 90  1  0  0  0
 41 52  1  0  0  0
 41 42  1  0  0  0
 41 43  1  0  0  0
 42 91  1  0  0  0
 42 92  1  0  0  0
 42 93  1  0  0  0
 43 48  1  0  0  0
 43 44  2  0  0  0
 44 45  1  0  0  0
 44 94  1  0  0  0
 45 46  2  0  0  0
 45 95  1  0  0  0
 46 47  1  0  0  0
 46 96  1  0  0  0
 47 48  2  0  0  0
 47 97  1  0  0  0
 48 98  1  0  0  0
M  CHG  1  24   1
M  END
> <s_m_source_file>
BACE_7.smi

> <i_m_source_file_index>
1

> <i_lp_mmshare_version>
42013

> <i_f3d_flags>
0

> <s_epik_input>
W2NIXTFbY0hdW2NIXVtjSF1bY0hdYzFbQ0BASF0oW0NIM10pTihDMj1PKVtDSDJdW0NIMl1bQ0gyXVtDSDJdW0NIMl1bQ0BASF0oW0NIM10pW0NIMl1bQ0BIXShbTkhdQyg9TyljKFtjSF0zKVtjSF1jKFtjSF1jMjMpLWM0bltjSF1bY0hdbzQpW0NASF0oW09IXSlbQ0gyXVtOSF1bQ0gyXWM1W2NIXVtjSF1bY0hdYyhbY0hdNSlbQ0hdKFtDSDNdKVtDSDNd

> <s_epik_cmdline>
J2VwaWtfcHl0aG9uJywgJy1waCcsICc3LjAnLCAnLXRuJywgJzgnLCAnLW1hJywgJzIwMCcsICctaW1hZScsICc8aW5maWxlLm1hZT4nLCAnLW9tYWUnLCAnPG91dGZpbGUubWFlPic=

> <r_epik_Ionization_Penalty>
  0.0165

> <r_epik_Ionization_Penalty_Charging>
  0.0165

> <r_epik_Ionization_Penalty_Neutral>
  0.0000

> <r_epik_State_Penalty>
  0.0130

> <r_epik_Charging_Adjusted_Penalty>
0.0295552

> <i_epik_Tot_Q>
1

> <i_epik_Tot_abs_Q>
1

> <s_lp_Force_Field>
OPLS_2005

> <r_lp_Energy>
54.1327

> <b_lp_Chiralities_Consistent>
1

> <s_lp_Variant>
BACE_7.smi:1-1

> <chiral flag>
1

> <version>
0

> <r_i_glide_lipo>
-0.655821

> <r_i_glide_hbond>
-0.111534

> <r_i_glide_metal>
-0

> <r_i_glide_rewards>
0

> <r_i_glide_erotb>
0.24809

> <r_i_glide_esite>
-0.0271944

> <chiral flag>
1

> <s_i_glide_gridfile>
second_dock_grid_2

> <i_i_glide_lignum>
14

> <i_i_glide_rotatable_bonds>
10

> <r_i_docking_score>
-3.84124

> <r_i_glide_ligand_efficiency>
-0.0800257

> <r_i_glide_ligand_efficiency_sa>
-0.290833

> <r_i_glide_ligand_efficiency_ln>
-0.78856

> <r_glide_XP_GScore>
-3.85424

> <r_i_glide_gscore>
-3.85424

> <r_i_glide_evdw>
-53.9406

> <r_i_glide_ecoul>
-7.37756

> <r_i_glide_energy>
-61.3182

> <r_i_glide_einternal>
4.41122

> <r_i_glide_emodel>
-87.8179

> <r_glide_XP_HBond>
-0.48

> <i_i_glide_confnum>
1

> <i_i_glide_posenum>
29

> <r_i_glide_eff_state_penalty>
0.013

> <i_glide_XP_PoseRank>
3

$$$$
BACE_7.smi:1
                    3D
 Structure written by MMmdl.
 99103  0  0  1  0            999 V2000
   18.1837   38.3914   -6.3902 C   0  0  0  0  0  0
   18.2937   38.7885   -7.8731 C   0  0  2  0  0  0
   17.4101   37.8880   -8.7699 C   0  0  0  0  0  0
   15.9356   38.3390   -8.7991 C   0  0  0  0  0  0
   15.7003   39.5988   -9.6582 C   0  0  0  0  0  0
   14.4598   40.3953   -9.2172 C   0  0  0  0  0  0
   14.1841   41.6579  -10.0563 C   0  0  0  0  0  0
   15.2598   42.6651   -9.9413 N   0  0  0  0  0  0
   15.2388   43.5504   -8.9124 C   0  0  0  0  0  0
   14.1962   44.0002   -8.4364 O   0  0  0  0  0  0
   16.5670   43.9845   -8.3630 C   0  0  0  0  0  0
   16.8255   45.3501   -8.1264 C   0  0  0  0  0  0
   18.0706   45.7575   -7.6030 C   0  0  0  0  0  0
   19.0652   44.7948   -7.3307 C   0  0  0  0  0  0
   18.8284   43.4231   -7.5708 C   0  0  0  0  0  0
   17.5541   43.0265   -8.0383 C   0  0  0  0  0  0
   19.9056   42.4044   -7.2951 C   0  0  0  0  0  0
   20.8090   42.6228   -6.4873 O   0  0  0  0  0  0
   19.8377   41.2854   -8.0317 N   0  0  0  0  0  0
   20.5828   40.0435   -7.8014 C   0  0  1  0  0  0
   19.7612   38.8618   -8.3764 C   0  0  0  0  0  0
   22.0307   40.1033   -8.3699 C   0  0  1  0  0  0
   22.1829   40.7902   -9.7543 C   0  0  0  0  0  0
   23.5836   40.8343  -10.2500 N   0  3  0  0  0  0
   24.4039   41.9226   -9.6772 C   0  0  0  0  0  0
   25.4080   42.4590  -10.6775 C   0  0  0  0  0  0
   25.0159   43.4736  -11.5766 C   0  0  0  0  0  0
   25.9554   44.0363  -12.4599 C   0  0  0  0  0  0
   27.2882   43.5872  -12.4501 C   0  0  0  0  0  0
   27.6899   42.5605  -11.5679 C   0  0  0  0  0  0
   26.7407   41.9937  -10.6890 C   0  0  0  0  0  0
   29.1448   42.1091  -11.5263 C   0  0  0  0  0  0
   30.0458   43.2023  -10.9337 C   0  0  0  0  0  0
   29.6534   41.6427  -12.9015 C   0  0  0  0  0  0
   22.8242   40.7419   -7.3934 O   0  0  0  0  0  0
   18.3183   47.1674   -7.3294 C   0  0  0  0  0  0
   17.6600   48.2329   -7.7915 N   0  0  0  0  0  0
   18.3127   49.3262   -7.2400 C   0  0  0  0  0  0
   19.3225   48.8599   -6.4416 C   0  0  0  0  0  0
   19.3369   47.4923   -6.4876 O   0  0  0  0  0  0
   15.9578   43.0087  -11.2063 C   0  0  2  0  0  0
   17.4878   42.7895  -11.1851 C   0  0  0  0  0  0
   15.5021   44.3623  -11.7753 C   0  0  0  0  0  0
   14.1291   44.5621  -12.0410 C   0  0  0  0  0  0
   13.6697   45.7813  -12.5770 C   0  0  0  0  0  0
   14.5810   46.8212  -12.8401 C   0  0  0  0  0  0
   15.9488   46.6396  -12.5593 C   0  0  0  0  0  0
   16.4099   45.4182  -12.0304 C   0  0  0  0  0  0
   17.8709   39.7862   -7.9316 H   0  0  0  0  0  0
   20.6429   39.8788   -6.7229 H   0  0  0  0  0  0
   22.4213   39.0843   -8.4419 H   0  0  0  0  0  0
   15.6378   42.2899  -11.9552 H   0  0  0  0  0  0
   18.4601   37.3505   -6.2243 H   0  0  0  0  0  0
   17.1598   38.5145   -6.0413 H   0  0  0  0  0  0
   18.8042   39.0134   -5.7477 H   0  0  0  0  0  0
   17.7801   37.8689   -9.7941 H   0  0  0  0  0  0
   17.4689   36.8586   -8.4159 H   0  0  0  0  0  0
   15.3172   37.5309   -9.1890 H   0  0  0  0  0  0
   15.5894   38.4989   -7.7779 H   0  0  0  0  0  0
   16.5656   40.2517   -9.6067 H   0  0  0  0  0  0
   15.6116   39.3111  -10.7063 H   0  0  0  0  0  0
   13.5890   39.7415   -9.2629 H   0  0  0  0  0  0
   14.5669   40.6772   -8.1677 H   0  0  0  0  0  0
   14.0016   41.3500  -11.0852 H   0  0  0  0  0  0
   13.2319   42.0854   -9.7364 H   0  0  0  0  0  0
   16.0644   46.0860   -8.3432 H   0  0  0  0  0  0
   20.0279   45.1068   -6.9456 H   0  0  0  0  0  0
   17.3223   41.9827   -8.1763 H   0  0  0  0  0  0
   19.0729   41.2274   -8.6884 H   0  0  0  0  0  0
   20.2636   37.9185   -8.1623 H   0  0  0  0  0  0
   19.7571   38.9537   -9.4621 H   0  0  0  0  0  0
   21.6068   40.2227  -10.4828 H   0  0  0  0  0  0
   21.7646   41.7960   -9.7609 H   0  0  0  0  0  0
   24.0425   39.9514  -10.0485 H   0  0  0  0  0  0
   23.7738   42.7553   -9.3584 H   0  0  0  0  0  0
   24.9084   41.5578   -8.7826 H   0  0  0  0  0  0
   23.9984   43.8393  -11.5822 H   0  0  0  0  0  0
   25.6552   44.8190  -13.1430 H   0  0  0  0  0  0
   28.0000   44.0400  -13.1209 H   0  0  0  0  0  0
   27.0437   41.2128  -10.0044 H   0  0  0  0  0  0
   29.2050   41.2578  -10.8497 H   0  0  0  0  0  0
   29.7078   43.4849   -9.9348 H   0  0  0  0  0  0
   30.0461   44.0997  -11.5525 H   0  0  0  0  0  0
   31.0772   42.8572  -10.8485 H   0  0  0  0  0  0
   29.0843   40.7829  -13.2631 H   0  0  0  0  0  0
   30.7026   41.3500  -12.8475 H   0  0  0  0  0  0
   29.5845   42.4290  -13.6560 H   0  0  0  0  0  0
   22.3124   41.4543   -7.0109 H   0  0  0  0  0  0
   18.0032   50.3390   -7.4523 H   0  0  0  0  0  0
   20.0633   49.3342   -5.8124 H   0  0  0  0  0  0
   17.8948   42.8353  -12.1953 H   0  0  0  0  0  0
   17.7459   41.8091  -10.7852 H   0  0  0  0  0  0
   18.0223   43.5356  -10.6003 H   0  0  0  0  0  0
   13.4180   43.7694  -11.8485 H   0  0  0  0  0  0
   12.6214   45.9147  -12.7975 H   0  0  0  0  0  0
   14.2385   47.7503  -13.2704 H   0  0  0  0  0  0
   16.6516   47.4376  -12.7583 H   0  0  0  0  0  0
   17.4645   45.3181  -11.8273 H   0  0  0  0  0  0
   23.5734   40.9557  -11.2583 H   0  0  0  0  0  0
  1  2  1  0  0  0
  1 53  1  0  0  0
  1 54  1  0  0  0
  1 55  1  0  0  0
  2 49  1  0  0  0
  2 21  1  0  0  0
  2  3  1  0  0  0
  3  4  1  0  0  0
  3 56  1  0  0  0
  3 57  1  0  0  0
  4  5  1  0  0  0
  4 58  1  0  0  0
  4 59  1  0  0  0
  5  6  1  0  0  0
  5 60  1  0  0  0
  5 61  1  0  0  0
  6  7  1  0  0  0
  6 62  1  0  0  0
  6 63  1  0  0  0
  7  8  1  0  0  0
  7 64  1  0  0  0
  7 65  1  0  0  0
  8  9  1  0  0  0
  8 41  1  0  0  0
  9 10  2  0  0  0
  9 11  1  0  0  0
 11 16  1  0  0  0
 11 12  2  0  0  0
 12 13  1  0  0  0
 12 66  1  0  0  0
 13 14  2  0  0  0
 13 36  1  0  0  0
 14 15  1  0  0  0
 14 67  1  0  0  0
 15 16  2  0  0  0
 15 17  1  0  0  0
 16 68  1  0  0  0
 17 18  2  0  0  0
 17 19  1  0  0  0
 19 20  1  0  0  0
 19 69  1  0  0  0
 20 50  1  0  0  0
 20 21  1  0  0  0
 20 22  1  0  0  0
 21 70  1  0  0  0
 21 71  1  0  0  0
 22 51  1  0  0  0
 22 23  1  0  0  0
 22 35  1  0  0  0
 23 24  1  0  0  0
 23 72  1  0  0  0
 23 73  1  0  0  0
 24 25  1  0  0  0
 24 74  1  0  0  0
 24 99  1  0  0  0
 25 26  1  0  0  0
 25 75  1  0  0  0
 25 76  1  0  0  0
 26 31  1  0  0  0
 26 27  2  0  0  0
 27 28  1  0  0  0
 27 77  1  0  0  0
 28 29  2  0  0  0
 28 78  1  0  0  0
 29 30  1  0  0  0
 29 79  1  0  0  0
 30 31  2  0  0  0
 30 32  1  0  0  0
 31 80  1  0  0  0
 32 33  1  0  0  0
 32 34  1  0  0  0
 32 81  1  0  0  0
 33 82  1  0  0  0
 33 83  1  0  0  0
 33 84  1  0  0  0
 34 85  1  0  0  0
 34 86  1  0  0  0
 34 87  1  0  0  0
 35 88  1  0  0  0
 36 40  1  0  0  0
 36 37  2  0  0  0
 37 38  1  0  0  0
 38 39  2  0  0  0
 38 89  1  0  0  0
 39 40  1  0  0  0
 39 90  1  0  0  0
 41 52  1  0  0  0
 41 42  1  0  0  0
 41 43  1  0  0  0
 42 91  1  0  0  0
 42 92  1  0  0  0
 42 93  1  0  0  0
 43 48  1  0  0  0
 43 44  2  0  0  0
 44 45  1  0  0  0
 44 94  1  0  0  0
 45 46  2  0  0  0
 45 95  1  0  0  0
 46 47  1  0  0  0
 46 96  1  0  0  0
 47 48  2  0  0  0
 47 97  1  0  0  0
 48 98  1  0  0  0
M  CHG  1  24   1
M  END
> <s_m_source_file>
BACE_7.smi

> <i_m_source_file_index>
1

> <i_lp_mmshare_version>
42013

> <i_f3d_flags>
0

> <s_epik_input>
W2NIXTFbY0hdW2NIXVtjSF1bY0hdYzFbQ0BASF0oW0NIM10pTihDMj1PKVtDSDJdW0NIMl1bQ0gyXVtDSDJdW0NIMl1bQ0BASF0oW0NIM10pW0NIMl1bQ0BIXShbTkhdQyg9TyljKFtjSF0zKVtjSF1jKFtjSF1jMjMpLWM0bltjSF1bY0hdbzQpW0NASF0oW09IXSlbQ0gyXVtOSF1bQ0gyXWM1W2NIXVtjSF1bY0hdYyhbY0hdNSlbQ0hdKFtDSDNdKVtDSDNd

> <s_epik_cmdline>
J2VwaWtfcHl0aG9uJywgJy1waCcsICc3LjAnLCAnLXRuJywgJzgnLCAnLW1hJywgJzIwMCcsICctaW1hZScsICc8aW5maWxlLm1hZT4nLCAnLW9tYWUnLCAnPG91dGZpbGUubWFlPic=

> <r_epik_Ionization_Penalty>
  0.0165

> <r_epik_Ionization_Penalty_Charging>
  0.0165

> <r_epik_Ionization_Penalty_Neutral>
  0.0000

> <r_epik_State_Penalty>
  0.0130

> <r_epik_Charging_Adjusted_Penalty>
0.0295552

> <i_epik_Tot_Q>
1

> <i_epik_Tot_abs_Q>
1

> <s_lp_Force_Field>
OPLS_2005

> <r_lp_Energy>
54.1327

> <b_lp_Chiralities_Consistent>
1

> <s_lp_Variant>
BACE_7.smi:1-1

> <chiral flag>
1

> <version>
0

> <r_i_glide_lipo>
-0.655821

> <r_i_glide_hbond>
-0.111534

> <r_i_glide_metal>
-0

> <r_i_glide_rewards>
0

> <r_i_glide_erotb>
0.24809

> <r_i_glide_esite>
-0.0271944

> <chiral flag>
1

> <s_i_glide_gridfile>
second_dock_grid_2

> <i_i_glide_lignum>
14

> <i_i_glide_rotatable_bonds>
10

> <r_i_docking_score>
-3.53437

> <r_i_glide_ligand_efficiency>
-0.0736327

> <r_i_glide_ligand_efficiency_sa>
-0.267599

> <r_i_glide_ligand_efficiency_ln>
-0.725564

> <r_glide_XP_GScore>
-3.54737

> <r_i_glide_gscore>
-3.54737

> <r_i_glide_evdw>
-53.3098

> <r_i_glide_ecoul>
-7.1704

> <r_i_glide_energy>
-60.4802

> <r_i_glide_einternal>
4.84846

> <r_i_glide_emodel>
-86.6477

> <r_glide_XP_HBond>
-0.48

> <i_i_glide_confnum>
1

> <i_i_glide_posenum>
34

> <r_i_glide_eff_state_penalty>
0.013

> <i_glide_XP_PoseRank>
4

$$$$
BACE_7.smi:1
                    3D
 Structure written by MMmdl.
 99103  0  0  1  0            999 V2000
   17.8666   38.1612   -7.0167 C   0  0  0  0  0  0
   17.9953   38.6696   -8.4614 C   0  0  2  0  0  0
   16.9902   37.9811   -9.4117 C   0  0  0  0  0  0
   15.5849   38.6125   -9.3541 C   0  0  0  0  0  0
   15.4838   39.9759  -10.0746 C   0  0  0  0  0  0
   14.3345   40.8375   -9.5232 C   0  0  0  0  0  0
   14.1687   42.2199  -10.1847 C   0  0  0  0  0  0
   15.3649   43.0777  -10.0372 N   0  0  0  0  0  0
   15.4911   43.8661   -8.9394 C   0  0  0  0  0  0
   14.5327   44.4353   -8.4132 O   0  0  0  0  0  0
   16.8669   44.0281   -8.3495 C   0  0  0  0  0  0
   17.3196   45.3009   -7.9438 C   0  0  0  0  0  0
   18.6144   45.4495   -7.4035 C   0  0  0  0  0  0
   19.4558   44.3320   -7.2556 C   0  0  0  0  0  0
   19.0171   43.0493   -7.6346 C   0  0  0  0  0  0
   17.7050   42.9022   -8.1524 C   0  0  0  0  0  0
   19.9288   41.8730   -7.4326 C   0  0  0  0  0  0
   20.7300   41.8387   -6.4983 O   0  0  0  0  0  0
   19.8387   40.9166   -8.3665 N   0  0  0  0  0  0
   20.4296   39.5793   -8.2930 C   0  0  1  0  0  0
   19.4555   38.5948   -8.9845 C   0  0  0  0  0  0
   21.8685   39.5156   -8.8856 C   0  0  1  0  0  0
   22.1464   40.4713  -10.0744 C   0  0  0  0  0  0
   23.5782   40.5547  -10.4400 N   0  3  0  0  0  0
   24.3367   41.6120   -9.7326 C   0  0  0  0  0  0
   25.5019   42.0960  -10.5670 C   0  0  0  0  0  0
   26.7347   41.4232  -10.5134 C   0  0  0  0  0  0
   27.8196   41.8805  -11.2804 C   0  0  0  0  0  0
   27.6781   43.0195  -12.0974 C   0  0  0  0  0  0
   26.4439   43.7064  -12.1677 C   0  0  0  0  0  0
   25.3567   43.2211  -11.4046 C   0  0  0  0  0  0
   26.2478   44.9424  -13.0495 C   0  0  0  0  0  0
   27.4988   45.3594  -13.8466 C   0  0  0  0  0  0
   25.7321   46.1441  -12.2371 C   0  0  0  0  0  0
   22.7982   39.7220   -7.8386 O   0  0  0  0  0  0
   19.1180   46.7402   -6.9912 C   0  0  0  0  0  0
   18.6941   47.5232   -5.9980 N   0  0  0  0  0  0
   19.6105   48.5641   -5.9746 C   0  0  0  0  0  0
   20.5234   48.3709   -6.9805 C   0  0  0  0  0  0
   20.2265   47.2111   -7.6285 O   0  0  0  0  0  0
   16.0556   43.4159  -11.3063 C   0  0  2  0  0  0
   17.5866   43.2026  -11.2948 C   0  0  0  0  0  0
   15.5930   44.7557  -11.9066 C   0  0  0  0  0  0
   16.5051   45.7966  -12.2061 C   0  0  0  0  0  0
   16.0614   46.9881  -12.8137 C   0  0  0  0  0  0
   14.7016   47.1580  -13.1318 C   0  0  0  0  0  0
   13.7792   46.1449  -12.8191 C   0  0  0  0  0  0
   14.2233   44.9533  -12.2059 C   0  0  0  0  0  0
   17.7012   39.7108   -8.4270 H   0  0  0  0  0  0
   20.4841   39.2792   -7.2467 H   0  0  0  0  0  0
   22.0582   38.4918   -9.2158 H   0  0  0  0  0  0
   15.7357   42.6813  -12.0399 H   0  0  0  0  0  0
   18.0598   37.0896   -6.9483 H   0  0  0  0  0  0
   16.8589   38.3368   -6.6352 H   0  0  0  0  0  0
   18.5407   38.6737   -6.3310 H   0  0  0  0  0  0
   17.3444   38.0260  -10.4401 H   0  0  0  0  0  0
   16.9287   36.9204   -9.1647 H   0  0  0  0  0  0
   14.8608   37.9291   -9.7967 H   0  0  0  0  0  0
   15.2842   38.7130   -8.3098 H   0  0  0  0  0  0
   16.4157   40.5278   -9.9763 H   0  0  0  0  0  0
   15.3509   39.8114  -11.1430 H   0  0  0  0  0  0
   13.4018   40.2830   -9.6393 H   0  0  0  0  0  0
   14.4645   40.9736   -8.4472 H   0  0  0  0  0  0
   13.8961   42.0689  -11.2270 H   0  0  0  0  0  0
   13.2936   42.7041   -9.7479 H   0  0  0  0  0  0
   16.6829   46.1645   -8.0632 H   0  0  0  0  0  0
   20.4447   44.4603   -6.8357 H   0  0  0  0  0  0
   17.3351   41.9223   -8.4066 H   0  0  0  0  0  0
   19.1606   41.0665   -9.0986 H   0  0  0  0  0  0
   19.8232   37.5719   -8.8877 H   0  0  0  0  0  0
   19.4594   38.8086  -10.0557 H   0  0  0  0  0  0
   21.6022   40.1052  -10.9455 H   0  0  0  0  0  0
   21.7722   41.4774   -9.8921 H   0  0  0  0  0  0
   24.0310   39.6584  -10.2811 H   0  0  0  0  0  0
   23.6976   42.4692   -9.5102 H   0  0  0  0  0  0
   24.7002   41.2410   -8.7735 H   0  0  0  0  0  0
   26.8628   40.5529   -9.8864 H   0  0  0  0  0  0
   28.7615   41.3538  -11.2426 H   0  0  0  0  0  0
   28.5387   43.3390  -12.6637 H   0  0  0  0  0  0
   24.4013   43.7213  -11.4578 H   0  0  0  0  0  0
   25.4766   44.6743  -13.7757 H   0  0  0  0  0  0
   27.8617   44.5502  -14.4792 H   0  0  0  0  0  0
   28.3095   45.6572  -13.1820 H   0  0  0  0  0  0
   27.2805   46.2079  -14.4961 H   0  0  0  0  0  0
   24.7656   45.9428  -11.7725 H   0  0  0  0  0  0
   25.6023   47.0212  -12.8724 H   0  0  0  0  0  0
   26.4316   46.4133  -11.4437 H   0  0  0  0  0  0
   23.5256   39.1261   -7.9545 H   0  0  0  0  0  0
   19.5563   49.3503   -5.2429 H   0  0  0  0  0  0
   21.3933   48.9135   -7.3236 H   0  0  0  0  0  0
   17.9909   43.2660  -12.3041 H   0  0  0  0  0  0
   17.8437   42.2146  -10.9129 H   0  0  0  0  0  0
   18.1117   43.9416  -10.6931 H   0  0  0  0  0  0
   17.5579   45.6986  -11.9897 H   0  0  0  0  0  0
   16.7709   47.7669  -13.0496 H   0  0  0  0  0  0
   14.3695   48.0661  -13.6157 H   0  0  0  0  0  0
   12.7361   46.2676  -13.0664 H   0  0  0  0  0  0
   13.5003   44.1810  -11.9923 H   0  0  0  0  0  0
   23.6489   40.7648  -11.4306 H   0  0  0  0  0  0
  1  2  1  0  0  0
  1 53  1  0  0  0
  1 54  1  0  0  0
  1 55  1  0  0  0
  2 49  1  0  0  0
  2 21  1  0  0  0
  2  3  1  0  0  0
  3  4  1  0  0  0
  3 56  1  0  0  0
  3 57  1  0  0  0
  4  5  1  0  0  0
  4 58  1  0  0  0
  4 59  1  0  0  0
  5  6  1  0  0  0
  5 60  1  0  0  0
  5 61  1  0  0  0
  6  7  1  0  0  0
  6 62  1  0  0  0
  6 63  1  0  0  0
  7  8  1  0  0  0
  7 64  1  0  0  0
  7 65  1  0  0  0
  8  9  1  0  0  0
  8 41  1  0  0  0
  9 10  2  0  0  0
  9 11  1  0  0  0
 11 16  1  0  0  0
 11 12  2  0  0  0
 12 13  1  0  0  0
 12 66  1  0  0  0
 13 14  2  0  0  0
 13 36  1  0  0  0
 14 15  1  0  0  0
 14 67  1  0  0  0
 15 16  2  0  0  0
 15 17  1  0  0  0
 16 68  1  0  0  0
 17 18  2  0  0  0
 17 19  1  0  0  0
 19 20  1  0  0  0
 19 69  1  0  0  0
 20 50  1  0  0  0
 20 21  1  0  0  0
 20 22  1  0  0  0
 21 70  1  0  0  0
 21 71  1  0  0  0
 22 51  1  0  0  0
 22 23  1  0  0  0
 22 35  1  0  0  0
 23 24  1  0  0  0
 23 72  1  0  0  0
 23 73  1  0  0  0
 24 25  1  0  0  0
 24 74  1  0  0  0
 24 99  1  0  0  0
 25 26  1  0  0  0
 25 75  1  0  0  0
 25 76  1  0  0  0
 26 31  1  0  0  0
 26 27  2  0  0  0
 27 28  1  0  0  0
 27 77  1  0  0  0
 28 29  2  0  0  0
 28 78  1  0  0  0
 29 30  1  0  0  0
 29 79  1  0  0  0
 30 31  2  0  0  0
 30 32  1  0  0  0
 31 80  1  0  0  0
 32 33  1  0  0  0
 32 34  1  0  0  0
 32 81  1  0  0  0
 33 82  1  0  0  0
 33 83  1  0  0  0
 33 84  1  0  0  0
 34 85  1  0  0  0
 34 86  1  0  0  0
 34 87  1  0  0  0
 35 88  1  0  0  0
 36 40  1  0  0  0
 36 37  2  0  0  0
 37 38  1  0  0  0
 38 39  2  0  0  0
 38 89  1  0  0  0
 39 40  1  0  0  0
 39 90  1  0  0  0
 41 52  1  0  0  0
 41 42  1  0  0  0
 41 43  1  0  0  0
 42 91  1  0  0  0
 42 92  1  0  0  0
 42 93  1  0  0  0
 43 48  1  0  0  0
 43 44  2  0  0  0
 44 45  1  0  0  0
 44 94  1  0  0  0
 45 46  2  0  0  0
 45 95  1  0  0  0
 46 47  1  0  0  0
 46 96  1  0  0  0
 47 48  2  0  0  0
 47 97  1  0  0  0
 48 98  1  0  0  0
M  CHG  1  24   1
M  END
> <s_m_source_file>
BACE_7.smi

> <i_m_source_file_index>
1

> <i_lp_mmshare_version>
42013

> <i_f3d_flags>
0

> <s_epik_input>
W2NIXTFbY0hdW2NIXVtjSF1bY0hdYzFbQ0BASF0oW0NIM10pTihDMj1PKVtDSDJdW0NIMl1bQ0gyXVtDSDJdW0NIMl1bQ0BASF0oW0NIM10pW0NIMl1bQ0BIXShbTkhdQyg9TyljKFtjSF0zKVtjSF1jKFtjSF1jMjMpLWM0bltjSF1bY0hdbzQpW0NASF0oW09IXSlbQ0gyXVtOSF1bQ0gyXWM1W2NIXVtjSF1bY0hdYyhbY0hdNSlbQ0hdKFtDSDNdKVtDSDNd

> <s_epik_cmdline>
J2VwaWtfcHl0aG9uJywgJy1waCcsICc3LjAnLCAnLXRuJywgJzgnLCAnLW1hJywgJzIwMCcsICctaW1hZScsICc8aW5maWxlLm1hZT4nLCAnLW9tYWUnLCAnPG91dGZpbGUubWFlPic=

> <r_epik_Ionization_Penalty>
  0.0165

> <r_epik_Ionization_Penalty_Charging>
  0.0165

> <r_epik_Ionization_Penalty_Neutral>
  0.0000

> <r_epik_State_Penalty>
  0.0130

> <r_epik_Charging_Adjusted_Penalty>
0.0295552

> <i_epik_Tot_Q>
1

> <i_epik_Tot_abs_Q>
1

> <s_lp_Force_Field>
OPLS_2005

> <r_lp_Energy>
54.1327

> <b_lp_Chiralities_Consistent>
1

> <s_lp_Variant>
BACE_7.smi:1-1

> <chiral flag>
1

> <version>
0

> <r_i_glide_lipo>
-0.655821

> <r_i_glide_hbond>
-0.111534

> <r_i_glide_metal>
-0

> <r_i_glide_rewards>
0

> <r_i_glide_erotb>
0.24809

> <r_i_glide_esite>
-0.0271944

> <chiral flag>
1

> <s_i_glide_gridfile>
second_dock_grid_2

> <i_i_glide_lignum>
14

> <i_i_glide_rotatable_bonds>
10

> <r_i_docking_score>
-2.425

> <r_i_glide_ligand_efficiency>
-0.0505208

> <r_i_glide_ligand_efficiency_sa>
-0.183605

> <r_i_glide_ligand_efficiency_ln>
-0.497823

> <r_glide_XP_GScore>
-2.438

> <r_i_glide_gscore>
-2.438

> <r_i_glide_evdw>
-50.2075

> <r_i_glide_ecoul>
-11.4788

> <r_i_glide_energy>
-61.6863

> <r_i_glide_einternal>
6.14835

> <r_i_glide_emodel>
-90.0892

> <r_glide_XP_HBond>
-0.48

> <i_i_glide_confnum>
1

> <i_i_glide_posenum>
6

> <r_i_glide_eff_state_penalty>
0.013

> <i_glide_XP_PoseRank>
5

$$$$
BACE_7.smi:1
                    3D
 Structure written by MMmdl.
 99103  0  0  1  0            999 V2000
   17.9175   38.2125   -7.0058 C   0  0  0  0  0  0
   18.0632   38.7078   -8.4544 C   0  0  2  0  0  0
   17.1166   37.9559   -9.4187 C   0  0  0  0  0  0
   15.6726   38.4913   -9.3849 C   0  0  0  0  0  0
   15.4986   39.8504  -10.0989 C   0  0  0  0  0  0
   14.3170   40.6549   -9.5364 C   0  0  0  0  0  0
   14.0785   42.0257  -10.1952 C   0  0  0  0  0  0
   15.2319   42.9411  -10.0453 N   0  0  0  0  0  0
   15.3040   43.7443   -8.9541 C   0  0  0  0  0  0
   14.3100   44.2640   -8.4386 O   0  0  0  0  0  0
   16.6643   43.9840   -8.3605 C   0  0  0  0  0  0
   17.0368   45.2813   -7.9590 C   0  0  0  0  0  0
   18.2907   45.5058   -7.3520 C   0  0  0  0  0  0
   19.1952   44.4376   -7.1861 C   0  0  0  0  0  0
   18.8495   43.1378   -7.5996 C   0  0  0  0  0  0
   17.5601   42.9118   -8.1409 C   0  0  0  0  0  0
   19.8330   42.0134   -7.4184 C   0  0  0  0  0  0
   20.6567   42.0265   -6.5054 O   0  0  0  0  0  0
   19.7833   41.0536   -8.3526 N   0  0  0  0  0  0
   20.4606   39.7548   -8.2966 C   0  0  1  0  0  0
   19.5352   38.6950   -8.9495 C   0  0  0  0  0  0
   21.8779   39.7712   -8.9578 C   0  0  1  0  0  0
   22.1520   40.9286   -9.9534 C   0  0  0  0  0  0
   23.5513   40.9485  -10.4391 N   0  3  0  0  0  0
   24.4439   41.8820   -9.7196 C   0  0  0  0  0  0
   25.5494   42.3761  -10.6293 C   0  0  0  0  0  0
   26.7427   41.6412  -10.7658 C   0  0  0  0  0  0
   27.7751   42.1232  -11.5924 C   0  0  0  0  0  0
   27.6200   43.3418  -12.2821 C   0  0  0  0  0  0
   26.4230   44.0864  -12.1602 C   0  0  0  0  0  0
   25.3896   43.5863  -11.3375 C   0  0  0  0  0  0
   26.2063   45.4235  -12.8732 C   0  0  0  0  0  0
   27.2325   45.7405  -13.9752 C   0  0  0  0  0  0
   26.1329   46.5814  -11.8636 C   0  0  0  0  0  0
   22.8604   39.7519   -7.9430 O   0  0  0  0  0  0
   18.6717   46.8383   -6.9134 C   0  0  0  0  0  0
   19.6494   47.1807   -6.0768 N   0  0  0  0  0  0
   19.6192   48.5638   -6.0344 C   0  0  0  0  0  0
   18.5970   48.9895   -6.8407 C   0  0  0  0  0  0
   17.9771   47.9055   -7.3958 O   0  0  0  0  0  0
   15.9150   43.3107  -11.3074 C   0  0  2  0  0  0
   17.4529   43.1609  -11.2863 C   0  0  0  0  0  0
   15.4028   44.6369  -11.9001 C   0  0  0  0  0  0
   16.2746   45.7120  -12.1998 C   0  0  0  0  0  0
   15.7808   46.8917  -12.7950 C   0  0  0  0  0  0
   14.4127   47.0133  -13.0989 C   0  0  0  0  0  0
   13.5310   45.9634  -12.7824 C   0  0  0  0  0  0
   14.0237   44.7879  -12.1830 C   0  0  0  0  0  0
   17.7198   39.7357   -8.4418 H   0  0  0  0  0  0
   20.5653   39.4728   -7.2455 H   0  0  0  0  0  0
   22.0148   38.8290   -9.4923 H   0  0  0  0  0  0
   15.6280   42.5627  -12.0372 H   0  0  0  0  0  0
   18.0603   37.1354   -6.9296 H   0  0  0  0  0  0
   16.9219   38.4368   -6.6215 H   0  0  0  0  0  0
   18.6224   38.6996   -6.3325 H   0  0  0  0  0  0
   17.4824   38.0275  -10.4421 H   0  0  0  0  0  0
   17.1244   36.8923   -9.1778 H   0  0  0  0  0  0
   15.0044   37.7641   -9.8471 H   0  0  0  0  0  0
   15.3479   38.5611   -8.3454 H   0  0  0  0  0  0
   16.4009   40.4490  -10.0019 H   0  0  0  0  0  0
   15.3700   39.6866  -11.1702 H   0  0  0  0  0  0
   13.4082   40.0603   -9.6421 H   0  0  0  0  0  0
   14.4601   40.7983   -8.4641 H   0  0  0  0  0  0
   13.8131   41.8642  -11.2396 H   0  0  0  0  0  0
   13.1809   42.4643   -9.7539 H   0  0  0  0  0  0
   16.3486   46.1017   -8.1008 H   0  0  0  0  0  0
   20.1618   44.6186   -6.7352 H   0  0  0  0  0  0
   17.2526   41.9117   -8.4034 H   0  0  0  0  0  0
   19.0837   41.1623   -9.0712 H   0  0  0  0  0  0
   19.9557   37.6981   -8.8066 H   0  0  0  0  0  0
   19.5425   38.8705  -10.0271 H   0  0  0  0  0  0
   21.4964   40.8036  -10.8161 H   0  0  0  0  0  0
   21.9046   41.8992   -9.5250 H   0  0  0  0  0  0
   23.9437   40.0186  -10.3867 H   0  0  0  0  0  0
   23.8980   42.7538   -9.3576 H   0  0  0  0  0  0
   24.8603   41.3896   -8.8413 H   0  0  0  0  0  0
   26.8675   40.7072  -10.2370 H   0  0  0  0  0  0
   28.6894   41.5606  -11.6954 H   0  0  0  0  0  0
   28.4401   43.6836  -12.8977 H   0  0  0  0  0  0
   24.4726   44.1497  -11.2342 H   0  0  0  0  0  0
   25.2346   45.3499  -13.3612 H   0  0  0  0  0  0
   27.2662   44.9515  -14.7252 H   0  0  0  0  0  0
   28.2359   45.8708  -13.5681 H   0  0  0  0  0  0
   26.9724   46.6655  -14.4888 H   0  0  0  0  0  0
   25.3308   46.4350  -11.1393 H   0  0  0  0  0  0
   25.9443   47.5314  -12.3662 H   0  0  0  0  0  0
   27.0672   46.6799  -11.3073 H   0  0  0  0  0  0
   23.4742   39.0525   -8.1285 H   0  0  0  0  0  0
   20.3157   49.1324   -5.4391 H   0  0  0  0  0  0
   18.2092   49.9614   -7.1061 H   0  0  0  0  0  0
   17.8621   43.2386  -12.2942 H   0  0  0  0  0  0
   17.7473   42.1850  -10.8990 H   0  0  0  0  0  0
   17.9489   43.9221  -10.6836 H   0  0  0  0  0  0
   17.3307   45.6529  -11.9928 H   0  0  0  0  0  0
   16.4598   47.6977  -13.0315 H   0  0  0  0  0  0
   14.0416   47.9084  -13.5775 H   0  0  0  0  0  0
   12.4785   46.0524  -13.0178 H   0  0  0  0  0  0
   13.3310   43.9899  -11.9694 H   0  0  0  0  0  0
   23.5553   41.2199  -11.4186 H   0  0  0  0  0  0
  1  2  1  0  0  0
  1 53  1  0  0  0
  1 54  1  0  0  0
  1 55  1  0  0  0
  2 49  1  0  0  0
  2 21  1  0  0  0
  2  3  1  0  0  0
  3  4  1  0  0  0
  3 56  1  0  0  0
  3 57  1  0  0  0
  4  5  1  0  0  0
  4 58  1  0  0  0
  4 59  1  0  0  0
  5  6  1  0  0  0
  5 60  1  0  0  0
  5 61  1  0  0  0
  6  7  1  0  0  0
  6 62  1  0  0  0
  6 63  1  0  0  0
  7  8  1  0  0  0
  7 64  1  0  0  0
  7 65  1  0  0  0
  8  9  1  0  0  0
  8 41  1  0  0  0
  9 10  2  0  0  0
  9 11  1  0  0  0
 11 16  1  0  0  0
 11 12  2  0  0  0
 12 13  1  0  0  0
 12 66  1  0  0  0
 13 14  2  0  0  0
 13 36  1  0  0  0
 14 15  1  0  0  0
 14 67  1  0  0  0
 15 16  2  0  0  0
 15 17  1  0  0  0
 16 68  1  0  0  0
 17 18  2  0  0  0
 17 19  1  0  0  0
 19 20  1  0  0  0
 19 69  1  0  0  0
 20 50  1  0  0  0
 20 21  1  0  0  0
 20 22  1  0  0  0
 21 70  1  0  0  0
 21 71  1  0  0  0
 22 51  1  0  0  0
 22 23  1  0  0  0
 22 35  1  0  0  0
 23 24  1  0  0  0
 23 72  1  0  0  0
 23 73  1  0  0  0
 24 25  1  0  0  0
 24 74  1  0  0  0
 24 99  1  0  0  0
 25 26  1  0  0  0
 25 75  1  0  0  0
 25 76  1  0  0  0
 26 31  1  0  0  0
 26 27  2  0  0  0
 27 28  1  0  0  0
 27 77  1  0  0  0
 28 29  2  0  0  0
 28 78  1  0  0  0
 29 30  1  0  0  0
 29 79  1  0  0  0
 30 31  2  0  0  0
 30 32  1  0  0  0
 31 80  1  0  0  0
 32 33  1  0  0  0
 32 34  1  0  0  0
 32 81  1  0  0  0
 33 82  1  0  0  0
 33 83  1  0  0  0
 33 84  1  0  0  0
 34 85  1  0  0  0
 34 86  1  0  0  0
 34 87  1  0  0  0
 35 88  1  0  0  0
 36 40  1  0  0  0
 36 37  2  0  0  0
 37 38  1  0  0  0
 38 39  2  0  0  0
 38 89  1  0  0  0
 39 40  1  0  0  0
 39 90  1  0  0  0
 41 52  1  0  0  0
 41 42  1  0  0  0
 41 43  1  0  0  0
 42 91  1  0  0  0
 42 92  1  0  0  0
 42 93  1  0  0  0
 43 48  1  0  0  0
 43 44  2  0  0  0
 44 45  1  0  0  0
 44 94  1  0  0  0
 45 46  2  0  0  0
 45 95  1  0  0  0
 46 47  1  0  0  0
 46 96  1  0  0  0
 47 48  2  0  0  0
 47 97  1  0  0  0
 48 98  1  0  0  0
M  CHG  1  24   1
M  END
> <s_m_source_file>
BACE_7.smi

> <i_m_source_file_index>
1

> <i_lp_mmshare_version>
42013

> <i_f3d_flags>
0

> <s_epik_input>
W2NIXTFbY0hdW2NIXVtjSF1bY0hdYzFbQ0BASF0oW0NIM10pTihDMj1PKVtDSDJdW0NIMl1bQ0gyXVtDSDJdW0NIMl1bQ0BASF0oW0NIM10pW0NIMl1bQ0BIXShbTkhdQyg9TyljKFtjSF0zKVtjSF1jKFtjSF1jMjMpLWM0bltjSF1bY0hdbzQpW0NASF0oW09IXSlbQ0gyXVtOSF1bQ0gyXWM1W2NIXVtjSF1bY0hdYyhbY0hdNSlbQ0hdKFtDSDNdKVtDSDNd

> <s_epik_cmdline>
J2VwaWtfcHl0aG9uJywgJy1waCcsICc3LjAnLCAnLXRuJywgJzgnLCAnLW1hJywgJzIwMCcsICctaW1hZScsICc8aW5maWxlLm1hZT4nLCAnLW9tYWUnLCAnPG91dGZpbGUubWFlPic=

> <r_epik_Ionization_Penalty>
  0.0165

> <r_epik_Ionization_Penalty_Charging>
  0.0165

> <r_epik_Ionization_Penalty_Neutral>
  0.0000

> <r_epik_State_Penalty>
  0.0130

> <r_epik_Charging_Adjusted_Penalty>
0.0295552

> <i_epik_Tot_Q>
1

> <i_epik_Tot_abs_Q>
1

> <s_lp_Force_Field>
OPLS_2005

> <r_lp_Energy>
54.1327

> <b_lp_Chiralities_Consistent>
1

> <s_lp_Variant>
BACE_7.smi:1-1

> <chiral flag>
1

> <version>
0

> <r_i_glide_lipo>
-0.655821

> <r_i_glide_hbond>
-0.111534

> <r_i_glide_metal>
-0

> <r_i_glide_rewards>
0

> <r_i_glide_erotb>
0.24809

> <r_i_glide_esite>
-0.0271944

> <chiral flag>
1

> <s_i_glide_gridfile>
second_dock_grid_2

> <i_i_glide_lignum>
14

> <i_i_glide_rotatable_bonds>
10

> <r_i_docking_score>
-2.36159

> <r_i_glide_ligand_efficiency>
-0.0491999

> <r_i_glide_ligand_efficiency_sa>
-0.178804

> <r_i_glide_ligand_efficiency_ln>
-0.484807

> <r_glide_XP_GScore>
-2.37459

> <r_i_glide_gscore>
-2.37459

> <r_i_glide_evdw>
-51.4256

> <r_i_glide_ecoul>
-8.44784

> <r_i_glide_energy>
-59.8734

> <r_i_glide_einternal>
4.49598

> <r_i_glide_emodel>
-89.0564

> <r_glide_XP_HBond>
-0.48

> <i_i_glide_confnum>
1

> <i_i_glide_posenum>
7

> <r_i_glide_eff_state_penalty>
0.013

> <i_glide_XP_PoseRank>
6

$$$$
BACE_7.smi:1
                    3D
 Structure written by MMmdl.
 99103  0  0  1  0            999 V2000
   18.0651   38.3780   -6.7424 C   0  0  0  0  0  0
   18.1927   38.7301   -8.2340 C   0  0  2  0  0  0
   17.2842   37.8468   -9.1252 C   0  0  0  0  0  0
   15.8094   38.3008   -9.1273 C   0  0  0  0  0  0
   15.5623   39.5944   -9.9336 C   0  0  0  0  0  0
   14.3432   40.3839   -9.4277 C   0  0  0  0  0  0
   14.0783   41.7023  -10.1841 C   0  0  0  0  0  0
   15.1783   42.6805  -10.0238 N   0  0  0  0  0  0
   15.1926   43.4912   -8.9400 C   0  0  0  0  0  0
   14.1650   43.9303   -8.4197 O   0  0  0  0  0  0
   16.5353   43.8591   -8.3774 C   0  0  0  0  0  0
   16.8159   45.1971   -8.0404 C   0  0  0  0  0  0
   18.0640   45.5450   -7.4807 C   0  0  0  0  0  0
   19.0442   44.5492   -7.2767 C   0  0  0  0  0  0
   18.7843   43.2049   -7.6180 C   0  0  0  0  0  0
   17.5075   42.8657   -8.1253 C   0  0  0  0  0  0
   19.8361   42.1531   -7.3886 C   0  0  0  0  0  0
   20.6519   42.2584   -6.4782 O   0  0  0  0  0  0
   19.8359   41.1413   -8.2732 N   0  0  0  0  0  0
   20.5505   39.8696   -8.1303 C   0  0  1  0  0  0
   19.6680   38.7391   -8.7202 C   0  0  0  0  0  0
   21.9719   39.8965   -8.7766 C   0  0  1  0  0  0
   22.1664   40.8932   -9.9507 C   0  0  0  0  0  0
   23.5658   40.9487  -10.4391 N   0  3  0  0  0  0
   24.3883   42.0101   -9.8148 C   0  0  0  0  0  0
   25.6247   42.2869  -10.6394 C   0  0  0  0  0  0
   26.7682   41.4835  -10.4871 C   0  0  0  0  0  0
   27.9227   41.7574  -11.2457 C   0  0  0  0  0  0
   27.9433   42.8475  -12.1390 C   0  0  0  0  0  0
   26.7999   43.6674  -12.3013 C   0  0  0  0  0  0
   25.6393   43.3615  -11.5555 C   0  0  0  0  0  0
   26.7824   44.8597  -13.2643 C   0  0  0  0  0  0
   28.1260   45.1266  -13.9683 C   0  0  0  0  0  0
   26.3023   46.1523  -12.5755 C   0  0  0  0  0  0
   22.9249   40.1335   -7.7601 O   0  0  0  0  0  0
   18.3217   46.9239   -7.0977 C   0  0  0  0  0  0
   17.6640   48.0199   -7.4735 N   0  0  0  0  0  0
   18.3216   49.0630   -6.8403 C   0  0  0  0  0  0
   19.3265   48.5359   -6.0740 C   0  0  0  0  0  0
   19.3376   47.1778   -6.2278 O   0  0  0  0  0  0
   15.8695   43.0900  -11.2708 C   0  0  2  0  0  0
   17.4023   42.8902  -11.2700 C   0  0  0  0  0  0
   15.3967   44.4562  -11.7929 C   0  0  0  0  0  0
   16.2946   45.5212  -12.0373 C   0  0  0  0  0  0
   15.8328   46.7473  -12.5558 C   0  0  0  0  0  0
   14.4664   46.9270  -12.8404 C   0  0  0  0  0  0
   13.5586   45.8814  -12.5817 C   0  0  0  0  0  0
   14.0205   44.6609  -12.0541 C   0  0  0  0  0  0
   17.8082   39.7368   -8.3265 H   0  0  0  0  0  0
   20.6584   39.6512   -7.0661 H   0  0  0  0  0  0
   22.2035   38.8953   -9.1443 H   0  0  0  0  0  0
   15.5592   42.3917  -12.0393 H   0  0  0  0  0  0
   18.3673   37.3505   -6.5430 H   0  0  0  0  0  0
   17.0354   38.4956   -6.4022 H   0  0  0  0  0  0
   18.6708   39.0323   -6.1182 H   0  0  0  0  0  0
   17.6396   37.8417  -10.1565 H   0  0  0  0  0  0
   17.3472   36.8103   -8.7870 H   0  0  0  0  0  0
   15.1838   37.5109   -9.5405 H   0  0  0  0  0  0
   15.4733   38.4262   -8.0965 H   0  0  0  0  0  0
   16.4357   40.2405   -9.8924 H   0  0  0  0  0  0
   15.4385   39.3490  -10.9881 H   0  0  0  0  0  0
   13.4592   39.7485   -9.5000 H   0  0  0  0  0  0
   14.4631   40.6014   -8.3652 H   0  0  0  0  0  0
   13.8750   41.4687  -11.2277 H   0  0  0  0  0  0
   13.1413   42.1262   -9.8195 H   0  0  0  0  0  0
   16.0629   45.9557   -8.1951 H   0  0  0  0  0  0
   20.0041   44.8148   -6.8527 H   0  0  0  0  0  0
   17.2645   41.8380   -8.3406 H   0  0  0  0  0  0
   19.1397   41.1812   -9.0011 H   0  0  0  0  0  0
   20.1197   37.7683   -8.5067 H   0  0  0  0  0  0
   19.6782   38.8373   -9.8081 H   0  0  0  0  0  0
   21.5383   40.5686  -10.7806 H   0  0  0  0  0  0
   21.8346   41.8993   -9.6938 H   0  0  0  0  0  0
   24.0137   40.0580  -10.2783 H   0  0  0  0  0  0
   23.8165   42.9358   -9.7237 H   0  0  0  0  0  0
   24.6808   41.7182   -8.8046 H   0  0  0  0  0  0
   26.7668   40.6484   -9.8033 H   0  0  0  0  0  0
   28.7971   41.1323  -11.1403 H   0  0  0  0  0  0
   28.8527   43.0279  -12.6905 H   0  0  0  0  0  0
   24.7509   43.9637  -11.6746 H   0  0  0  0  0  0
   26.0549   44.6073  -14.0381 H   0  0  0  0  0  0
   28.4612   44.2645  -14.5399 H   0  0  0  0  0  0
   28.9057   45.3791  -13.2496 H   0  0  0  0  0  0
   28.0436   45.9599  -14.6667 H   0  0  0  0  0  0
   25.2873   46.0650  -12.1923 H   0  0  0  0  0  0
   26.3041   46.9896  -13.2724 H   0  0  0  0  0  0
   26.9531   46.4145  -11.7417 H   0  0  0  0  0  0
   23.4905   39.3743   -7.6950 H   0  0  0  0  0  0
   18.0178   50.0897   -6.9763 H   0  0  0  0  0  0
   20.0679   48.9622   -5.4138 H   0  0  0  0  0  0
   17.8004   42.9836  -12.2812 H   0  0  0  0  0  0
   17.6741   41.8965  -10.9137 H   0  0  0  0  0  0
   17.9288   43.6202  -10.6581 H   0  0  0  0  0  0
   17.3526   45.4198  -11.8420 H   0  0  0  0  0  0
   16.5333   47.5497  -12.7421 H   0  0  0  0  0  0
   14.1206   47.8608  -13.2552 H   0  0  0  0  0  0
   12.5093   46.0126  -12.8074 H   0  0  0  0  0  0
   13.3113   43.8652  -11.8765 H   0  0  0  0  0  0
   23.5642   41.1124  -11.4407 H   0  0  0  0  0  0
  1  2  1  0  0  0
  1 53  1  0  0  0
  1 54  1  0  0  0
  1 55  1  0  0  0
  2 49  1  0  0  0
  2 21  1  0  0  0
  2  3  1  0  0  0
  3  4  1  0  0  0
  3 56  1  0  0  0
  3 57  1  0  0  0
  4  5  1  0  0  0
  4 58  1  0  0  0
  4 59  1  0  0  0
  5  6  1  0  0  0
  5 60  1  0  0  0
  5 61  1  0  0  0
  6  7  1  0  0  0
  6 62  1  0  0  0
  6 63  1  0  0  0
  7  8  1  0  0  0
  7 64  1  0  0  0
  7 65  1  0  0  0
  8  9  1  0  0  0
  8 41  1  0  0  0
  9 10  2  0  0  0
  9 11  1  0  0  0
 11 16  1  0  0  0
 11 12  2  0  0  0
 12 13  1  0  0  0
 12 66  1  0  0  0
 13 14  2  0  0  0
 13 36  1  0  0  0
 14 15  1  0  0  0
 14 67  1  0  0  0
 15 16  2  0  0  0
 15 17  1  0  0  0
 16 68  1  0  0  0
 17 18  2  0  0  0
 17 19  1  0  0  0
 19 20  1  0  0  0
 19 69  1  0  0  0
 20 50  1  0  0  0
 20 21  1  0  0  0
 20 22  1  0  0  0
 21 70  1  0  0  0
 21 71  1  0  0  0
 22 51  1  0  0  0
 22 23  1  0  0  0
 22 35  1  0  0  0
 23 24  1  0  0  0
 23 72  1  0  0  0
 23 73  1  0  0  0
 24 25  1  0  0  0
 24 74  1  0  0  0
 24 99  1  0  0  0
 25 26  1  0  0  0
 25 75  1  0  0  0
 25 76  1  0  0  0
 26 31  1  0  0  0
 26 27  2  0  0  0
 27 28  1  0  0  0
 27 77  1  0  0  0
 28 29  2  0  0  0
 28 78  1  0  0  0
 29 30  1  0  0  0
 29 79  1  0  0  0
 30 31  2  0  0  0
 30 32  1  0  0  0
 31 80  1  0  0  0
 32 33  1  0  0  0
 32 34  1  0  0  0
 32 81  1  0  0  0
 33 82  1  0  0  0
 33 83  1  0  0  0
 33 84  1  0  0  0
 34 85  1  0  0  0
 34 86  1  0  0  0
 34 87  1  0  0  0
 35 88  1  0  0  0
 36 40  1  0  0  0
 36 37  2  0  0  0
 37 38  1  0  0  0
 38 39  2  0  0  0
 38 89  1  0  0  0
 39 40  1  0  0  0
 39 90  1  0  0  0
 41 52  1  0  0  0
 41 42  1  0  0  0
 41 43  1  0  0  0
 42 91  1  0  0  0
 42 92  1  0  0  0
 42 93  1  0  0  0
 43 48  1  0  0  0
 43 44  2  0  0  0
 44 45  1  0  0  0
 44 94  1  0  0  0
 45 46  2  0  0  0
 45 95  1  0  0  0
 46 47  1  0  0  0
 46 96  1  0  0  0
 47 48  2  0  0  0
 47 97  1  0  0  0
 48 98  1  0  0  0
M  CHG  1  24   1
M  END
> <s_m_source_file>
BACE_7.smi

> <i_m_source_file_index>
1

> <i_lp_mmshare_version>
42013

> <i_f3d_flags>
0

> <s_epik_input>
W2NIXTFbY0hdW2NIXVtjSF1bY0hdYzFbQ0BASF0oW0NIM10pTihDMj1PKVtDSDJdW0NIMl1bQ0gyXVtDSDJdW0NIMl1bQ0BASF0oW0NIM10pW0NIMl1bQ0BIXShbTkhdQyg9TyljKFtjSF0zKVtjSF1jKFtjSF1jMjMpLWM0bltjSF1bY0hdbzQpW0NASF0oW09IXSlbQ0gyXVtOSF1bQ0gyXWM1W2NIXVtjSF1bY0hdYyhbY0hdNSlbQ0hdKFtDSDNdKVtDSDNd

> <s_epik_cmdline>
J2VwaWtfcHl0aG9uJywgJy1waCcsICc3LjAnLCAnLXRuJywgJzgnLCAnLW1hJywgJzIwMCcsICctaW1hZScsICc8aW5maWxlLm1hZT4nLCAnLW9tYWUnLCAnPG91dGZpbGUubWFlPic=

> <r_epik_Ionization_Penalty>
  0.0165

> <r_epik_Ionization_Penalty_Charging>
  0.0165

> <r_epik_Ionization_Penalty_Neutral>
  0.0000

> <r_epik_State_Penalty>
  0.0130

> <r_epik_Charging_Adjusted_Penalty>
0.0295552

> <i_epik_Tot_Q>
1

> <i_epik_Tot_abs_Q>
1

> <s_lp_Force_Field>
OPLS_2005

> <r_lp_Energy>
54.1327

> <b_lp_Chiralities_Consistent>
1

> <s_lp_Variant>
BACE_7.smi:1-1

> <chiral flag>
1

> <version>
0

> <r_i_glide_lipo>
-0.655821

> <r_i_glide_hbond>
-0.111534

> <r_i_glide_metal>
-0

> <r_i_glide_rewards>
0

> <r_i_glide_erotb>
0.24809

> <r_i_glide_esite>
-0.0271944

> <chiral flag>
1

> <s_i_glide_gridfile>
second_dock_grid_2

> <i_i_glide_lignum>
14

> <i_i_glide_rotatable_bonds>
10

> <r_i_docking_score>
-1.64937

> <r_i_glide_ligand_efficiency>
-0.0343619

> <r_i_glide_ligand_efficiency_sa>
-0.12488

> <r_i_glide_ligand_efficiency_ln>
-0.338597

> <r_glide_XP_GScore>
-1.66237

> <r_i_glide_gscore>
-1.66237

> <r_i_glide_evdw>
-51.8583

> <r_i_glide_ecoul>
-7.25088

> <r_i_glide_energy>
-59.1092

> <r_i_glide_einternal>
3.69961

> <r_i_glide_emodel>
-87.4246

> <r_glide_XP_HBond>
-0.48

> <i_i_glide_confnum>
1

> <i_i_glide_posenum>
13

> <r_i_glide_eff_state_penalty>
0.013

> <i_glide_XP_PoseRank>
7

$$$$
