BACE_4.smi:1
                    3D
 Structure written by MMmdl.
 90 92  0  0  1  0            999 V2000
   19.1332   39.8872  -11.0263 C   0  0  0  0  0  0
   20.1612   39.4652   -9.9492 C   0  0  2  0  0  0
   19.7331   38.1948   -9.1694 C   0  0  0  0  0  0
   18.2218   37.9343   -8.9769 C   0  0  0  0  0  0
   17.4829   38.9529   -8.0944 C   0  0  0  0  0  0
   15.9596   38.7465   -8.1525 C   0  0  0  0  0  0
   15.1493   39.7681   -7.3397 C   0  0  0  0  0  0
   15.2719   41.2094   -7.8554 C   0  0  0  0  0  0
   14.8294   41.2886   -9.2051 O   0  0  0  0  0  0
   14.7480   42.6100   -9.7262 C   0  0  0  0  0  0
   16.1059   43.0470  -10.3083 C   0  0  0  0  0  0
   16.4402   42.5461  -11.3858 O   0  0  0  0  0  0
   16.8742   43.9659   -9.6640 N   0  0  0  0  0  0
   18.1741   44.3851  -10.2467 C   0  0  2  0  0  0
   19.3515   43.7634   -9.4763 C   0  0  0  0  0  0
   19.7012   44.2168   -8.3856 O   0  0  0  0  0  0
   19.9579   42.7221  -10.0667 N   0  0  0  0  0  0
   21.0911   41.9619   -9.5395 C   0  0  1  0  0  0
   20.6336   40.5857   -8.9792 C   0  0  0  0  0  0
   22.2793   42.0188  -10.5446 C   0  0  1  0  0  0
   23.6529   41.7048   -9.8950 C   0  0  0  0  0  0
   24.8023   41.7501  -10.8399 N   0  3  0  0  0  0
   25.4383   43.0398  -11.2543 C   0  0  0  0  0  0
   24.5785   43.7962  -12.2545 C   0  0  0  0  0  0
   24.7543   44.3360  -10.8485 C   0  0  0  0  0  0
   26.9333   42.9441  -11.5027 C   0  0  0  0  0  0
   27.6917   41.8074  -11.1360 C   0  0  0  0  0  0
   29.0706   41.7501  -11.4069 C   0  0  0  0  0  0
   29.7225   42.8123  -12.0496 C   0  0  0  0  0  0
   29.0014   43.9692  -12.4214 C   0  0  0  0  0  0
   27.6162   44.0130  -12.1326 C   0  0  0  0  0  0
   29.6691   45.1612  -13.1337 C   0  0  0  0  0  0
   29.4749   46.4453  -12.3019 C   0  0  0  0  0  0
   31.1886   44.9659  -13.3395 C   0  0  0  0  0  0
   29.0331   45.3504  -14.5247 C   0  0  0  0  0  0
   22.0599   41.1482  -11.6396 O   0  0  0  0  0  0
   18.2941   45.9261  -10.2891 C   0  0  0  0  0  0
   16.4759   44.5579   -8.3737 C   0  0  0  0  0  0
   21.0527   39.1535  -10.4935 H   0  0  0  0  0  0
   18.2621   44.0700  -11.2878 H   0  0  0  0  0  0
   21.4507   42.5074   -8.6646 H   0  0  0  0  0  0
   22.2824   43.0336  -10.9330 H   0  0  0  0  0  0
   18.8430   39.0331  -11.6391 H   0  0  0  0  0  0
   19.5353   40.6288  -11.7141 H   0  0  0  0  0  0
   18.2276   40.3077  -10.5905 H   0  0  0  0  0  0
   20.1283   37.3499   -9.7256 H   0  0  0  0  0  0
   20.2350   38.1509   -8.2026 H   0  0  0  0  0  0
   18.0952   36.9465   -8.5314 H   0  0  0  0  0  0
   17.7361   37.8668   -9.9497 H   0  0  0  0  0  0
   17.8349   38.8760   -7.0643 H   0  0  0  0  0  0
   17.7173   39.9609   -8.4265 H   0  0  0  0  0  0
   15.7206   37.7500   -7.7844 H   0  0  0  0  0  0
   15.6232   38.7693   -9.1894 H   0  0  0  0  0  0
   14.0975   39.4772   -7.3575 H   0  0  0  0  0  0
   15.4534   39.7271   -6.2915 H   0  0  0  0  0  0
   16.2988   41.5613   -7.7627 H   0  0  0  0  0  0
   14.6507   41.8571   -7.2403 H   0  0  0  0  0  0
   14.3172   43.3075   -9.0097 H   0  0  0  0  0  0
   14.0397   42.5780  -10.5542 H   0  0  0  0  0  0
   19.5867   42.4013  -10.9501 H   0  0  0  0  0  0
   21.4557   40.1840   -8.3844 H   0  0  0  0  0  0
   19.8405   40.7763   -8.2564 H   0  0  0  0  0  0
   23.6179   40.6905   -9.4938 H   0  0  0  0  0  0
   23.8497   42.3528   -9.0408 H   0  0  0  0  0  0
   24.5433   41.2477  -11.6875 H   0  0  0  0  0  0
   25.0578   44.3560  -13.0530 H   0  0  0  0  0  0
   23.6179   43.3799  -12.5429 H   0  0  0  0  0  0
   23.8832   44.3359  -10.2018 H   0  0  0  0  0  0
   25.3826   45.2161  -10.7333 H   0  0  0  0  0  0
   27.2472   40.9523  -10.6503 H   0  0  0  0  0  0
   29.6309   40.8662  -11.1369 H   0  0  0  0  0  0
   30.7788   42.7075  -12.2456 H   0  0  0  0  0  0
   27.0691   44.8978  -12.4148 H   0  0  0  0  0  0
   28.4243   46.7087  -12.1860 H   0  0  0  0  0  0
   29.9660   47.2986  -12.7710 H   0  0  0  0  0  0
   29.8969   46.3362  -11.3031 H   0  0  0  0  0  0
   31.4064   44.0963  -13.9599 H   0  0  0  0  0  0
   31.7113   44.8463  -12.3902 H   0  0  0  0  0  0
   31.6324   45.8288  -13.8369 H   0  0  0  0  0  0
   29.1582   44.4577  -15.1368 H   0  0  0  0  0  0
   29.4892   46.1832  -15.0606 H   0  0  0  0  0  0
   27.9641   45.5566  -14.4629 H   0  0  0  0  0  0
   22.7143   41.2614  -12.3176 H   0  0  0  0  0  0
   19.1929   46.2239  -10.8293 H   0  0  0  0  0  0
   18.3563   46.3837   -9.3024 H   0  0  0  0  0  0
   17.4451   46.3679  -10.8095 H   0  0  0  0  0  0
   17.2918   45.0819   -7.8789 H   0  0  0  0  0  0
   16.1426   43.8128   -7.6540 H   0  0  0  0  0  0
   15.6731   45.2790   -8.5190 H   0  0  0  0  0  0
   25.5326   41.2145  -10.3952 H   0  0  0  0  0  0
  1  2  1  0  0  0
  1 43  1  0  0  0
  1 44  1  0  0  0
  1 45  1  0  0  0
  2 39  1  0  0  0
  2 19  1  0  0  0
  2  3  1  0  0  0
  3  4  1  0  0  0
  3 46  1  0  0  0
  3 47  1  0  0  0
  4  5  1  0  0  0
  4 48  1  0  0  0
  4 49  1  0  0  0
  5  6  1  0  0  0
  5 50  1  0  0  0
  5 51  1  0  0  0
  6  7  1  0  0  0
  6 52  1  0  0  0
  6 53  1  0  0  0
  7  8  1  0  0  0
  7 54  1  0  0  0
  7 55  1  0  0  0
  8  9  1  0  0  0
  8 56  1  0  0  0
  8 57  1  0  0  0
  9 10  1  0  0  0
 10 11  1  0  0  0
 10 58  1  0  0  0
 10 59  1  0  0  0
 11 12  2  0  0  0
 11 13  1  0  0  0
 13 14  1  0  0  0
 13 38  1  0  0  0
 14 40  1  0  0  0
 14 15  1  0  0  0
 14 37  1  0  0  0
 15 16  2  0  0  0
 15 17  1  0  0  0
 17 18  1  0  0  0
 17 60  1  0  0  0
 18 41  1  0  0  0
 18 19  1  0  0  0
 18 20  1  0  0  0
 19 61  1  0  0  0
 19 62  1  0  0  0
 20 42  1  0  0  0
 20 21  1  0  0  0
 20 36  1  0  0  0
 21 22  1  0  0  0
 21 63  1  0  0  0
 21 64  1  0  0  0
 22 23  1  0  0  0
 22 65  1  0  0  0
 22 90  1  0  0  0
 23 25  1  0  0  0
 23 24  1  0  0  0
 23 26  1  0  0  0
 24 25  1  0  0  0
 24 66  1  0  0  0
 24 67  1  0  0  0
 25 68  1  0  0  0
 25 69  1  0  0  0
 26 31  1  0  0  0
 26 27  2  0  0  0
 27 28  1  0  0  0
 27 70  1  0  0  0
 28 29  2  0  0  0
 28 71  1  0  0  0
 29 30  1  0  0  0
 29 72  1  0  0  0
 30 31  2  0  0  0
 30 32  1  0  0  0
 31 73  1  0  0  0
 32 33  1  0  0  0
 32 34  1  0  0  0
 32 35  1  0  0  0
 33 74  1  0  0  0
 33 75  1  0  0  0
 33 76  1  0  0  0
 34 77  1  0  0  0
 34 78  1  0  0  0
 34 79  1  0  0  0
 35 80  1  0  0  0
 35 81  1  0  0  0
 35 82  1  0  0  0
 36 83  1  0  0  0
 37 84  1  0  0  0
 37 85  1  0  0  0
 37 86  1  0  0  0
 38 87  1  0  0  0
 38 88  1  0  0  0
 38 89  1  0  0  0
M  CHG  1  22   1
M  END
> <s_m_source_file>
BACE_4.smi

> <i_m_source_file_index>
1

> <i_lp_mmshare_version>
42013

> <i_f3d_flags>
0

> <s_epik_input>
W0NIM11bQ0BASF0xW0NIMl1bQ0gyXVtDSDJdW0NIMl1bQ0gyXVtDSDJdT1tDSDJdQyg9TylOKFtDSDNdKVtDQEBIXShbQ0gzXSlDKD1PKVtOSF1bQ0BASF0oW0NIMl0xKVtDQEhdKFtPSF0pW0NIMl1bTkhdQzIoW0NIMl1bQ0gyXTIpYzNbY0hdW2NIXVtjSF1jKFtjSF0zKUMoW0NIM10pKFtDSDNdKVtDSDNd

> <s_epik_cmdline>
J2VwaWtfcHl0aG9uJywgJy1waCcsICc3LjAnLCAnLXRuJywgJzgnLCAnLW1hJywgJzIwMCcsICctaW1hZScsICc8aW5maWxlLm1hZT4nLCAnLW9tYWUnLCAnPG91dGZpbGUubWFlPic=

> <r_epik_Ionization_Penalty>
  0.4928

> <r_epik_Ionization_Penalty_Charging>
  0.4928

> <r_epik_Ionization_Penalty_Neutral>
  0.0000

> <r_epik_State_Penalty>
  0.4987

> <r_epik_Charging_Adjusted_Penalty>
0.991533

> <i_epik_Tot_Q>
1

> <i_epik_Tot_abs_Q>
1

> <s_lp_Force_Field>
OPLS_2005

> <r_lp_Energy>
51.5247

> <b_lp_Chiralities_Consistent>
1

> <s_lp_Variant>
BACE_4.smi:1-2

> <chiral flag>
1

> <version>
0

> <r_i_glide_lipo>
-1.16373

> <r_i_glide_hbond>
-0.400214

> <r_i_glide_metal>
-0

> <r_i_glide_rewards>
-0.00554154

> <r_i_glide_erotb>
0.365907

> <r_i_glide_esite>
-0.000889564

> <chiral flag>
1

> <s_i_glide_gridfile>
second_dock_grid_2

> <i_i_glide_lignum>
7

> <i_i_glide_rotatable_bonds>
7

> <r_i_docking_score>
-4.45366

> <r_i_glide_ligand_efficiency>
-0.117202

> <r_i_glide_ligand_efficiency_sa>
-0.394029

> <r_i_glide_ligand_efficiency_ln>
-0.96034

> <r_glide_XP_GScore>
-4.95236

> <r_i_glide_gscore>
-4.95236

> <r_i_glide_evdw>
-33.0926

> <r_i_glide_ecoul>
-13.2659

> <r_i_glide_energy>
-46.3585

> <r_i_glide_einternal>
5.77999

> <r_i_glide_emodel>
-62.7775

> <r_glide_XP_HBond>
-1.03231

> <i_i_glide_confnum>
1

> <i_i_glide_posenum>
5

> <r_i_glide_eff_state_penalty>
0.4987

> <i_glide_XP_PoseRank>
1

$$$$
BACE_4.smi:1
                    3D
 Structure written by MMmdl.
 90 92  0  0  1  0            999 V2000
   12.3293   44.0566   -9.1011 C   0  0  0  0  0  0
   13.5107   44.1465  -10.0846 C   0  0  2  0  0  0
   12.9973   44.5629  -11.4818 C   0  0  0  0  0  0
   14.0817   45.0603  -12.4549 C   0  0  0  0  0  0
   14.6836   46.4223  -12.0858 C   0  0  0  0  0  0
   15.7243   46.9075  -13.0985 C   0  0  0  0  0  0
   16.3787   48.2483  -12.7222 C   0  0  0  0  0  0
   17.3865   48.1246  -11.5728 C   0  0  0  0  0  0
   18.4939   47.3663  -12.0346 O   0  0  0  0  0  0
   19.3794   46.9274  -11.0112 C   0  0  0  0  0  0
   18.8057   45.6778  -10.3176 C   0  0  0  0  0  0
   18.6150   44.6789  -11.0169 O   0  0  0  0  0  0
   18.5483   45.6834   -8.9824 N   0  0  0  0  0  0
   18.1940   44.4078   -8.3120 C   0  0  2  0  0  0
   16.6786   44.1511   -8.3604 C   0  0  0  0  0  0
   15.8793   45.0290   -8.0400 O   0  0  0  0  0  0
   16.3314   42.9159   -8.7521 N   0  0  0  0  0  0
   15.0039   42.3106   -8.8576 C   0  0  1  0  0  0
   14.2927   42.8027  -10.1564 C   0  0  0  0  0  0
   15.2221   40.7668   -8.8371 C   0  0  1  0  0  0
   15.6589   40.1982   -7.4641 C   0  0  0  0  0  0
   15.8910   38.7331   -7.5214 N   0  3  0  0  0  0
   17.0159   38.2676   -8.3729 C   0  0  0  0  0  0
   16.9297   36.7943   -8.7258 C   0  0  0  0  0  0
   16.5850   37.8321   -9.7573 C   0  0  0  0  0  0
   18.3558   38.9073   -8.1129 C   0  0  0  0  0  0
   18.9496   38.8027   -6.8388 C   0  0  0  0  0  0
   20.2283   39.3448   -6.6065 C   0  0  0  0  0  0
   20.9399   39.9635   -7.6524 C   0  0  0  0  0  0
   20.3757   40.0704   -8.9446 C   0  0  0  0  0  0
   19.0664   39.5692   -9.1415 C   0  0  0  0  0  0
   21.1521   40.6709  -10.1329 C   0  0  0  0  0  0
   21.1928   39.6559  -11.2946 C   0  0  0  0  0  0
   20.4646   41.9631  -10.6086 C   0  0  0  0  0  0
   22.6184   41.0195   -9.7843 C   0  0  0  0  0  0
   14.0600   40.0586   -9.2394 O   0  0  0  0  0  0
   18.6562   44.3583   -6.8371 C   0  0  0  0  0  0
   18.5474   46.9275   -8.1971 C   0  0  0  0  0  0
   14.1589   44.9438   -9.7321 H   0  0  0  0  0  0
   18.7041   43.5831   -8.8061 H   0  0  0  0  0  0
   14.4171   42.5780   -7.9785 H   0  0  0  0  0  0
   15.9852   40.5348   -9.5804 H   0  0  0  0  0  0
   11.7122   44.9538   -9.1288 H   0  0  0  0  0  0
   12.6654   43.9398   -8.0722 H   0  0  0  0  0  0
   11.6800   43.2117   -9.3352 H   0  0  0  0  0  0
   12.4705   43.7216  -11.9321 H   0  0  0  0  0  0
   12.2514   45.3491  -11.3855 H   0  0  0  0  0  0
   13.6232   45.1409  -13.4407 H   0  0  0  0  0  0
   14.8739   44.3195  -12.5592 H   0  0  0  0  0  0
   13.8845   47.1559  -12.0398 H   0  0  0  0  0  0
   15.1417   46.3637  -11.1006 H   0  0  0  0  0  0
   15.2268   47.0332  -14.0551 H   0  0  0  0  0  0
   16.4932   46.1476  -13.2395 H   0  0  0  0  0  0
   16.8929   48.6582  -13.5939 H   0  0  0  0  0  0
   15.6117   48.9724  -12.4575 H   0  0  0  0  0  0
   16.9082   47.6681  -10.7066 H   0  0  0  0  0  0
   17.7315   49.1126  -11.2656 H   0  0  0  0  0  0
   19.6509   47.7438  -10.3417 H   0  0  0  0  0  0
   20.3086   46.6235  -11.4954 H   0  0  0  0  0  0
   17.1028   42.3120   -8.9885 H   0  0  0  0  0  0
   15.0411   42.8395  -10.9470 H   0  0  0  0  0  0
   13.5695   42.0631  -10.5024 H   0  0  0  0  0  0
   14.8820   40.3865   -6.7209 H   0  0  0  0  0  0
   16.5541   40.7010   -7.0985 H   0  0  0  0  0  0
   15.0394   38.3120   -7.8627 H   0  0  0  0  0  0
   17.8633   36.2532   -8.8656 H   0  0  0  0  0  0
   16.0901   36.1949   -8.3876 H   0  0  0  0  0  0
   15.5332   37.8967  -10.0362 H   0  0  0  0  0  0
   17.2866   37.9512  -10.5755 H   0  0  0  0  0  0
   18.4335   38.2951   -6.0365 H   0  0  0  0  0  0
   20.6785   39.2620   -5.6312 H   0  0  0  0  0  0
   21.9315   40.3277   -7.4322 H   0  0  0  0  0  0
   18.6163   39.6566  -10.1178 H   0  0  0  0  0  0
   21.6564   38.7254  -10.9656 H   0  0  0  0  0  0
   21.7719   40.0349  -12.1381 H   0  0  0  0  0  0
   20.1990   39.4153  -11.6762 H   0  0  0  0  0  0
   20.4870   42.7220   -9.8278 H   0  0  0  0  0  0
   19.4222   41.7971  -10.8866 H   0  0  0  0  0  0
   20.9706   42.3823  -11.4803 H   0  0  0  0  0  0
   22.6784   41.7852   -9.0092 H   0  0  0  0  0  0
   23.1508   41.4081  -10.6540 H   0  0  0  0  0  0
   23.1711   40.1427   -9.4419 H   0  0  0  0  0  0
   13.3080   40.4014   -8.7562 H   0  0  0  0  0  0
   18.5744   43.3443   -6.4509 H   0  0  0  0  0  0
   18.0642   44.9934   -6.1798 H   0  0  0  0  0  0
   19.7006   44.6513   -6.7469 H   0  0  0  0  0  0
   17.9913   46.8464   -7.2616 H   0  0  0  0  0  0
   18.0646   47.7449   -8.7322 H   0  0  0  0  0  0
   19.5706   47.2291   -7.9544 H   0  0  0  0  0  0
   16.0355   38.3705   -6.5835 H   0  0  0  0  0  0
  1  2  1  0  0  0
  1 43  1  0  0  0
  1 44  1  0  0  0
  1 45  1  0  0  0
  2 39  1  0  0  0
  2 19  1  0  0  0
  2  3  1  0  0  0
  3  4  1  0  0  0
  3 46  1  0  0  0
  3 47  1  0  0  0
  4  5  1  0  0  0
  4 48  1  0  0  0
  4 49  1  0  0  0
  5  6  1  0  0  0
  5 50  1  0  0  0
  5 51  1  0  0  0
  6  7  1  0  0  0
  6 52  1  0  0  0
  6 53  1  0  0  0
  7  8  1  0  0  0
  7 54  1  0  0  0
  7 55  1  0  0  0
  8  9  1  0  0  0
  8 56  1  0  0  0
  8 57  1  0  0  0
  9 10  1  0  0  0
 10 11  1  0  0  0
 10 58  1  0  0  0
 10 59  1  0  0  0
 11 12  2  0  0  0
 11 13  1  0  0  0
 13 14  1  0  0  0
 13 38  1  0  0  0
 14 40  1  0  0  0
 14 15  1  0  0  0
 14 37  1  0  0  0
 15 16  2  0  0  0
 15 17  1  0  0  0
 17 18  1  0  0  0
 17 60  1  0  0  0
 18 41  1  0  0  0
 18 19  1  0  0  0
 18 20  1  0  0  0
 19 61  1  0  0  0
 19 62  1  0  0  0
 20 42  1  0  0  0
 20 21  1  0  0  0
 20 36  1  0  0  0
 21 22  1  0  0  0
 21 63  1  0  0  0
 21 64  1  0  0  0
 22 23  1  0  0  0
 22 65  1  0  0  0
 22 90  1  0  0  0
 23 25  1  0  0  0
 23 24  1  0  0  0
 23 26  1  0  0  0
 24 25  1  0  0  0
 24 66  1  0  0  0
 24 67  1  0  0  0
 25 68  1  0  0  0
 25 69  1  0  0  0
 26 31  1  0  0  0
 26 27  2  0  0  0
 27 28  1  0  0  0
 27 70  1  0  0  0
 28 29  2  0  0  0
 28 71  1  0  0  0
 29 30  1  0  0  0
 29 72  1  0  0  0
 30 31  2  0  0  0
 30 32  1  0  0  0
 31 73  1  0  0  0
 32 33  1  0  0  0
 32 34  1  0  0  0
 32 35  1  0  0  0
 33 74  1  0  0  0
 33 75  1  0  0  0
 33 76  1  0  0  0
 34 77  1  0  0  0
 34 78  1  0  0  0
 34 79  1  0  0  0
 35 80  1  0  0  0
 35 81  1  0  0  0
 35 82  1  0  0  0
 36 83  1  0  0  0
 37 84  1  0  0  0
 37 85  1  0  0  0
 37 86  1  0  0  0
 38 87  1  0  0  0
 38 88  1  0  0  0
 38 89  1  0  0  0
M  CHG  1  22   1
M  END
> <s_m_source_file>
BACE_4.smi

> <i_m_source_file_index>
1

> <i_lp_mmshare_version>
42013

> <i_f3d_flags>
0

> <s_epik_input>
W0NIM11bQ0BASF0xW0NIMl1bQ0gyXVtDSDJdW0NIMl1bQ0gyXVtDSDJdT1tDSDJdQyg9TylOKFtDSDNdKVtDQEBIXShbQ0gzXSlDKD1PKVtOSF1bQ0BASF0oW0NIMl0xKVtDQEhdKFtPSF0pW0NIMl1bTkhdQzIoW0NIMl1bQ0gyXTIpYzNbY0hdW2NIXVtjSF1jKFtjSF0zKUMoW0NIM10pKFtDSDNdKVtDSDNd

> <s_epik_cmdline>
J2VwaWtfcHl0aG9uJywgJy1waCcsICc3LjAnLCAnLXRuJywgJzgnLCAnLW1hJywgJzIwMCcsICctaW1hZScsICc8aW5maWxlLm1hZT4nLCAnLW9tYWUnLCAnPG91dGZpbGUubWFlPic=

> <r_epik_Ionization_Penalty>
  0.4928

> <r_epik_Ionization_Penalty_Charging>
  0.4928

> <r_epik_Ionization_Penalty_Neutral>
  0.0000

> <r_epik_State_Penalty>
  0.4987

> <r_epik_Charging_Adjusted_Penalty>
0.991533

> <i_epik_Tot_Q>
1

> <i_epik_Tot_abs_Q>
1

> <s_lp_Force_Field>
OPLS_2005

> <r_lp_Energy>
51.5247

> <b_lp_Chiralities_Consistent>
1

> <s_lp_Variant>
BACE_4.smi:1-2

> <chiral flag>
1

> <version>
0

> <r_i_glide_lipo>
-1.16373

> <r_i_glide_hbond>
-0.400214

> <r_i_glide_metal>
-0

> <r_i_glide_rewards>
-0.00554154

> <r_i_glide_erotb>
0.365907

> <r_i_glide_esite>
-0.000889564

> <chiral flag>
1

> <s_i_glide_gridfile>
second_dock_grid_2

> <i_i_glide_lignum>
7

> <i_i_glide_rotatable_bonds>
7

> <r_i_docking_score>
-3.73197

> <r_i_glide_ligand_efficiency>
-0.0982097

> <r_i_glide_ligand_efficiency_sa>
-0.330179

> <r_i_glide_ligand_efficiency_ln>
-0.804723

> <r_glide_XP_GScore>
-4.23067

> <r_i_glide_gscore>
-4.23067

> <r_i_glide_evdw>
-36.9416

> <r_i_glide_ecoul>
-13.129

> <r_i_glide_energy>
-50.0706

> <r_i_glide_einternal>
5.8147

> <r_i_glide_emodel>
-67.4228

> <r_glide_XP_HBond>
-1.03231

> <i_i_glide_confnum>
1

> <i_i_glide_posenum>
1

> <r_i_glide_eff_state_penalty>
0.4987

> <i_glide_XP_PoseRank>
2

$$$$
BACE_4.smi:1
                    3D
 Structure written by MMmdl.
 90 92  0  0  1  0            999 V2000
   19.9230   39.6633  -11.3769 C   0  0  0  0  0  0
   19.9053   39.1900   -9.9097 C   0  0  2  0  0  0
   18.6194   38.3954   -9.5621 C   0  0  0  0  0  0
   17.2873   38.9039  -10.1577 C   0  0  0  0  0  0
   16.7893   40.2663   -9.6611 C   0  0  0  0  0  0
   15.4549   40.6535  -10.3237 C   0  0  0  0  0  0
   14.8865   42.0020   -9.8510 C   0  0  0  0  0  0
   15.7529   43.2143  -10.2203 C   0  0  0  0  0  0
   15.8251   43.3641  -11.6351 O   0  0  0  0  0  0
   16.6661   44.4340  -12.0566 C   0  0  0  0  0  0
   18.1438   43.9939  -12.0394 C   0  0  0  0  0  0
   18.4600   43.1124  -12.8398 O   0  0  0  0  0  0
   19.0328   44.5694  -11.1827 N   0  0  0  0  0  0
   20.4696   44.1965  -11.2045 C   0  0  2  0  0  0
   20.9080   43.4349   -9.9429 C   0  0  0  0  0  0
   21.0370   44.0115   -8.8637 O   0  0  0  0  0  0
   21.1782   42.1312  -10.1077 N   0  0  0  0  0  0
   21.4675   41.1641   -9.0473 C   0  0  1  0  0  0
   20.2083   40.2807   -8.8455 C   0  0  0  0  0  0
   22.7797   40.3811   -9.3390 C   0  0  1  0  0  0
   24.0815   41.1875   -9.1352 C   0  0  0  0  0  0
   24.1814   42.3631  -10.0288 N   0  3  0  0  0  0
   25.3233   43.2788   -9.7852 C   0  0  0  0  0  0
   24.8437   44.6560   -9.3574 C   0  0  0  0  0  0
   25.5187   43.7551   -8.3552 C   0  0  0  0  0  0
   26.4733   43.1012  -10.7425 C   0  0  0  0  0  0
   27.2125   41.9007  -10.7644 C   0  0  0  0  0  0
   28.3021   41.7500  -11.6394 C   0  0  0  0  0  0
   28.6842   42.8013  -12.4893 C   0  0  0  0  0  0
   27.9739   44.0247  -12.4812 C   0  0  0  0  0  0
   26.8606   44.1448  -11.6151 C   0  0  0  0  0  0
   28.4094   45.2288  -13.3391 C   0  0  0  0  0  0
   28.8866   46.3633  -12.4109 C   0  0  0  0  0  0
   29.5653   44.8916  -14.3078 C   0  0  0  0  0  0
   27.2297   45.7389  -14.1886 C   0  0  0  0  0  0
   22.8599   39.2978   -8.4398 O   0  0  0  0  0  0
   21.3552   45.4393  -11.4425 C   0  0  0  0  0  0
   18.6053   45.5671  -10.1883 C   0  0  0  0  0  0
   20.7152   38.4653   -9.8273 H   0  0  0  0  0  0
   20.6761   43.5315  -12.0397 H   0  0  0  0  0  0
   21.6140   41.6975   -8.1057 H   0  0  0  0  0  0
   22.7611   39.9662  -10.3471 H   0  0  0  0  0  0
   19.6506   38.8449  -12.0396 H   0  0  0  0  0  0
   20.9107   39.9919  -11.6955 H   0  0  0  0  0  0
   19.2241   40.4809  -11.5530 H   0  0  0  0  0  0
   18.7552   37.3775   -9.9312 H   0  0  0  0  0  0
   18.5213   38.2907   -8.4800 H   0  0  0  0  0  0
   16.5190   38.1579   -9.9510 H   0  0  0  0  0  0
   17.3700   38.9502  -11.2400 H   0  0  0  0  0  0
   16.6797   40.2510   -8.5753 H   0  0  0  0  0  0
   17.5304   41.0241   -9.9027 H   0  0  0  0  0  0
   14.7171   39.8781  -10.1135 H   0  0  0  0  0  0
   15.5755   40.6685  -11.4073 H   0  0  0  0  0  0
   13.8887   42.1347  -10.2704 H   0  0  0  0  0  0
   14.7528   41.9702   -8.7694 H   0  0  0  0  0  0
   16.7424   43.1114   -9.7780 H   0  0  0  0  0  0
   15.3112   44.1141   -9.7894 H   0  0  0  0  0  0
   16.4502   45.3463  -11.5040 H   0  0  0  0  0  0
   16.4199   44.6582  -13.0930 H   0  0  0  0  0  0
   21.0175   41.7440  -11.0276 H   0  0  0  0  0  0
   20.3044   39.7800   -7.8811 H   0  0  0  0  0  0
   19.3500   40.9375   -8.7192 H   0  0  0  0  0  0
   24.9476   40.5500   -9.3077 H   0  0  0  0  0  0
   24.1282   41.4893   -8.0918 H   0  0  0  0  0  0
   23.3302   42.8933   -9.9102 H   0  0  0  0  0  0
   25.4093   45.5415   -9.6385 H   0  0  0  0  0  0
   23.7775   44.8220   -9.2134 H   0  0  0  0  0  0
   24.8762   43.4174   -7.5439 H   0  0  0  0  0  0
   26.5284   44.0251   -8.0514 H   0  0  0  0  0  0
   26.9627   41.0833  -10.1051 H   0  0  0  0  0  0
   28.8641   40.8286  -11.6466 H   0  0  0  0  0  0
   29.5416   42.6415  -13.1241 H   0  0  0  0  0  0
   26.3152   45.0754  -11.6007 H   0  0  0  0  0  0
   28.0969   46.7009  -11.7390 H   0  0  0  0  0  0
   29.2158   47.2319  -12.9815 H   0  0  0  0  0  0
   29.7263   46.0424  -11.7920 H   0  0  0  0  0  0
   29.2948   44.0863  -14.9911 H   0  0  0  0  0  0
   30.4695   44.5948  -13.7748 H   0  0  0  0  0  0
   29.8333   45.7543  -14.9185 H   0  0  0  0  0  0
   26.8603   44.9501  -14.8372 H   0  0  0  0  0  0
   27.5290   46.5752  -14.8217 H   0  0  0  0  0  0
   26.3930   46.0853  -13.5825 H   0  0  0  0  0  0
   23.5267   38.7004   -8.7668 H   0  0  0  0  0  0
   22.3911   45.1483  -11.6192 H   0  0  0  0  0  0
   21.3565   46.1245  -10.5938 H   0  0  0  0  0  0
   21.0233   46.0035  -12.3132 H   0  0  0  0  0  0
   19.4023   45.8650   -9.5095 H   0  0  0  0  0  0
   17.7991   45.1861   -9.5611 H   0  0  0  0  0  0
   18.2617   46.4764  -10.6812 H   0  0  0  0  0  0
   24.2275   42.0427  -10.9865 H   0  0  0  0  0  0
  1  2  1  0  0  0
  1 43  1  0  0  0
  1 44  1  0  0  0
  1 45  1  0  0  0
  2 39  1  0  0  0
  2 19  1  0  0  0
  2  3  1  0  0  0
  3  4  1  0  0  0
  3 46  1  0  0  0
  3 47  1  0  0  0
  4  5  1  0  0  0
  4 48  1  0  0  0
  4 49  1  0  0  0
  5  6  1  0  0  0
  5 50  1  0  0  0
  5 51  1  0  0  0
  6  7  1  0  0  0
  6 52  1  0  0  0
  6 53  1  0  0  0
  7  8  1  0  0  0
  7 54  1  0  0  0
  7 55  1  0  0  0
  8  9  1  0  0  0
  8 56  1  0  0  0
  8 57  1  0  0  0
  9 10  1  0  0  0
 10 11  1  0  0  0
 10 58  1  0  0  0
 10 59  1  0  0  0
 11 12  2  0  0  0
 11 13  1  0  0  0
 13 14  1  0  0  0
 13 38  1  0  0  0
 14 40  1  0  0  0
 14 15  1  0  0  0
 14 37  1  0  0  0
 15 16  2  0  0  0
 15 17  1  0  0  0
 17 18  1  0  0  0
 17 60  1  0  0  0
 18 41  1  0  0  0
 18 19  1  0  0  0
 18 20  1  0  0  0
 19 61  1  0  0  0
 19 62  1  0  0  0
 20 42  1  0  0  0
 20 21  1  0  0  0
 20 36  1  0  0  0
 21 22  1  0  0  0
 21 63  1  0  0  0
 21 64  1  0  0  0
 22 23  1  0  0  0
 22 65  1  0  0  0
 22 90  1  0  0  0
 23 25  1  0  0  0
 23 24  1  0  0  0
 23 26  1  0  0  0
 24 25  1  0  0  0
 24 66  1  0  0  0
 24 67  1  0  0  0
 25 68  1  0  0  0
 25 69  1  0  0  0
 26 31  1  0  0  0
 26 27  2  0  0  0
 27 28  1  0  0  0
 27 70  1  0  0  0
 28 29  2  0  0  0
 28 71  1  0  0  0
 29 30  1  0  0  0
 29 72  1  0  0  0
 30 31  2  0  0  0
 30 32  1  0  0  0
 31 73  1  0  0  0
 32 33  1  0  0  0
 32 34  1  0  0  0
 32 35  1  0  0  0
 33 74  1  0  0  0
 33 75  1  0  0  0
 33 76  1  0  0  0
 34 77  1  0  0  0
 34 78  1  0  0  0
 34 79  1  0  0  0
 35 80  1  0  0  0
 35 81  1  0  0  0
 35 82  1  0  0  0
 36 83  1  0  0  0
 37 84  1  0  0  0
 37 85  1  0  0  0
 37 86  1  0  0  0
 38 87  1  0  0  0
 38 88  1  0  0  0
 38 89  1  0  0  0
M  CHG  1  22   1
M  END
> <s_m_source_file>
BACE_4.smi

> <i_m_source_file_index>
1

> <i_lp_mmshare_version>
42013

> <i_f3d_flags>
0

> <s_epik_input>
W0NIM11bQ0BASF0xW0NIMl1bQ0gyXVtDSDJdW0NIMl1bQ0gyXVtDSDJdT1tDSDJdQyg9TylOKFtDSDNdKVtDQEBIXShbQ0gzXSlDKD1PKVtOSF1bQ0BASF0oW0NIMl0xKVtDQEhdKFtPSF0pW0NIMl1bTkhdQzIoW0NIMl1bQ0gyXTIpYzNbY0hdW2NIXVtjSF1jKFtjSF0zKUMoW0NIM10pKFtDSDNdKVtDSDNd

> <s_epik_cmdline>
J2VwaWtfcHl0aG9uJywgJy1waCcsICc3LjAnLCAnLXRuJywgJzgnLCAnLW1hJywgJzIwMCcsICctaW1hZScsICc8aW5maWxlLm1hZT4nLCAnLW9tYWUnLCAnPG91dGZpbGUubWFlPic=

> <r_epik_Ionization_Penalty>
  0.4928

> <r_epik_Ionization_Penalty_Charging>
  0.4928

> <r_epik_Ionization_Penalty_Neutral>
  0.0000

> <r_epik_State_Penalty>
  0.4987

> <r_epik_Charging_Adjusted_Penalty>
0.991533

> <i_epik_Tot_Q>
1

> <i_epik_Tot_abs_Q>
1

> <s_lp_Force_Field>
OPLS_2005

> <r_lp_Energy>
51.5247

> <b_lp_Chiralities_Consistent>
1

> <s_lp_Variant>
BACE_4.smi:1-2

> <chiral flag>
1

> <version>
0

> <r_i_glide_lipo>
-1.16373

> <r_i_glide_hbond>
-0.400214

> <r_i_glide_metal>
-0

> <r_i_glide_rewards>
-0.00554154

> <r_i_glide_erotb>
0.365907

> <r_i_glide_esite>
-0.000889564

> <chiral flag>
1

> <s_i_glide_gridfile>
second_dock_grid_2

> <i_i_glide_lignum>
7

> <i_i_glide_rotatable_bonds>
7

> <r_i_docking_score>
-1.96589

> <r_i_glide_ligand_efficiency>
-0.0517339

> <r_i_glide_ligand_efficiency_sa>
-0.173928

> <r_i_glide_ligand_efficiency_ln>
-0.423903

> <r_glide_XP_GScore>
-2.46459

> <r_i_glide_gscore>
-2.46459

> <r_i_glide_evdw>
-31.611

> <r_i_glide_ecoul>
-12.5418

> <r_i_glide_energy>
-44.1528

> <r_i_glide_einternal>
3.9831

> <r_i_glide_emodel>
-63.2734

> <r_glide_XP_HBond>
-1.03231

> <i_i_glide_confnum>
1

> <i_i_glide_posenum>
2

> <r_i_glide_eff_state_penalty>
0.4987

> <i_glide_XP_PoseRank>
3

$$$$
BACE_5.smi:1
                    3D
 Structure written by MMmdl.
 80 81  0  0  1  0            999 V2000
   21.4612   42.6826   -2.4253 C   0  0  0  0  0  0
   22.1544   43.3489   -3.6221 C   0  0  0  0  0  0
   22.9191   42.3816   -4.5438 C   0  0  0  0  0  0
   22.0527   41.4113   -5.2853 C   0  0  0  0  0  0
   21.0835   40.5500   -4.8578 C   0  0  0  0  0  0
   20.6125   39.9225   -6.0420 C   0  0  0  0  0  0
   21.2730   40.3143   -7.1234 N   0  0  0  0  0  0
   22.1457   41.2241   -6.6479 N   0  0  0  0  0  0
   19.5111   38.9119   -6.1528 C   0  0  0  0  0  0
   18.7180   39.1119   -7.3698 N   0  3  0  0  0  0
   17.6014   38.1568   -7.5047 C   0  0  0  0  0  0
   17.0228   38.1487   -8.9323 C   0  0  2  0  0  0
   16.4544   39.5350   -9.3705 C   0  0  2  0  0  0
   14.9693   39.5413   -9.7988 C   0  0  0  0  0  0
   14.3338   40.9101  -10.1694 C   0  0  1  0  0  0
   14.5958   42.0193   -9.1308 C   0  0  0  0  0  0
   13.6969   43.2497   -9.3491 C   0  0  0  0  0  0
   13.8227   44.3308   -8.2671 C   0  0  0  0  0  0
   15.2047   45.0109   -8.1744 C   0  0  0  0  0  0
   15.6692   45.7205   -9.4657 C   0  0  0  0  0  0
   16.9001   45.0680  -10.1087 C   0  0  0  0  0  0
   17.1308   45.6490  -11.3889 O   0  0  0  0  0  0
   18.3483   45.2663  -12.0368 C   0  0  0  0  0  0
   18.3692   43.7516  -12.3427 C   0  0  0  0  0  0
   17.6243   43.3500  -13.2398 O   0  0  0  0  0  0
   19.1405   42.9122  -11.6025 N   0  0  0  0  0  0
   18.9123   41.4457  -11.6397 C   0  0  2  0  0  0
   18.2733   40.9469  -10.3299 C   0  0  0  0  0  0
   18.6584   41.3499   -9.2329 O   0  0  0  0  0  0
   17.2772   40.0595  -10.4576 N   0  0  0  0  0  0
   20.2080   40.6705  -11.9562 C   0  0  0  0  0  0
   20.1799   43.4308  -10.6972 C   0  0  0  0  0  0
   14.6623   41.3745  -11.6018 C   0  0  0  0  0  0
   16.0618   37.1116   -8.9727 O   0  0  0  0  0  0
   22.7932   41.7052   -7.2583 H   0  0  0  0  0  0
   17.8100   37.8378   -9.6228 H   0  0  0  0  0  0
   16.5157   40.2091   -8.5142 H   0  0  0  0  0  0
   13.2611   40.7247  -10.1441 H   0  0  0  0  0  0
   18.2184   41.1874  -12.4401 H   0  0  0  0  0  0
   21.2977   43.3971   -1.6195 H   0  0  0  0  0  0
   22.0589   41.8593   -2.0394 H   0  0  0  0  0  0
   20.4808   42.2938   -2.7011 H   0  0  0  0  0  0
   22.8598   44.0792   -3.2306 H   0  0  0  0  0  0
   21.4260   43.9168   -4.2004 H   0  0  0  0  0  0
   23.6545   41.8294   -3.9574 H   0  0  0  0  0  0
   23.4957   42.9665   -5.2599 H   0  0  0  0  0  0
   20.7354   40.3966   -3.8463 H   0  0  0  0  0  0
   18.8561   38.9576   -5.2793 H   0  0  0  0  0  0
   19.9393   37.9132   -6.1947 H   0  0  0  0  0  0
   19.3519   39.0268   -8.1513 H   0  0  0  0  0  0
   16.8322   38.4098   -6.7739 H   0  0  0  0  0  0
   17.9657   37.1565   -7.2593 H   0  0  0  0  0  0
   14.8597   38.8543  -10.6340 H   0  0  0  0  0  0
   14.3787   39.1191   -8.9842 H   0  0  0  0  0  0
   14.4394   41.6245   -8.1257 H   0  0  0  0  0  0
   15.6434   42.3125   -9.1642 H   0  0  0  0  0  0
   12.6577   42.9252   -9.3808 H   0  0  0  0  0  0
   13.8954   43.6851  -10.3259 H   0  0  0  0  0  0
   13.0561   45.0823   -8.4402 H   0  0  0  0  0  0
   13.5647   43.8859   -7.3076 H   0  0  0  0  0  0
   15.9511   44.2859   -7.8498 H   0  0  0  0  0  0
   15.1627   45.7440   -7.3709 H   0  0  0  0  0  0
   14.8610   45.7499  -10.1959 H   0  0  0  0  0  0
   15.8992   46.7624   -9.2440 H   0  0  0  0  0  0
   16.7326   43.9964  -10.2093 H   0  0  0  0  0  0
   17.7675   45.2109   -9.4622 H   0  0  0  0  0  0
   19.2003   45.6233  -11.4591 H   0  0  0  0  0  0
   18.3971   45.8008  -12.9876 H   0  0  0  0  0  0
   17.0401   39.7515  -11.3889 H   0  0  0  0  0  0
   19.9846   39.6225  -12.1638 H   0  0  0  0  0  0
   20.9230   40.6763  -11.1329 H   0  0  0  0  0  0
   20.7054   41.0727  -12.8387 H   0  0  0  0  0  0
   20.7588   42.6480  -10.2097 H   0  0  0  0  0  0
   19.7436   44.0259   -9.8952 H   0  0  0  0  0  0
   20.8970   44.0471  -11.2423 H   0  0  0  0  0  0
   13.9230   42.0693  -12.0065 H   0  0  0  0  0  0
   14.6913   40.5377  -12.2899 H   0  0  0  0  0  0
   15.6320   41.8676  -11.6400 H   0  0  0  0  0  0
   15.6725   37.0219   -8.1104 H   0  0  0  0  0  0
   18.3657   40.0605   -7.3722 H   0  0  0  0  0  0
  1  2  1  0  0  0
  1 40  1  0  0  0
  1 41  1  0  0  0
  1 42  1  0  0  0
  2  3  1  0  0  0
  2 43  1  0  0  0
  2 44  1  0  0  0
  3  4  1  0  0  0
  3 45  1  0  0  0
  3 46  1  0  0  0
  4  8  1  0  0  0
  4  5  2  0  0  0
  5  6  1  0  0  0
  5 47  1  0  0  0
  6  7  2  0  0  0
  6  9  1  0  0  0
  7  8  1  0  0  0
  8 35  1  0  0  0
  9 10  1  0  0  0
  9 48  1  0  0  0
  9 49  1  0  0  0
 10 11  1  0  0  0
 10 50  1  0  0  0
 10 80  1  0  0  0
 11 12  1  0  0  0
 11 51  1  0  0  0
 11 52  1  0  0  0
 12 36  1  0  0  0
 12 13  1  0  0  0
 12 34  1  0  0  0
 13 37  1  0  0  0
 13 30  1  0  0  0
 13 14  1  0  0  0
 14 15  1  0  0  0
 14 53  1  0  0  0
 14 54  1  0  0  0
 15 38  1  0  0  0
 15 16  1  0  0  0
 15 33  1  0  0  0
 16 17  1  0  0  0
 16 55  1  0  0  0
 16 56  1  0  0  0
 17 18  1  0  0  0
 17 57  1  0  0  0
 17 58  1  0  0  0
 18 19  1  0  0  0
 18 59  1  0  0  0
 18 60  1  0  0  0
 19 20  1  0  0  0
 19 61  1  0  0  0
 19 62  1  0  0  0
 20 21  1  0  0  0
 20 63  1  0  0  0
 20 64  1  0  0  0
 21 22  1  0  0  0
 21 65  1  0  0  0
 21 66  1  0  0  0
 22 23  1  0  0  0
 23 24  1  0  0  0
 23 67  1  0  0  0
 23 68  1  0  0  0
 24 25  2  0  0  0
 24 26  1  0  0  0
 26 27  1  0  0  0
 26 32  1  0  0  0
 27 39  1  0  0  0
 27 28  1  0  0  0
 27 31  1  0  0  0
 28 29  2  0  0  0
 28 30  1  0  0  0
 30 69  1  0  0  0
 31 70  1  0  0  0
 31 71  1  0  0  0
 31 72  1  0  0  0
 32 73  1  0  0  0
 32 74  1  0  0  0
 32 75  1  0  0  0
 33 76  1  0  0  0
 33 77  1  0  0  0
 33 78  1  0  0  0
 34 79  1  0  0  0
M  CHG  1  10   1
M  END
> <s_m_source_file>
BACE_5.smi

> <i_m_source_file_index>
1

> <i_lp_mmshare_version>
42013

> <i_f3d_flags>
0

> <s_epik_input>
W0NIM11bQ0gyXVtDSDJdYzFbY0hdYyhuW25IXTEpW0NIMl1bTkhdW0NIMl1bQ0BASF0oW09IXSlbQ0BASF0yW0NIMl1bQ0BIXShbQ0gzXSlbQ0gyXVtDSDJdW0NIMl1bQ0gyXVtDSDJdW0NIMl1PW0NIMl1DKD1PKU4oW0NIM10pW0NAQEhdKFtDSDNdKUMoPU8pW05IXTI=

> <s_epik_cmdline>
J2VwaWtfcHl0aG9uJywgJy1waCcsICc3LjAnLCAnLXRuJywgJzgnLCAnLW1hJywgJzIwMCcsICctaW1hZScsICc8aW5maWxlLm1hZT4nLCAnLW9tYWUnLCAnPG91dGZpbGUubWFlPic=

> <r_lp_tautomer_probability>
0.5

> <r_epik_Ionization_Penalty>
  0.0566

> <r_epik_Ionization_Penalty_Charging>
  0.0566

> <r_epik_Ionization_Penalty_Neutral>
  0.0000

> <r_epik_State_Penalty>
  0.4228

> <r_epik_Charging_Adjusted_Penalty>
0.479388

> <i_epik_Tot_Q>
1

> <i_epik_Tot_abs_Q>
1

> <s_lp_Force_Field>
OPLS_2005

> <r_lp_Energy>
33.9066

> <b_lp_Chiralities_Consistent>
1

> <s_lp_Variant>
BACE_5.smi:1-1

> <chiral flag>
1

> <version>
0

> <r_i_glide_lipo>
-0.535447

> <r_i_glide_hbond>
-0.795088

> <r_i_glide_metal>
-0

> <r_i_glide_rewards>
-0.154899

> <r_i_glide_erotb>
0.526685

> <r_i_glide_esite>
-0.0910614

> <chiral flag>
1

> <s_i_glide_gridfile>
second_dock_grid_2

> <i_i_glide_lignum>
8

> <i_i_glide_rotatable_bonds>
8

> <r_i_docking_score>
-5.40885

> <r_i_glide_ligand_efficiency>
-0.159084

> <r_i_glide_ligand_efficiency_sa>
-0.51537

> <r_i_glide_ligand_efficiency_ln>
-1.19497

> <r_glide_XP_GScore>
-5.83165

> <r_i_glide_gscore>
-5.83165

> <r_i_glide_evdw>
-38.7552

> <r_i_glide_ecoul>
-10.8836

> <r_i_glide_energy>
-49.6388

> <r_i_glide_einternal>
10.306

> <r_i_glide_emodel>
-61.3123

> <r_glide_XP_HBond>
-2.08544

> <i_i_glide_confnum>
1

> <i_i_glide_posenum>
1

> <r_i_glide_eff_state_penalty>
0.4228

> <i_glide_XP_PoseRank>
1

$$$$
BACE_5.smi:1
                    3D
 Structure written by MMmdl.
 80 81  0  0  1  0            999 V2000
   21.6858   39.0413   -9.2807 C   0  0  0  0  0  0
   20.2202   39.0738   -8.8320 C   0  0  0  0  0  0
   19.4526   37.8174   -9.2677 C   0  0  0  0  0  0
   18.0130   37.8251   -8.8695 C   0  0  0  0  0  0
   17.3870   38.1498   -7.7018 C   0  0  0  0  0  0
   15.9967   38.1801   -8.0417 C   0  0  0  0  0  0
   15.7765   37.7450   -9.2711 N   0  0  0  0  0  0
   17.0097   37.5057   -9.7495 N   0  0  0  0  0  0
   14.8402   38.7337   -7.2542 C   0  0  0  0  0  0
   15.2596   39.9318   -6.5015 N   0  3  0  0  0  0
   15.4455   41.1971   -7.2683 C   0  0  0  0  0  0
   16.5526   41.1992   -8.3669 C   0  0  2  0  0  0
   17.2654   42.5356   -8.6945 C   0  0  2  0  0  0
   18.1208   43.0485   -7.5140 C   0  0  0  0  0  0
   18.9250   44.3503   -7.7493 C   0  0  1  0  0  0
   19.5708   44.8129   -6.4201 C   0  0  0  0  0  0
   20.0242   46.2847   -6.3712 C   0  0  0  0  0  0
   18.8474   47.2743   -6.2484 C   0  0  0  0  0  0
   19.2015   48.7542   -6.4843 C   0  0  0  0  0  0
   19.9266   49.0690   -7.8109 C   0  0  0  0  0  0
   19.2888   48.4724   -9.0774 C   0  0  0  0  0  0
   18.0130   49.0512   -9.3300 O   0  0  0  0  0  0
   17.3389   48.4686  -10.4469 C   0  0  0  0  0  0
   16.6145   47.1662  -10.0434 C   0  0  0  0  0  0
   16.4596   46.9404   -8.8439 O   0  0  0  0  0  0
   16.1121   46.3421  -11.0011 N   0  0  0  0  0  0
   15.2649   45.1837  -10.6103 C   0  0  2  0  0  0
   16.1465   43.9440  -10.4126 C   0  0  0  0  0  0
   16.6416   43.3698  -11.3848 O   0  0  0  0  0  0
   16.3396   43.5719   -9.1355 N   0  0  0  0  0  0
   14.1595   44.8843  -11.6518 C   0  0  0  0  0  0
   16.5149   46.4885  -12.4095 C   0  0  0  0  0  0
   19.9732   44.1861   -8.8656 C   0  0  0  0  0  0
   16.0342   40.7006   -9.5887 O   0  0  0  0  0  0
   17.1543   37.1704  -10.6948 H   0  0  0  0  0  0
   17.3695   40.5644   -8.0457 H   0  0  0  0  0  0
   17.9666   42.3173   -9.5015 H   0  0  0  0  0  0
   18.2245   45.1158   -8.0690 H   0  0  0  0  0  0
   14.7524   45.3752   -9.6667 H   0  0  0  0  0  0
   22.2179   39.9311   -8.9458 H   0  0  0  0  0  0
   21.7688   38.9935  -10.3664 H   0  0  0  0  0  0
   22.2050   38.1747   -8.8688 H   0  0  0  0  0  0
   19.7357   39.9598   -9.2431 H   0  0  0  0  0  0
   20.1810   39.1747   -7.7473 H   0  0  0  0  0  0
   19.9387   36.9503   -8.8404 H   0  0  0  0  0  0
   19.5279   37.7110  -10.3505 H   0  0  0  0  0  0
   17.8580   38.4448   -6.7754 H   0  0  0  0  0  0
   14.4547   37.9908   -6.5612 H   0  0  0  0  0  0
   14.0037   38.9953   -7.9045 H   0  0  0  0  0  0
   16.1157   39.6968   -6.0215 H   0  0  0  0  0  0
   15.7616   41.8705   -6.4879 H   0  0  0  0  0  0
   14.4903   41.5646   -7.6509 H   0  0  0  0  0  0
   17.4529   43.2191   -6.6734 H   0  0  0  0  0  0
   18.8058   42.2613   -7.1999 H   0  0  0  0  0  0
   18.8621   44.6646   -5.6110 H   0  0  0  0  0  0
   20.4195   44.1637   -6.1934 H   0  0  0  0  0  0
   20.6355   46.4992   -7.2461 H   0  0  0  0  0  0
   20.6855   46.4269   -5.5166 H   0  0  0  0  0  0
   18.0596   47.0007   -6.9413 H   0  0  0  0  0  0
   18.4017   47.1715   -5.2595 H   0  0  0  0  0  0
   19.8115   49.1127   -5.6548 H   0  0  0  0  0  0
   18.2789   49.3344   -6.4478 H   0  0  0  0  0  0
   20.0033   50.1508   -7.9268 H   0  0  0  0  0  0
   20.9548   48.7129   -7.7430 H   0  0  0  0  0  0
   19.2195   47.3876   -8.9975 H   0  0  0  0  0  0
   19.9417   48.6752   -9.9282 H   0  0  0  0  0  0
   18.0372   48.3268  -11.2708 H   0  0  0  0  0  0
   16.5807   49.1731  -10.7869 H   0  0  0  0  0  0
   15.8976   44.1159   -8.4109 H   0  0  0  0  0  0
   13.4327   44.1835  -11.2409 H   0  0  0  0  0  0
   14.5327   44.4362  -12.5721 H   0  0  0  0  0  0
   13.6171   45.7885  -11.9232 H   0  0  0  0  0  0
   16.2579   45.6310  -13.0249 H   0  0  0  0  0  0
   17.5992   46.5714  -12.4995 H   0  0  0  0  0  0
   16.0600   47.3766  -12.8521 H   0  0  0  0  0  0
   20.5336   45.1052   -9.0276 H   0  0  0  0  0  0
   19.5073   43.9384   -9.8189 H   0  0  0  0  0  0
   20.6892   43.3966   -8.6303 H   0  0  0  0  0  0
   15.9565   39.7538   -9.5387 H   0  0  0  0  0  0
   14.5578   40.1131   -5.7860 H   0  0  0  0  0  0
  1  2  1  0  0  0
  1 40  1  0  0  0
  1 41  1  0  0  0
  1 42  1  0  0  0
  2  3  1  0  0  0
  2 43  1  0  0  0
  2 44  1  0  0  0
  3  4  1  0  0  0
  3 45  1  0  0  0
  3 46  1  0  0  0
  4  8  1  0  0  0
  4  5  2  0  0  0
  5  6  1  0  0  0
  5 47  1  0  0  0
  6  7  2  0  0  0
  6  9  1  0  0  0
  7  8  1  0  0  0
  8 35  1  0  0  0
  9 10  1  0  0  0
  9 48  1  0  0  0
  9 49  1  0  0  0
 10 11  1  0  0  0
 10 50  1  0  0  0
 10 80  1  0  0  0
 11 12  1  0  0  0
 11 51  1  0  0  0
 11 52  1  0  0  0
 12 36  1  0  0  0
 12 13  1  0  0  0
 12 34  1  0  0  0
 13 37  1  0  0  0
 13 30  1  0  0  0
 13 14  1  0  0  0
 14 15  1  0  0  0
 14 53  1  0  0  0
 14 54  1  0  0  0
 15 38  1  0  0  0
 15 16  1  0  0  0
 15 33  1  0  0  0
 16 17  1  0  0  0
 16 55  1  0  0  0
 16 56  1  0  0  0
 17 18  1  0  0  0
 17 57  1  0  0  0
 17 58  1  0  0  0
 18 19  1  0  0  0
 18 59  1  0  0  0
 18 60  1  0  0  0
 19 20  1  0  0  0
 19 61  1  0  0  0
 19 62  1  0  0  0
 20 21  1  0  0  0
 20 63  1  0  0  0
 20 64  1  0  0  0
 21 22  1  0  0  0
 21 65  1  0  0  0
 21 66  1  0  0  0
 22 23  1  0  0  0
 23 24  1  0  0  0
 23 67  1  0  0  0
 23 68  1  0  0  0
 24 25  2  0  0  0
 24 26  1  0  0  0
 26 27  1  0  0  0
 26 32  1  0  0  0
 27 39  1  0  0  0
 27 28  1  0  0  0
 27 31  1  0  0  0
 28 29  2  0  0  0
 28 30  1  0  0  0
 30 69  1  0  0  0
 31 70  1  0  0  0
 31 71  1  0  0  0
 31 72  1  0  0  0
 32 73  1  0  0  0
 32 74  1  0  0  0
 32 75  1  0  0  0
 33 76  1  0  0  0
 33 77  1  0  0  0
 33 78  1  0  0  0
 34 79  1  0  0  0
M  CHG  1  10   1
M  END
> <s_m_source_file>
BACE_5.smi

> <i_m_source_file_index>
1

> <i_lp_mmshare_version>
42013

> <i_f3d_flags>
0

> <s_epik_input>
W0NIM11bQ0gyXVtDSDJdYzFbY0hdYyhuW25IXTEpW0NIMl1bTkhdW0NIMl1bQ0BASF0oW09IXSlbQ0BASF0yW0NIMl1bQ0BIXShbQ0gzXSlbQ0gyXVtDSDJdW0NIMl1bQ0gyXVtDSDJdW0NIMl1PW0NIMl1DKD1PKU4oW0NIM10pW0NAQEhdKFtDSDNdKUMoPU8pW05IXTI=

> <s_epik_cmdline>
J2VwaWtfcHl0aG9uJywgJy1waCcsICc3LjAnLCAnLXRuJywgJzgnLCAnLW1hJywgJzIwMCcsICctaW1hZScsICc8aW5maWxlLm1hZT4nLCAnLW9tYWUnLCAnPG91dGZpbGUubWFlPic=

> <r_lp_tautomer_probability>
0.5

> <r_epik_Ionization_Penalty>
  0.0566

> <r_epik_Ionization_Penalty_Charging>
  0.0566

> <r_epik_Ionization_Penalty_Neutral>
  0.0000

> <r_epik_State_Penalty>
  0.4228

> <r_epik_Charging_Adjusted_Penalty>
0.479388

> <i_epik_Tot_Q>
1

> <i_epik_Tot_abs_Q>
1

> <s_lp_Force_Field>
OPLS_2005

> <r_lp_Energy>
33.9066

> <b_lp_Chiralities_Consistent>
1

> <s_lp_Variant>
BACE_5.smi:1-1

> <chiral flag>
1

> <version>
0

> <r_i_glide_lipo>
-0.535447

> <r_i_glide_hbond>
-0.795088

> <r_i_glide_metal>
-0

> <r_i_glide_rewards>
-0.154899

> <r_i_glide_erotb>
0.526685

> <r_i_glide_esite>
-0.0910614

> <chiral flag>
1

> <s_i_glide_gridfile>
second_dock_grid_2

> <i_i_glide_lignum>
8

> <i_i_glide_rotatable_bonds>
8

> <r_i_docking_score>
-5.13758

> <r_i_glide_ligand_efficiency>
-0.151105

> <r_i_glide_ligand_efficiency_sa>
-0.489523

> <r_i_glide_ligand_efficiency_ln>
-1.13504

> <r_glide_XP_GScore>
-5.56038

> <r_i_glide_gscore>
-5.56038

> <r_i_glide_evdw>
-32.266

> <r_i_glide_ecoul>
-15.3699

> <r_i_glide_energy>
-47.6359

> <r_i_glide_einternal>
9.27963

> <r_i_glide_emodel>
-63.3038

> <r_glide_XP_HBond>
-2.08544

> <i_i_glide_confnum>
1

> <i_i_glide_posenum>
23

> <r_i_glide_eff_state_penalty>
0.4228

> <i_glide_XP_PoseRank>
2

$$$$
