BACE_11.smi:1
                    3D
 Structure written by MMmdl.
 80 82  0  0  1  0            999 V2000
   21.7822   41.8958  -11.9381 C   0  0  0  0  0  0
   22.0390   42.1098  -10.4297 C   0  0  1  0  0  0
   21.1988   41.1968   -9.5117 C   0  0  0  0  0  0
   19.9893   41.1004   -9.7243 O   0  0  0  0  0  0
   21.7969   40.5763   -8.4807 N   0  0  0  0  0  0
   21.1661   39.8155   -7.3884 C   0  0  1  0  0  0
   20.4591   40.7362   -6.3641 C   0  0  0  0  0  0
   21.3519   41.8405   -5.8235 C   0  0  0  0  0  0
   22.0168   41.6714   -4.5916 C   0  0  0  0  0  0
   22.8555   42.6901   -4.1051 C   0  0  0  0  0  0
   23.0369   43.8680   -4.8515 C   0  0  0  0  0  0
   22.4091   44.0373   -6.1079 C   0  0  0  0  0  0
   21.5368   43.0301   -6.5593 C   0  0  0  0  0  0
   22.6018   45.1208   -6.9402 O   0  0  0  0  0  0
   23.5898   46.0764   -6.5828 C   0  0  0  0  0  0
   23.9133   46.9824   -7.7839 C   0  0  0  0  0  0
   24.9210   46.3733   -8.7832 C   0  0  0  0  0  0
   24.3309   45.9820  -10.1552 C   0  0  0  0  0  0
   23.4402   44.7163  -10.1771 C   0  0  0  0  0  0
   24.1841   43.3740  -10.0223 C   0  0  0  0  0  0
   25.3975   43.3875   -9.8108 O   0  0  0  0  0  0
   23.4941   42.2089  -10.1443 N   0  0  0  0  0  0
   24.2589   40.9530  -10.1490 C   0  0  0  0  0  0
   20.3507   38.5520   -7.8156 C   0  0  1  0  0  0
   18.8122   38.6913   -7.6662 C   0  0  0  0  0  0
   18.0590   37.5396   -8.1844 N   0  0  0  0  0  0
   17.5570   37.6825   -9.5580 C   0  0  0  0  0  0
   16.4609   38.7218   -9.6653 C   0  0  0  0  0  0
   15.1297   38.3726   -9.3791 C   0  0  0  0  0  0
   14.1281   39.3608   -9.3821 C   0  0  0  0  0  0
   14.4621   40.7059   -9.6429 C   0  0  0  0  0  0
   15.7888   41.0643   -9.9391 C   0  0  0  0  0  0
   16.7727   40.0561   -9.9968 C   0  0  0  0  0  0
   16.2051   42.5232  -10.0844 C   0  0  0  0  0  0
   16.4256   43.1461   -8.7006 C   0  0  0  0  0  0
   15.2217   43.3651  -10.9216 C   0  0  0  0  0  0
   20.7025   38.1516   -9.1279 O   0  0  0  0  0  0
   21.5738   43.0658  -10.2022 H   0  0  0  0  0  0
   22.0314   39.4140   -6.8582 H   0  0  0  0  0  0
   20.6509   37.7504   -7.1462 H   0  0  0  0  0  0
   20.7268   42.0328  -12.1762 H   0  0  0  0  0  0
   22.0594   40.8890  -12.2486 H   0  0  0  0  0  0
   22.3598   42.5996  -12.5422 H   0  0  0  0  0  0
   22.7980   40.6984   -8.4040 H   0  0  0  0  0  0
   19.5798   41.2008   -6.8136 H   0  0  0  0  0  0
   20.0924   40.1465   -5.5223 H   0  0  0  0  0  0
   21.8827   40.7673   -4.0139 H   0  0  0  0  0  0
   23.3581   42.5736   -3.1547 H   0  0  0  0  0  0
   23.6736   44.6320   -4.4396 H   0  0  0  0  0  0
   21.0288   43.1599   -7.5050 H   0  0  0  0  0  0
   23.2030   46.6771   -5.7579 H   0  0  0  0  0  0
   24.5086   45.6019   -6.2367 H   0  0  0  0  0  0
   22.9981   47.2994   -8.2823 H   0  0  0  0  0  0
   24.3666   47.8941   -7.3916 H   0  0  0  0  0  0
   25.6926   47.1203   -8.9721 H   0  0  0  0  0  0
   25.4587   45.5351   -8.3376 H   0  0  0  0  0  0
   23.7503   46.8210  -10.5412 H   0  0  0  0  0  0
   25.1547   45.8585  -10.8619 H   0  0  0  0  0  0
   22.6706   44.8040   -9.4134 H   0  0  0  0  0  0
   22.9241   44.6859  -11.1369 H   0  0  0  0  0  0
   24.6327   40.7097   -9.1530 H   0  0  0  0  0  0
   25.1079   41.0027  -10.8370 H   0  0  0  0  0  0
   23.6263   40.1483  -10.4946 H   0  0  0  0  0  0
   18.6006   38.7818   -6.6000 H   0  0  0  0  0  0
   18.4640   39.6215   -8.1054 H   0  0  0  0  0  0
   17.2699   37.3579   -7.5626 H   0  0  0  0  0  0
   18.3617   37.9212  -10.2524 H   0  0  0  0  0  0
   17.1496   36.7278   -9.8910 H   0  0  0  0  0  0
   14.8762   37.3502   -9.1599 H   0  0  0  0  0  0
   13.0998   39.0989   -9.1674 H   0  0  0  0  0  0
   13.6918   41.4581   -9.5819 H   0  0  0  0  0  0
   17.7879   40.3171  -10.2311 H   0  0  0  0  0  0
   17.1600   42.5384  -10.6134 H   0  0  0  0  0  0
   17.1686   42.5861   -8.1323 H   0  0  0  0  0  0
   15.5027   43.1470   -8.1217 H   0  0  0  0  0  0
   16.7794   44.1742   -8.7744 H   0  0  0  0  0  0
   15.0785   42.9349  -11.9124 H   0  0  0  0  0  0
   15.5979   44.3778  -11.0536 H   0  0  0  0  0  0
   14.2423   43.4441  -10.4423 H   0  0  0  0  0  0
   20.4315   38.8486   -9.7099 H   0  0  0  0  0  0
  1  2  1  0  0  0
  1 41  1  0  0  0
  1 42  1  0  0  0
  1 43  1  0  0  0
  2 38  1  0  0  0
  2 22  1  0  0  0
  2  3  1  0  0  0
  3  4  2  0  0  0
  3  5  1  0  0  0
  5  6  1  0  0  0
  5 44  1  0  0  0
  6 39  1  0  0  0
  6  7  1  0  0  0
  6 24  1  0  0  0
  7  8  1  0  0  0
  7 45  1  0  0  0
  7 46  1  0  0  0
  8 13  1  0  0  0
  8  9  2  0  0  0
  9 10  1  0  0  0
  9 47  1  0  0  0
 10 11  2  0  0  0
 10 48  1  0  0  0
 11 12  1  0  0  0
 11 49  1  0  0  0
 12 13  2  0  0  0
 12 14  1  0  0  0
 13 50  1  0  0  0
 14 15  1  0  0  0
 15 16  1  0  0  0
 15 51  1  0  0  0
 15 52  1  0  0  0
 16 17  1  0  0  0
 16 53  1  0  0  0
 16 54  1  0  0  0
 17 18  1  0  0  0
 17 55  1  0  0  0
 17 56  1  0  0  0
 18 19  1  0  0  0
 18 57  1  0  0  0
 18 58  1  0  0  0
 19 20  1  0  0  0
 19 59  1  0  0  0
 19 60  1  0  0  0
 20 21  2  0  0  0
 20 22  1  0  0  0
 22 23  1  0  0  0
 23 61  1  0  0  0
 23 62  1  0  0  0
 23 63  1  0  0  0
 24 40  1  0  0  0
 24 25  1  0  0  0
 24 37  1  0  0  0
 25 26  1  0  0  0
 25 64  1  0  0  0
 25 65  1  0  0  0
 26 27  1  0  0  0
 26 66  1  0  0  0
 27 28  1  0  0  0
 27 67  1  0  0  0
 27 68  1  0  0  0
 28 33  1  0  0  0
 28 29  2  0  0  0
 29 30  1  0  0  0
 29 69  1  0  0  0
 30 31  2  0  0  0
 30 70  1  0  0  0
 31 32  1  0  0  0
 31 71  1  0  0  0
 32 33  2  0  0  0
 32 34  1  0  0  0
 33 72  1  0  0  0
 34 35  1  0  0  0
 34 36  1  0  0  0
 34 73  1  0  0  0
 35 74  1  0  0  0
 35 75  1  0  0  0
 35 76  1  0  0  0
 36 77  1  0  0  0
 36 78  1  0  0  0
 36 79  1  0  0  0
 37 80  1  0  0  0
M  END
> <s_m_source_file>
BACE_11.smi

> <i_m_source_file_index>
1

> <i_lp_mmshare_version>
42013

> <i_f3d_flags>
0

> <s_epik_input>
YzEyW2NIXVtjSF1bY0hdYyhbY0hdMilPW0NIMl1bQ0gyXVtDSDJdW0NIMl1bQ0gyXUMoPU8pTihbQ0gzXSlbQ0BASF0oW0NIM10pQyg9TylbTkhdW0NAQEhdKFtDSDJdMSlbQ0BIXShbT0hdKVtDSDJdW05IXVtDSDJdYzNbY0hdW2NIXVtjSF1jKFtjSF0zKVtDSF0oW0NIM10pW0NIM10=

> <s_epik_cmdline>
J2VwaWtfcHl0aG9uJywgJy1waCcsICc3LjAnLCAnLXRuJywgJzgnLCAnLW1hJywgJzIwMCcsICctaW1hZScsICc8aW5maWxlLm1hZT4nLCAnLW9tYWUnLCAnPG91dGZpbGUubWFlPic=

> <r_lp_tautomer_probability>
1

> <r_epik_Ionization_Penalty>
  1.9888

> <r_epik_Ionization_Penalty_Charging>
  0.0000

> <r_epik_Ionization_Penalty_Neutral>
  1.9888

> <r_epik_State_Penalty>
  2.1166

> <r_epik_Charging_Adjusted_Penalty>
2.11661

> <i_epik_Tot_Q>
0

> <i_epik_Tot_abs_Q>
0

> <s_lp_Force_Field>
OPLS_2005

> <r_lp_Energy>
44.3635

> <b_lp_Chiralities_Consistent>
1

> <s_lp_Variant>
BACE_11.smi:1-2

> <chiral flag>
1

> <version>
0

> <r_i_glide_lipo>
-0.657211

> <r_i_glide_hbond>
-0.267375

> <r_i_glide_metal>
-0

> <r_i_glide_rewards>
-0.382084

> <r_i_glide_erotb>
0.394218

> <r_i_glide_esite>
0

> <chiral flag>
1

> <s_i_glide_gridfile>
second_dock_grid_2

> <i_i_glide_lignum>
23

> <i_i_glide_rotatable_bonds>
7

> <r_i_docking_score>
-1.03017

> <r_i_glide_ligand_efficiency>
-0.0278425

> <r_i_glide_ligand_efficiency_sa>
-0.0927775

> <r_i_glide_ligand_efficiency_ln>
-0.22342

> <r_glide_XP_GScore>
-3.14677

> <r_i_glide_gscore>
-3.14677

> <r_i_glide_evdw>
-36.7511

> <r_i_glide_ecoul>
-3.98937

> <r_i_glide_energy>
-40.7405

> <r_i_glide_einternal>
9.79405

> <r_i_glide_emodel>
-49.4315

> <r_glide_XP_HBond>
-0.9975

> <i_i_glide_confnum>
1

> <i_i_glide_posenum>
1

> <r_i_glide_eff_state_penalty>
2.1166

> <i_glide_XP_PoseRank>
1

$$$$
BACE_11.smi:1
                    3D
 Structure written by MMmdl.
 80 82  0  0  1  0            999 V2000
   21.3593   41.7437   -4.6595 C   0  0  0  0  0  0
   21.2409   41.5566   -6.1813 C   0  0  1  0  0  0
   20.4211   40.3223   -6.6171 C   0  0  0  0  0  0
   20.5852   39.2446   -6.0424 O   0  0  0  0  0  0
   19.5852   40.4659   -7.6601 N   0  0  0  0  0  0
   18.9202   39.4209   -8.4427 C   0  0  1  0  0  0
   19.9341   38.7334   -9.3954 C   0  0  0  0  0  0
   20.5683   39.7063  -10.3795 C   0  0  0  0  0  0
   20.0613   39.8339  -11.6891 C   0  0  0  0  0  0
   20.6183   40.7794  -12.5727 C   0  0  0  0  0  0
   21.6695   41.6180  -12.1457 C   0  0  0  0  0  0
   22.1831   41.4949  -10.8327 C   0  0  0  0  0  0
   21.6450   40.5190   -9.9754 C   0  0  0  0  0  0
   23.1710   42.2844  -10.2991 O   0  0  0  0  0  0
   23.8334   43.2227  -11.1227 C   0  0  0  0  0  0
   24.8989   43.9345  -10.2735 C   0  0  0  0  0  0
   24.3239   44.9143   -9.2290 C   0  0  0  0  0  0
   24.3497   44.4255   -7.7599 C   0  0  0  0  0  0
   23.3582   43.3108   -7.3439 C   0  0  0  0  0  0
   21.8664   43.7031   -7.3478 C   0  0  0  0  0  0
   21.5479   44.7984   -7.8153 O   0  0  0  0  0  0
   20.9322   42.8557   -6.8365 N   0  0  0  0  0  0
   19.5322   43.3085   -6.7949 C   0  0  0  0  0  0
   18.0707   38.4127   -7.6200 C   0  0  1  0  0  0
   16.7838   39.0000   -6.9889 C   0  0  0  0  0  0
   16.6605   40.4408   -7.2427 N   0  0  0  0  0  0
   15.2957   40.9177   -7.4661 C   0  0  0  0  0  0
   15.2416   41.9524   -8.5683 C   0  0  0  0  0  0
   14.3552   41.7761   -9.6505 C   0  0  0  0  0  0
   14.3378   42.7133  -10.6989 C   0  0  0  0  0  0
   15.1981   43.8274  -10.6700 C   0  0  0  0  0  0
   16.0920   44.0107   -9.5930 C   0  0  0  0  0  0
   16.1014   43.0708   -8.5405 C   0  0  0  0  0  0
   17.0457   45.1973   -9.5622 C   0  0  0  0  0  0
   18.5014   44.7527   -9.7739 C   0  0  0  0  0  0
   16.8937   46.0274   -8.2759 C   0  0  0  0  0  0
   17.6981   37.3896   -8.5246 O   0  0  0  0  0  0
   22.2334   41.2387   -6.4983 H   0  0  0  0  0  0
   18.2188   39.9757   -9.0705 H   0  0  0  0  0  0
   18.6783   37.9851   -6.8256 H   0  0  0  0  0  0
   21.7589   40.8521   -4.1732 H   0  0  0  0  0  0
   20.3928   41.9716   -4.2079 H   0  0  0  0  0  0
   22.0308   42.5688   -4.4256 H   0  0  0  0  0  0
   19.5204   41.3994   -8.0411 H   0  0  0  0  0  0
   20.7219   38.2440   -8.8200 H   0  0  0  0  0  0
   19.4483   37.9391   -9.9632 H   0  0  0  0  0  0
   19.2381   39.2157  -12.0174 H   0  0  0  0  0  0
   20.2260   40.8779  -13.5755 H   0  0  0  0  0  0
   22.0575   42.3542  -12.8356 H   0  0  0  0  0  0
   22.0472   40.4291   -8.9763 H   0  0  0  0  0  0
   24.3144   42.7052  -11.9541 H   0  0  0  0  0  0
   23.1312   43.9487  -11.5391 H   0  0  0  0  0  0
   25.5668   43.2112   -9.8023 H   0  0  0  0  0  0
   25.5304   44.5063  -10.9558 H   0  0  0  0  0  0
   24.9384   45.8148   -9.2652 H   0  0  0  0  0  0
   23.3329   45.2508   -9.5244 H   0  0  0  0  0  0
   25.3609   44.0961   -7.5195 H   0  0  0  0  0  0
   24.1792   45.2876   -7.1133 H   0  0  0  0  0  0
   23.5140   42.4238   -7.9540 H   0  0  0  0  0  0
   23.6173   43.0110   -6.3311 H   0  0  0  0  0  0
   19.0910   43.2708   -7.7918 H   0  0  0  0  0  0
   19.4382   44.3337   -6.4397 H   0  0  0  0  0  0
   18.9188   42.6976   -6.1332 H   0  0  0  0  0  0
   15.9210   38.5198   -7.4501 H   0  0  0  0  0  0
   16.7108   38.7746   -5.9238 H   0  0  0  0  0  0
   17.0239   40.9414   -6.4334 H   0  0  0  0  0  0
   14.6545   40.0794   -7.7372 H   0  0  0  0  0  0
   14.8611   41.3421   -6.5644 H   0  0  0  0  0  0
   13.7115   40.9091   -9.6907 H   0  0  0  0  0  0
   13.6713   42.5649  -11.5348 H   0  0  0  0  0  0
   15.1747   44.5274  -11.4888 H   0  0  0  0  0  0
   16.7860   43.1976   -7.7147 H   0  0  0  0  0  0
   16.7845   45.8531  -10.3939 H   0  0  0  0  0  0
   18.6120   44.2064  -10.7113 H   0  0  0  0  0  0
   18.8454   44.1037   -8.9695 H   0  0  0  0  0  0
   19.1719   45.6120   -9.8140 H   0  0  0  0  0  0
   15.8611   46.3472   -8.1363 H   0  0  0  0  0  0
   17.5128   46.9240   -8.3128 H   0  0  0  0  0  0
   17.1860   45.4685   -7.3876 H   0  0  0  0  0  0
   16.9362   36.9473   -8.1803 H   0  0  0  0  0  0
  1  2  1  0  0  0
  1 41  1  0  0  0
  1 42  1  0  0  0
  1 43  1  0  0  0
  2 38  1  0  0  0
  2 22  1  0  0  0
  2  3  1  0  0  0
  3  4  2  0  0  0
  3  5  1  0  0  0
  5  6  1  0  0  0
  5 44  1  0  0  0
  6 39  1  0  0  0
  6  7  1  0  0  0
  6 24  1  0  0  0
  7  8  1  0  0  0
  7 45  1  0  0  0
  7 46  1  0  0  0
  8 13  1  0  0  0
  8  9  2  0  0  0
  9 10  1  0  0  0
  9 47  1  0  0  0
 10 11  2  0  0  0
 10 48  1  0  0  0
 11 12  1  0  0  0
 11 49  1  0  0  0
 12 13  2  0  0  0
 12 14  1  0  0  0
 13 50  1  0  0  0
 14 15  1  0  0  0
 15 16  1  0  0  0
 15 51  1  0  0  0
 15 52  1  0  0  0
 16 17  1  0  0  0
 16 53  1  0  0  0
 16 54  1  0  0  0
 17 18  1  0  0  0
 17 55  1  0  0  0
 17 56  1  0  0  0
 18 19  1  0  0  0
 18 57  1  0  0  0
 18 58  1  0  0  0
 19 20  1  0  0  0
 19 59  1  0  0  0
 19 60  1  0  0  0
 20 21  2  0  0  0
 20 22  1  0  0  0
 22 23  1  0  0  0
 23 61  1  0  0  0
 23 62  1  0  0  0
 23 63  1  0  0  0
 24 40  1  0  0  0
 24 25  1  0  0  0
 24 37  1  0  0  0
 25 26  1  0  0  0
 25 64  1  0  0  0
 25 65  1  0  0  0
 26 27  1  0  0  0
 26 66  1  0  0  0
 27 28  1  0  0  0
 27 67  1  0  0  0
 27 68  1  0  0  0
 28 33  1  0  0  0
 28 29  2  0  0  0
 29 30  1  0  0  0
 29 69  1  0  0  0
 30 31  2  0  0  0
 30 70  1  0  0  0
 31 32  1  0  0  0
 31 71  1  0  0  0
 32 33  2  0  0  0
 32 34  1  0  0  0
 33 72  1  0  0  0
 34 35  1  0  0  0
 34 36  1  0  0  0
 34 73  1  0  0  0
 35 74  1  0  0  0
 35 75  1  0  0  0
 35 76  1  0  0  0
 36 77  1  0  0  0
 36 78  1  0  0  0
 36 79  1  0  0  0
 37 80  1  0  0  0
M  END
> <s_m_source_file>
BACE_11.smi

> <i_m_source_file_index>
1

> <i_lp_mmshare_version>
42013

> <i_f3d_flags>
0

> <s_epik_input>
YzEyW2NIXVtjSF1bY0hdYyhbY0hdMilPW0NIMl1bQ0gyXVtDSDJdW0NIMl1bQ0gyXUMoPU8pTihbQ0gzXSlbQ0BASF0oW0NIM10pQyg9TylbTkhdW0NAQEhdKFtDSDJdMSlbQ0BIXShbT0hdKVtDSDJdW05IXVtDSDJdYzNbY0hdW2NIXVtjSF1jKFtjSF0zKVtDSF0oW0NIM10pW0NIM10=

> <s_epik_cmdline>
J2VwaWtfcHl0aG9uJywgJy1waCcsICc3LjAnLCAnLXRuJywgJzgnLCAnLW1hJywgJzIwMCcsICctaW1hZScsICc8aW5maWxlLm1hZT4nLCAnLW9tYWUnLCAnPG91dGZpbGUubWFlPic=

> <r_lp_tautomer_probability>
1

> <r_epik_Ionization_Penalty>
  1.9888

> <r_epik_Ionization_Penalty_Charging>
  0.0000

> <r_epik_Ionization_Penalty_Neutral>
  1.9888

> <r_epik_State_Penalty>
  2.1166

> <r_epik_Charging_Adjusted_Penalty>
2.11661

> <i_epik_Tot_Q>
0

> <i_epik_Tot_abs_Q>
0

> <s_lp_Force_Field>
OPLS_2005

> <r_lp_Energy>
44.3635

> <b_lp_Chiralities_Consistent>
1

> <s_lp_Variant>
BACE_11.smi:1-2

> <chiral flag>
1

> <version>
0

> <r_i_glide_lipo>
-0.657211

> <r_i_glide_hbond>
-0.267375

> <r_i_glide_metal>
-0

> <r_i_glide_rewards>
-0.382084

> <r_i_glide_erotb>
0.394218

> <r_i_glide_esite>
0

> <chiral flag>
1

> <s_i_glide_gridfile>
second_dock_grid_2

> <i_i_glide_lignum>
23

> <i_i_glide_rotatable_bonds>
7

> <r_i_docking_score>
-0.769442

> <r_i_glide_ligand_efficiency>
-0.0207957

> <r_i_glide_ligand_efficiency_sa>
-0.0692959

> <r_i_glide_ligand_efficiency_ln>
-0.166874

> <r_glide_XP_GScore>
-2.88604

> <r_i_glide_gscore>
-2.88604

> <r_i_glide_evdw>
-33.7686

> <r_i_glide_ecoul>
-7.14592

> <r_i_glide_energy>
-40.9145

> <r_i_glide_einternal>
16.5074

> <r_i_glide_emodel>
-51.28

> <r_glide_XP_HBond>
-0.9975

> <i_i_glide_confnum>
1

> <i_i_glide_posenum>
4

> <r_i_glide_eff_state_penalty>
2.1166

> <i_glide_XP_PoseRank>
2

$$$$
BACE_11.smi:1
                    3D
 Structure written by MMmdl.
 80 82  0  0  1  0            999 V2000
   28.5221   44.3498  -13.2554 C   0  0  0  0  0  0
   27.9206   44.1596  -11.8492 C   0  0  1  0  0  0
   26.3744   44.0847  -11.7952 C   0  0  0  0  0  0
   25.7044   44.8086  -12.5327 O   0  0  0  0  0  0
   25.8092   43.2773  -10.8787 N   0  0  0  0  0  0
   24.4083   43.2628  -10.4474 C   0  0  1  0  0  0
   24.0856   44.4953   -9.5592 C   0  0  0  0  0  0
   24.9399   44.5565   -8.3071 C   0  0  0  0  0  0
   24.4167   44.1010   -7.0854 C   0  0  0  0  0  0
   25.2249   44.1116   -5.9375 C   0  0  0  0  0  0
   26.5630   44.5401   -6.0038 C   0  0  0  0  0  0
   27.1030   44.9944   -7.2321 C   0  0  0  0  0  0
   26.2679   45.0340   -8.3620 C   0  0  0  0  0  0
   28.4069   45.3994   -7.4057 O   0  0  0  0  0  0
   29.3230   45.2049   -6.3405 C   0  0  0  0  0  0
   30.7277   45.6394   -6.7858 C   0  0  0  0  0  0
   31.4467   44.6551   -7.7335 C   0  0  0  0  0  0
   31.4965   45.0642   -9.2253 C   0  0  0  0  0  0
   30.2045   44.8872  -10.0585 C   0  0  0  0  0  0
   29.7744   43.4261  -10.3011 C   0  0  0  0  0  0
   30.4367   42.5304   -9.7733 O   0  0  0  0  0  0
   28.6977   43.1503  -11.0870 N   0  0  0  0  0  0
   28.3506   41.7424  -11.3199 C   0  0  0  0  0  0
   23.4039   42.9962  -11.6040 C   0  0  1  0  0  0
   22.2524   42.0451  -11.2079 C   0  0  0  0  0  0
   21.6585   41.4245  -12.3998 N   0  0  0  0  0  0
   20.9714   40.1545  -12.1572 C   0  0  0  0  0  0
   19.8004   40.2097  -11.1912 C   0  0  0  0  0  0
   18.7977   41.1952  -11.3094 C   0  0  0  0  0  0
   17.7029   41.1993  -10.4229 C   0  0  0  0  0  0
   17.6024   40.2155   -9.4193 C   0  0  0  0  0  0
   18.6010   39.2234   -9.2919 C   0  0  0  0  0  0
   19.6923   39.2261  -10.1865 C   0  0  0  0  0  0
   18.5102   38.1299   -8.2332 C   0  0  0  0  0  0
   17.6131   36.9799   -8.7120 C   0  0  0  0  0  0
   18.0750   38.6510   -6.8509 C   0  0  0  0  0  0
   22.8603   44.2234  -12.0400 O   0  0  0  0  0  0
   28.0589   45.1235  -11.3675 H   0  0  0  0  0  0
   24.3703   42.3941   -9.7907 H   0  0  0  0  0  0
   23.9500   42.5673  -12.4395 H   0  0  0  0  0  0
   27.9513   45.0612  -13.8563 H   0  0  0  0  0  0
   28.5517   43.4038  -13.7955 H   0  0  0  0  0  0
   29.5449   44.7199  -13.2003 H   0  0  0  0  0  0
   26.4449   42.7153  -10.3325 H   0  0  0  0  0  0
   24.2245   45.4217  -10.1199 H   0  0  0  0  0  0
   23.0337   44.4727   -9.2696 H   0  0  0  0  0  0
   23.4006   43.7364   -7.0245 H   0  0  0  0  0  0
   24.8176   43.7498   -5.0031 H   0  0  0  0  0  0
   27.1540   44.5024   -5.1028 H   0  0  0  0  0  0
   26.6711   45.3982   -9.2938 H   0  0  0  0  0  0
   29.0155   45.8145   -5.4902 H   0  0  0  0  0  0
   29.3336   44.1614   -6.0188 H   0  0  0  0  0  0
   30.7012   46.6424   -7.2095 H   0  0  0  0  0  0
   31.3325   45.7258   -5.8823 H   0  0  0  0  0  0
   32.4839   44.5976   -7.3992 H   0  0  0  0  0  0
   31.0662   43.6424   -7.5976 H   0  0  0  0  0  0
   31.8178   46.1020   -9.2947 H   0  0  0  0  0  0
   32.2890   44.4913   -9.7064 H   0  0  0  0  0  0
   29.3868   45.4423   -9.6036 H   0  0  0  0  0  0
   30.3793   45.3436  -11.0327 H   0  0  0  0  0  0
   27.8388   41.3425  -10.4428 H   0  0  0  0  0  0
   29.2320   41.1243  -11.5133 H   0  0  0  0  0  0
   27.6920   41.6138  -12.1785 H   0  0  0  0  0  0
   22.6554   41.2552  -10.5710 H   0  0  0  0  0  0
   21.4950   42.5636  -10.6103 H   0  0  0  0  0  0
   22.4398   41.2269  -13.0271 H   0  0  0  0  0  0
   20.6000   39.7634  -13.1019 H   0  0  0  0  0  0
   21.6834   39.4150  -11.7903 H   0  0  0  0  0  0
   18.8738   41.9494  -12.0797 H   0  0  0  0  0  0
   16.9380   41.9550  -10.5121 H   0  0  0  0  0  0
   16.7532   40.2241   -8.7543 H   0  0  0  0  0  0
   20.4533   38.4636  -10.1020 H   0  0  0  0  0  0
   19.5167   37.7310   -8.1050 H   0  0  0  0  0  0
   17.9531   36.5886   -9.6709 H   0  0  0  0  0  0
   16.5798   37.3076   -8.8266 H   0  0  0  0  0  0
   17.6215   36.1546   -8.0018 H   0  0  0  0  0  0
   18.7237   39.4599   -6.5101 H   0  0  0  0  0  0
   18.1229   37.8543   -6.1076 H   0  0  0  0  0  0
   17.0496   39.0204   -6.8530 H   0  0  0  0  0  0
   23.5902   44.7524  -12.3386 H   0  0  0  0  0  0
  1  2  1  0  0  0
  1 41  1  0  0  0
  1 42  1  0  0  0
  1 43  1  0  0  0
  2 38  1  0  0  0
  2 22  1  0  0  0
  2  3  1  0  0  0
  3  4  2  0  0  0
  3  5  1  0  0  0
  5  6  1  0  0  0
  5 44  1  0  0  0
  6 39  1  0  0  0
  6  7  1  0  0  0
  6 24  1  0  0  0
  7  8  1  0  0  0
  7 45  1  0  0  0
  7 46  1  0  0  0
  8 13  1  0  0  0
  8  9  2  0  0  0
  9 10  1  0  0  0
  9 47  1  0  0  0
 10 11  2  0  0  0
 10 48  1  0  0  0
 11 12  1  0  0  0
 11 49  1  0  0  0
 12 13  2  0  0  0
 12 14  1  0  0  0
 13 50  1  0  0  0
 14 15  1  0  0  0
 15 16  1  0  0  0
 15 51  1  0  0  0
 15 52  1  0  0  0
 16 17  1  0  0  0
 16 53  1  0  0  0
 16 54  1  0  0  0
 17 18  1  0  0  0
 17 55  1  0  0  0
 17 56  1  0  0  0
 18 19  1  0  0  0
 18 57  1  0  0  0
 18 58  1  0  0  0
 19 20  1  0  0  0
 19 59  1  0  0  0
 19 60  1  0  0  0
 20 21  2  0  0  0
 20 22  1  0  0  0
 22 23  1  0  0  0
 23 61  1  0  0  0
 23 62  1  0  0  0
 23 63  1  0  0  0
 24 40  1  0  0  0
 24 25  1  0  0  0
 24 37  1  0  0  0
 25 26  1  0  0  0
 25 64  1  0  0  0
 25 65  1  0  0  0
 26 27  1  0  0  0
 26 66  1  0  0  0
 27 28  1  0  0  0
 27 67  1  0  0  0
 27 68  1  0  0  0
 28 33  1  0  0  0
 28 29  2  0  0  0
 29 30  1  0  0  0
 29 69  1  0  0  0
 30 31  2  0  0  0
 30 70  1  0  0  0
 31 32  1  0  0  0
 31 71  1  0  0  0
 32 33  2  0  0  0
 32 34  1  0  0  0
 33 72  1  0  0  0
 34 35  1  0  0  0
 34 36  1  0  0  0
 34 73  1  0  0  0
 35 74  1  0  0  0
 35 75  1  0  0  0
 35 76  1  0  0  0
 36 77  1  0  0  0
 36 78  1  0  0  0
 36 79  1  0  0  0
 37 80  1  0  0  0
M  END
> <s_m_source_file>
BACE_11.smi

> <i_m_source_file_index>
1

> <i_lp_mmshare_version>
42013

> <i_f3d_flags>
0

> <s_epik_input>
YzEyW2NIXVtjSF1bY0hdYyhbY0hdMilPW0NIMl1bQ0gyXVtDSDJdW0NIMl1bQ0gyXUMoPU8pTihbQ0gzXSlbQ0BASF0oW0NIM10pQyg9TylbTkhdW0NAQEhdKFtDSDJdMSlbQ0BIXShbT0hdKVtDSDJdW05IXVtDSDJdYzNbY0hdW2NIXVtjSF1jKFtjSF0zKVtDSF0oW0NIM10pW0NIM10=

> <s_epik_cmdline>
J2VwaWtfcHl0aG9uJywgJy1waCcsICc3LjAnLCAnLXRuJywgJzgnLCAnLW1hJywgJzIwMCcsICctaW1hZScsICc8aW5maWxlLm1hZT4nLCAnLW9tYWUnLCAnPG91dGZpbGUubWFlPic=

> <r_lp_tautomer_probability>
1

> <r_epik_Ionization_Penalty>
  1.9888

> <r_epik_Ionization_Penalty_Charging>
  0.0000

> <r_epik_Ionization_Penalty_Neutral>
  1.9888

> <r_epik_State_Penalty>
  2.1166

> <r_epik_Charging_Adjusted_Penalty>
2.11661

> <i_epik_Tot_Q>
0

> <i_epik_Tot_abs_Q>
0

> <s_lp_Force_Field>
OPLS_2005

> <r_lp_Energy>
44.3635

> <b_lp_Chiralities_Consistent>
1

> <s_lp_Variant>
BACE_11.smi:1-2

> <chiral flag>
1

> <version>
0

> <r_i_glide_lipo>
-0.657211

> <r_i_glide_hbond>
-0.267375

> <r_i_glide_metal>
-0

> <r_i_glide_rewards>
-0.382084

> <r_i_glide_erotb>
0.394218

> <r_i_glide_esite>
0

> <chiral flag>
1

> <s_i_glide_gridfile>
second_dock_grid_2

> <i_i_glide_lignum>
23

> <i_i_glide_rotatable_bonds>
7

> <r_i_docking_score>
-0.592925

> <r_i_glide_ligand_efficiency>
-0.016025

> <r_i_glide_ligand_efficiency_sa>
-0.0533989

> <r_i_glide_ligand_efficiency_ln>
-0.128592

> <r_glide_XP_GScore>
-2.70953

> <r_i_glide_gscore>
-2.70953

> <r_i_glide_evdw>
-35.2603

> <r_i_glide_ecoul>
-7.69359

> <r_i_glide_energy>
-42.9539

> <r_i_glide_einternal>
1.4208

> <r_i_glide_emodel>
-52.3059

> <r_glide_XP_HBond>
-0.9975

> <i_i_glide_confnum>
1

> <i_i_glide_posenum>
5

> <r_i_glide_eff_state_penalty>
2.1166

> <i_glide_XP_PoseRank>
3

$$$$
BACE_11.smi:1
                    3D
 Structure written by MMmdl.
 80 82  0  0  1  0            999 V2000
   28.7039   44.1706  -13.3817 C   0  0  0  0  0  0
   28.0988   44.0942  -11.9664 C   0  0  1  0  0  0
   26.5514   44.0524  -11.8991 C   0  0  0  0  0  0
   25.8896   44.7694  -12.6469 O   0  0  0  0  0  0
   25.9823   43.2820  -10.9567 N   0  0  0  0  0  0
   24.5979   43.3165  -10.4720 C   0  0  1  0  0  0
   24.3457   44.5583   -9.5815 C   0  0  0  0  0  0
   25.2708   44.6260   -8.3812 C   0  0  0  0  0  0
   24.8391   44.1255   -7.1401 C   0  0  0  0  0  0
   25.7063   44.1505   -6.0370 C   0  0  0  0  0  0
   27.0151   44.6528   -6.1612 C   0  0  0  0  0  0
   27.4649   45.1511   -7.4076 C   0  0  0  0  0  0
   26.5746   45.1565   -8.4986 C   0  0  0  0  0  0
   28.7332   45.6337   -7.6406 O   0  0  0  0  0  0
   29.6929   45.5588   -6.6004 C   0  0  0  0  0  0
   31.0782   45.9389   -7.1486 C   0  0  0  0  0  0
   31.7647   44.8293   -7.9723 C   0  0  0  0  0  0
   31.7757   45.0359   -9.5040 C   0  0  0  0  0  0
   30.4380   44.8591  -10.2616 C   0  0  0  0  0  0
   29.8986   43.4151  -10.3225 C   0  0  0  0  0  0
   30.4580   42.5500   -9.6452 O   0  0  0  0  0  0
   28.8439   43.1141  -11.1320 N   0  0  0  0  0  0
   28.4837   41.7019  -11.3068 C   0  0  0  0  0  0
   23.5286   43.0660  -11.5784 C   0  0  1  0  0  0
   22.3198   42.2373  -11.0682 C   0  0  0  0  0  0
   21.6600   41.5292  -12.1685 N   0  0  0  0  0  0
   20.9503   40.3116  -11.7713 C   0  0  0  0  0  0
   19.6223   40.5487  -11.0806 C   0  0  0  0  0  0
   18.6667   41.4154  -11.6466 C   0  0  0  0  0  0
   17.4163   41.5860  -11.0252 C   0  0  0  0  0  0
   17.1116   40.8867   -9.8421 C   0  0  0  0  0  0
   18.0617   40.0158   -9.2586 C   0  0  0  0  0  0
   19.3187   39.8594   -9.8874 C   0  0  0  0  0  0
   17.7815   39.2384   -7.9682 C   0  0  0  0  0  0
   17.7965   37.7208   -8.2153 C   0  0  0  0  0  0
   16.4870   39.6453   -7.2405 C   0  0  0  0  0  0
   23.0519   44.3122  -12.0400 O   0  0  0  0  0  0
   28.2648   45.0839  -11.5444 H   0  0  0  0  0  0
   24.5645   42.4517   -9.8098 H   0  0  0  0  0  0
   23.9948   42.5519  -12.4227 H   0  0  0  0  0  0
   28.1497   44.8530  -14.0247 H   0  0  0  0  0  0
   28.7163   43.1915  -13.8589 H   0  0  0  0  0  0
   29.7347   44.5232  -13.3529 H   0  0  0  0  0  0
   26.6136   42.7157  -10.4123 H   0  0  0  0  0  0
   24.4664   45.4744  -10.1579 H   0  0  0  0  0  0
   23.3139   44.5599   -9.2307 H   0  0  0  0  0  0
   23.8478   43.7098   -7.0314 H   0  0  0  0  0  0
   25.3750   43.7514   -5.0906 H   0  0  0  0  0  0
   27.6544   44.6316   -5.2937 H   0  0  0  0  0  0
   26.9104   45.5499   -9.4471 H   0  0  0  0  0  0
   29.4098   46.2526   -5.8074 H   0  0  0  0  0  0
   29.7343   44.5599   -6.1662 H   0  0  0  0  0  0
   31.0270   46.8742   -7.7074 H   0  0  0  0  0  0
   31.7137   46.1525   -6.2874 H   0  0  0  0  0  0
   32.8074   44.7984   -7.6567 H   0  0  0  0  0  0
   31.3723   43.8518   -7.6998 H   0  0  0  0  0  0
   32.1687   46.0308   -9.7199 H   0  0  0  0  0  0
   32.5052   44.3490   -9.9346 H   0  0  0  0  0  0
   29.6836   45.5210   -9.8483 H   0  0  0  0  0  0
   30.6022   45.1940  -11.2850 H   0  0  0  0  0  0
   27.9275   41.3479  -10.4408 H   0  0  0  0  0  0
   29.3609   41.0663  -11.4295 H   0  0  0  0  0  0
   27.8624   41.5410  -12.1878 H   0  0  0  0  0  0
   22.6910   41.4949  -10.3602 H   0  0  0  0  0  0
   21.6125   42.8540  -10.5149 H   0  0  0  0  0  0
   22.3813   41.2764  -12.8416 H   0  0  0  0  0  0
   20.7381   39.7207  -12.6629 H   0  0  0  0  0  0
   21.5910   39.6818  -11.1509 H   0  0  0  0  0  0
   18.8950   41.9426  -12.5578 H   0  0  0  0  0  0
   16.6864   42.2516  -11.4578 H   0  0  0  0  0  0
   16.1414   41.0336   -9.3924 H   0  0  0  0  0  0
   20.0538   39.1944   -9.4530 H   0  0  0  0  0  0
   18.6057   39.4687   -7.2931 H   0  0  0  0  0  0
   18.7394   37.3847   -8.6453 H   0  0  0  0  0  0
   16.9942   37.4217   -8.8921 H   0  0  0  0  0  0
   17.6601   37.1799   -7.2789 H   0  0  0  0  0  0
   16.4718   40.7106   -7.0054 H   0  0  0  0  0  0
   16.3856   39.1062   -6.2965 H   0  0  0  0  0  0
   15.6002   39.4171   -7.8331 H   0  0  0  0  0  0
   23.8044   44.7768  -12.3885 H   0  0  0  0  0  0
  1  2  1  0  0  0
  1 41  1  0  0  0
  1 42  1  0  0  0
  1 43  1  0  0  0
  2 38  1  0  0  0
  2 22  1  0  0  0
  2  3  1  0  0  0
  3  4  2  0  0  0
  3  5  1  0  0  0
  5  6  1  0  0  0
  5 44  1  0  0  0
  6 39  1  0  0  0
  6  7  1  0  0  0
  6 24  1  0  0  0
  7  8  1  0  0  0
  7 45  1  0  0  0
  7 46  1  0  0  0
  8 13  1  0  0  0
  8  9  2  0  0  0
  9 10  1  0  0  0
  9 47  1  0  0  0
 10 11  2  0  0  0
 10 48  1  0  0  0
 11 12  1  0  0  0
 11 49  1  0  0  0
 12 13  2  0  0  0
 12 14  1  0  0  0
 13 50  1  0  0  0
 14 15  1  0  0  0
 15 16  1  0  0  0
 15 51  1  0  0  0
 15 52  1  0  0  0
 16 17  1  0  0  0
 16 53  1  0  0  0
 16 54  1  0  0  0
 17 18  1  0  0  0
 17 55  1  0  0  0
 17 56  1  0  0  0
 18 19  1  0  0  0
 18 57  1  0  0  0
 18 58  1  0  0  0
 19 20  1  0  0  0
 19 59  1  0  0  0
 19 60  1  0  0  0
 20 21  2  0  0  0
 20 22  1  0  0  0
 22 23  1  0  0  0
 23 61  1  0  0  0
 23 62  1  0  0  0
 23 63  1  0  0  0
 24 40  1  0  0  0
 24 25  1  0  0  0
 24 37  1  0  0  0
 25 26  1  0  0  0
 25 64  1  0  0  0
 25 65  1  0  0  0
 26 27  1  0  0  0
 26 66  1  0  0  0
 27 28  1  0  0  0
 27 67  1  0  0  0
 27 68  1  0  0  0
 28 33  1  0  0  0
 28 29  2  0  0  0
 29 30  1  0  0  0
 29 69  1  0  0  0
 30 31  2  0  0  0
 30 70  1  0  0  0
 31 32  1  0  0  0
 31 71  1  0  0  0
 32 33  2  0  0  0
 32 34  1  0  0  0
 33 72  1  0  0  0
 34 35  1  0  0  0
 34 36  1  0  0  0
 34 73  1  0  0  0
 35 74  1  0  0  0
 35 75  1  0  0  0
 35 76  1  0  0  0
 36 77  1  0  0  0
 36 78  1  0  0  0
 36 79  1  0  0  0
 37 80  1  0  0  0
M  END
> <s_m_source_file>
BACE_11.smi

> <i_m_source_file_index>
1

> <i_lp_mmshare_version>
42013

> <i_f3d_flags>
0

> <s_epik_input>
YzEyW2NIXVtjSF1bY0hdYyhbY0hdMilPW0NIMl1bQ0gyXVtDSDJdW0NIMl1bQ0gyXUMoPU8pTihbQ0gzXSlbQ0BASF0oW0NIM10pQyg9TylbTkhdW0NAQEhdKFtDSDJdMSlbQ0BIXShbT0hdKVtDSDJdW05IXVtDSDJdYzNbY0hdW2NIXVtjSF1jKFtjSF0zKVtDSF0oW0NIM10pW0NIM10=

> <s_epik_cmdline>
J2VwaWtfcHl0aG9uJywgJy1waCcsICc3LjAnLCAnLXRuJywgJzgnLCAnLW1hJywgJzIwMCcsICctaW1hZScsICc8aW5maWxlLm1hZT4nLCAnLW9tYWUnLCAnPG91dGZpbGUubWFlPic=

> <r_lp_tautomer_probability>
1

> <r_epik_Ionization_Penalty>
  1.9888

> <r_epik_Ionization_Penalty_Charging>
  0.0000

> <r_epik_Ionization_Penalty_Neutral>
  1.9888

> <r_epik_State_Penalty>
  2.1166

> <r_epik_Charging_Adjusted_Penalty>
2.11661

> <i_epik_Tot_Q>
0

> <i_epik_Tot_abs_Q>
0

> <s_lp_Force_Field>
OPLS_2005

> <r_lp_Energy>
44.3635

> <b_lp_Chiralities_Consistent>
1

> <s_lp_Variant>
BACE_11.smi:1-2

> <chiral flag>
1

> <version>
0

> <r_i_glide_lipo>
-0.657211

> <r_i_glide_hbond>
-0.267375

> <r_i_glide_metal>
-0

> <r_i_glide_rewards>
-0.382084

> <r_i_glide_erotb>
0.394218

> <r_i_glide_esite>
0

> <chiral flag>
1

> <s_i_glide_gridfile>
second_dock_grid_2

> <i_i_glide_lignum>
23

> <i_i_glide_rotatable_bonds>
7

> <r_i_docking_score>
-0.0234128

> <r_i_glide_ligand_efficiency>
-0.000632779

> <r_i_glide_ligand_efficiency_sa>
-0.00210856

> <r_i_glide_ligand_efficiency_ln>
-0.00507769

> <r_glide_XP_GScore>
-2.14001

> <r_i_glide_gscore>
-2.14001

> <r_i_glide_evdw>
-34.2461

> <r_i_glide_ecoul>
-7.3799

> <r_i_glide_energy>
-41.626

> <r_i_glide_einternal>
1.57033

> <r_i_glide_emodel>
-54.7798

> <r_glide_XP_HBond>
-0.9975

> <i_i_glide_confnum>
1

> <i_i_glide_posenum>
9

> <r_i_glide_eff_state_penalty>
2.1166

> <i_glide_XP_PoseRank>
4

$$$$
BACE_11.smi:1
                    3D
 Structure written by MMmdl.
 80 82  0  0  1  0            999 V2000
   28.5291   44.2691  -13.3006 C   0  0  0  0  0  0
   27.9257   44.1466  -11.8893 C   0  0  1  0  0  0
   26.3807   44.0821  -11.8298 C   0  0  0  0  0  0
   25.7093   44.7819  -12.5890 O   0  0  0  0  0  0
   25.8243   43.3042  -10.8868 N   0  0  0  0  0  0
   24.4279   43.2875  -10.4455 C   0  0  1  0  0  0
   24.0950   44.5162   -9.5618 C   0  0  0  0  0  0
   24.9683   44.6009   -8.3223 C   0  0  0  0  0  0
   24.4842   44.1147   -7.0954 C   0  0  0  0  0  0
   25.3086   44.1494   -5.9596 C   0  0  0  0  0  0
   26.6243   44.6435   -6.0400 C   0  0  0  0  0  0
   27.1239   45.1305   -7.2722 C   0  0  0  0  0  0
   26.2744   45.1309   -8.3956 C   0  0  0  0  0  0
   28.4033   45.6008   -7.4637 O   0  0  0  0  0  0
   29.3311   45.5027   -6.3952 C   0  0  0  0  0  0
   30.7306   45.8812   -6.9037 C   0  0  0  0  0  0
   31.4163   44.7940   -7.7601 C   0  0  0  0  0  0
   31.4940   45.0856   -9.2767 C   0  0  0  0  0  0
   30.1971   44.8978  -10.1001 C   0  0  0  0  0  0
   29.7309   43.4365  -10.2738 C   0  0  0  0  0  0
   30.3409   42.5499   -9.6732 O   0  0  0  0  0  0
   28.6797   43.1490  -11.0893 N   0  0  0  0  0  0
   28.3442   41.7359  -11.3144 C   0  0  0  0  0  0
   23.4137   42.9925  -11.5873 C   0  0  1  0  0  0
   22.2679   42.0554  -11.1319 C   0  0  0  0  0  0
   21.6600   41.3498  -12.2634 N   0  0  0  0  0  0
   20.9089   40.1506  -11.8911 C   0  0  0  0  0  0
   19.6991   40.4162  -11.0147 C   0  0  0  0  0  0
   18.6607   41.2570  -11.4655 C   0  0  0  0  0  0
   17.5376   41.4886  -10.6475 C   0  0  0  0  0  0
   17.4505   40.8845   -9.3777 C   0  0  0  0  0  0
   18.4846   40.0411   -8.9172 C   0  0  0  0  0  0
   19.6041   39.8057   -9.7464 C   0  0  0  0  0  0
   18.3859   39.3957   -7.5394 C   0  0  0  0  0  0
   19.6078   39.7213   -6.6634 C   0  0  0  0  0  0
   18.1488   37.8821   -7.6475 C   0  0  0  0  0  0
   22.8599   44.2097  -12.0396 O   0  0  0  0  0  0
   28.0764   45.1272  -11.4429 H   0  0  0  0  0  0
   24.4076   42.4223   -9.7815 H   0  0  0  0  0  0
   23.9425   42.5500  -12.4280 H   0  0  0  0  0  0
   27.9718   44.9686  -13.9250 H   0  0  0  0  0  0
   28.5385   43.3036  -13.8046 H   0  0  0  0  0  0
   29.5598   44.6213  -13.2610 H   0  0  0  0  0  0
   26.4633   42.7610  -10.3238 H   0  0  0  0  0  0
   24.2067   45.4418  -10.1275 H   0  0  0  0  0  0
   23.0496   44.4741   -9.2542 H   0  0  0  0  0  0
   23.4877   43.7030   -7.0216 H   0  0  0  0  0  0
   24.9352   43.7606   -5.0235 H   0  0  0  0  0  0
   27.2270   44.6332   -5.1448 H   0  0  0  0  0  0
   26.6512   45.5132   -9.3320 H   0  0  0  0  0  0
   29.0322   46.1891   -5.6018 H   0  0  0  0  0  0
   29.3516   44.4967   -5.9732 H   0  0  0  0  0  0
   30.6995   46.8366   -7.4284 H   0  0  0  0  0  0
   31.3543   46.0539   -6.0255 H   0  0  0  0  0  0
   32.4457   44.7137   -7.4075 H   0  0  0  0  0  0
   30.9849   43.8136   -7.5594 H   0  0  0  0  0  0
   31.8600   46.1030   -9.4218 H   0  0  0  0  0  0
   32.2662   44.4466   -9.7076 H   0  0  0  0  0  0
   29.3964   45.4968   -9.6715 H   0  0  0  0  0  0
   30.3830   45.3046  -11.0946 H   0  0  0  0  0  0
   27.8391   41.3272  -10.4398 H   0  0  0  0  0  0
   29.2346   41.1329  -11.5055 H   0  0  0  0  0  0
   27.6887   41.5956  -12.1742 H   0  0  0  0  0  0
   22.6845   41.3074  -10.4575 H   0  0  0  0  0  0
   21.5174   42.5964  -10.5563 H   0  0  0  0  0  0
   22.4228   41.0620  -12.8784 H   0  0  0  0  0  0
   20.5573   39.6504  -12.7940 H   0  0  0  0  0  0
   21.5682   39.4385  -11.3940 H   0  0  0  0  0  0
   18.7279   41.7244  -12.4364 H   0  0  0  0  0  0
   16.7408   42.1306  -10.9911 H   0  0  0  0  0  0
   16.5840   41.0701   -8.7581 H   0  0  0  0  0  0
   20.3964   39.1553   -9.4053 H   0  0  0  0  0  0
   17.5152   39.8198   -7.0352 H   0  0  0  0  0  0
   19.7525   40.7994   -6.5878 H   0  0  0  0  0  0
   20.5248   39.2837   -7.0567 H   0  0  0  0  0  0
   19.4699   39.3449   -5.6491 H   0  0  0  0  0  0
   17.2248   37.6685   -8.1865 H   0  0  0  0  0  0
   18.0600   37.4283   -6.6598 H   0  0  0  0  0  0
   18.9633   37.3841   -8.1728 H   0  0  0  0  0  0
   23.5768   44.7258  -12.3880 H   0  0  0  0  0  0
  1  2  1  0  0  0
  1 41  1  0  0  0
  1 42  1  0  0  0
  1 43  1  0  0  0
  2 38  1  0  0  0
  2 22  1  0  0  0
  2  3  1  0  0  0
  3  4  2  0  0  0
  3  5  1  0  0  0
  5  6  1  0  0  0
  5 44  1  0  0  0
  6 39  1  0  0  0
  6  7  1  0  0  0
  6 24  1  0  0  0
  7  8  1  0  0  0
  7 45  1  0  0  0
  7 46  1  0  0  0
  8 13  1  0  0  0
  8  9  2  0  0  0
  9 10  1  0  0  0
  9 47  1  0  0  0
 10 11  2  0  0  0
 10 48  1  0  0  0
 11 12  1  0  0  0
 11 49  1  0  0  0
 12 13  2  0  0  0
 12 14  1  0  0  0
 13 50  1  0  0  0
 14 15  1  0  0  0
 15 16  1  0  0  0
 15 51  1  0  0  0
 15 52  1  0  0  0
 16 17  1  0  0  0
 16 53  1  0  0  0
 16 54  1  0  0  0
 17 18  1  0  0  0
 17 55  1  0  0  0
 17 56  1  0  0  0
 18 19  1  0  0  0
 18 57  1  0  0  0
 18 58  1  0  0  0
 19 20  1  0  0  0
 19 59  1  0  0  0
 19 60  1  0  0  0
 20 21  2  0  0  0
 20 22  1  0  0  0
 22 23  1  0  0  0
 23 61  1  0  0  0
 23 62  1  0  0  0
 23 63  1  0  0  0
 24 40  1  0  0  0
 24 25  1  0  0  0
 24 37  1  0  0  0
 25 26  1  0  0  0
 25 64  1  0  0  0
 25 65  1  0  0  0
 26 27  1  0  0  0
 26 66  1  0  0  0
 27 28  1  0  0  0
 27 67  1  0  0  0
 27 68  1  0  0  0
 28 33  1  0  0  0
 28 29  2  0  0  0
 29 30  1  0  0  0
 29 69  1  0  0  0
 30 31  2  0  0  0
 30 70  1  0  0  0
 31 32  1  0  0  0
 31 71  1  0  0  0
 32 33  2  0  0  0
 32 34  1  0  0  0
 33 72  1  0  0  0
 34 35  1  0  0  0
 34 36  1  0  0  0
 34 73  1  0  0  0
 35 74  1  0  0  0
 35 75  1  0  0  0
 35 76  1  0  0  0
 36 77  1  0  0  0
 36 78  1  0  0  0
 36 79  1  0  0  0
 37 80  1  0  0  0
M  END
> <s_m_source_file>
BACE_11.smi

> <i_m_source_file_index>
1

> <i_lp_mmshare_version>
42013

> <i_f3d_flags>
0

> <s_epik_input>
YzEyW2NIXVtjSF1bY0hdYyhbY0hdMilPW0NIMl1bQ0gyXVtDSDJdW0NIMl1bQ0gyXUMoPU8pTihbQ0gzXSlbQ0BASF0oW0NIM10pQyg9TylbTkhdW0NAQEhdKFtDSDJdMSlbQ0BIXShbT0hdKVtDSDJdW05IXVtDSDJdYzNbY0hdW2NIXVtjSF1jKFtjSF0zKVtDSF0oW0NIM10pW0NIM10=

> <s_epik_cmdline>
J2VwaWtfcHl0aG9uJywgJy1waCcsICc3LjAnLCAnLXRuJywgJzgnLCAnLW1hJywgJzIwMCcsICctaW1hZScsICc8aW5maWxlLm1hZT4nLCAnLW9tYWUnLCAnPG91dGZpbGUubWFlPic=

> <r_lp_tautomer_probability>
1

> <r_epik_Ionization_Penalty>
  1.9888

> <r_epik_Ionization_Penalty_Charging>
  0.0000

> <r_epik_Ionization_Penalty_Neutral>
  1.9888

> <r_epik_State_Penalty>
  2.1166

> <r_epik_Charging_Adjusted_Penalty>
2.11661

> <i_epik_Tot_Q>
0

> <i_epik_Tot_abs_Q>
0

> <s_lp_Force_Field>
OPLS_2005

> <r_lp_Energy>
44.3635

> <b_lp_Chiralities_Consistent>
1

> <s_lp_Variant>
BACE_11.smi:1-2

> <chiral flag>
1

> <version>
0

> <r_i_glide_lipo>
-0.657211

> <r_i_glide_hbond>
-0.267375

> <r_i_glide_metal>
-0

> <r_i_glide_rewards>
-0.382084

> <r_i_glide_erotb>
0.394218

> <r_i_glide_esite>
0

> <chiral flag>
1

> <s_i_glide_gridfile>
second_dock_grid_2

> <i_i_glide_lignum>
23

> <i_i_glide_rotatable_bonds>
7

> <r_i_docking_score>
-0.0110898

> <r_i_glide_ligand_efficiency>
-0.000299725

> <r_i_glide_ligand_efficiency_sa>
-0.00099875

> <r_i_glide_ligand_efficiency_ln>
-0.00240512

> <r_glide_XP_GScore>
-2.12769

> <r_i_glide_gscore>
-2.12769

> <r_i_glide_evdw>
-33.0012

> <r_i_glide_ecoul>
-8.00601

> <r_i_glide_energy>
-41.0073

> <r_i_glide_einternal>
2.35552

> <r_i_glide_emodel>
-53.9643

> <r_glide_XP_HBond>
-0.9975

> <i_i_glide_confnum>
1

> <i_i_glide_posenum>
8

> <r_i_glide_eff_state_penalty>
2.1166

> <i_glide_XP_PoseRank>
5

$$$$
BACE_11.smi:1
                    3D
 Structure written by MMmdl.
 80 82  0  0  1  0            999 V2000
   28.5864   44.2349  -13.3159 C   0  0  0  0  0  0
   27.9566   44.1204  -11.9158 C   0  0  1  0  0  0
   26.4095   44.0569  -11.8846 C   0  0  0  0  0  0
   25.7634   44.7267  -12.6840 O   0  0  0  0  0  0
   25.8359   43.3104  -10.9238 N   0  0  0  0  0  0
   24.4375   43.3219  -10.4823 C   0  0  1  0  0  0
   24.1236   44.5774   -9.6365 C   0  0  0  0  0  0
   24.9864   44.6500   -8.3911 C   0  0  0  0  0  0
   24.4956   44.1444   -7.1738 C   0  0  0  0  0  0
   25.3180   44.1469   -6.0369 C   0  0  0  0  0  0
   26.6370   44.6357   -6.1036 C   0  0  0  0  0  0
   27.1429   45.1457   -7.3247 C   0  0  0  0  0  0
   26.2976   45.1716   -8.4511 C   0  0  0  0  0  0
   28.4275   45.6102   -7.5031 O   0  0  0  0  0  0
   29.3460   45.4853   -6.4315 C   0  0  0  0  0  0
   30.7533   45.8660   -6.9161 C   0  0  0  0  0  0
   31.4517   44.7875   -7.7708 C   0  0  0  0  0  0
   31.5160   45.0687   -9.2897 C   0  0  0  0  0  0
   30.2147   44.8819  -10.1057 C   0  0  0  0  0  0
   29.7346   43.4225  -10.2649 C   0  0  0  0  0  0
   30.3257   42.5387   -9.6406 O   0  0  0  0  0  0
   28.6972   43.1290  -11.0936 N   0  0  0  0  0  0
   28.3488   41.7167  -11.3004 C   0  0  0  0  0  0
   23.4063   42.9860  -11.5989 C   0  0  1  0  0  0
   22.3082   42.0067  -11.1134 C   0  0  0  0  0  0
   21.6600   41.3307  -12.2404 N   0  0  0  0  0  0
   20.9472   40.1103  -11.8649 C   0  0  0  0  0  0
   19.7185   40.3490  -11.0131 C   0  0  0  0  0  0
   18.6430   41.1200  -11.5033 C   0  0  0  0  0  0
   17.5012   41.3231  -10.7077 C   0  0  0  0  0  0
   17.4347   40.7727   -9.4117 C   0  0  0  0  0  0
   18.5062   40.0030   -8.9064 C   0  0  0  0  0  0
   19.6403   39.7852   -9.7210 C   0  0  0  0  0  0
   18.4292   39.4241   -7.4951 C   0  0  0  0  0  0
   19.6997   39.6998   -6.6699 C   0  0  0  0  0  0
   18.1011   37.9230   -7.5183 C   0  0  0  0  0  0
   22.7595   44.1633  -12.0393 O   0  0  0  0  0  0
   28.0988   45.1035  -11.4708 H   0  0  0  0  0  0
   24.4190   42.4792   -9.7916 H   0  0  0  0  0  0
   23.9343   42.5514  -12.4437 H   0  0  0  0  0  0
   28.0455   44.9369  -13.9515 H   0  0  0  0  0  0
   28.5949   43.2700  -13.8185 H   0  0  0  0  0  0
   29.6196   44.5790  -13.2624 H   0  0  0  0  0  0
   26.4671   42.7836  -10.3374 H   0  0  0  0  0  0
   24.2702   45.4859  -10.2215 H   0  0  0  0  0  0
   23.0775   44.5721   -9.3308 H   0  0  0  0  0  0
   23.4970   43.7373   -7.1090 H   0  0  0  0  0  0
   24.9425   43.7502   -5.1075 H   0  0  0  0  0  0
   27.2353   44.6057   -5.2073 H   0  0  0  0  0  0
   26.6786   45.5638   -9.3813 H   0  0  0  0  0  0
   29.0420   46.1547   -5.6255 H   0  0  0  0  0  0
   29.3586   44.4691   -6.0345 H   0  0  0  0  0  0
   30.7334   46.8282   -7.4310 H   0  0  0  0  0  0
   31.3630   46.0292   -6.0260 H   0  0  0  0  0  0
   32.4840   44.7270   -7.4255 H   0  0  0  0  0  0
   31.0383   43.8018   -7.5611 H   0  0  0  0  0  0
   31.8848   46.0828   -9.4422 H   0  0  0  0  0  0
   32.2825   44.4238   -9.7226 H   0  0  0  0  0  0
   29.4186   45.4902   -9.6858 H   0  0  0  0  0  0
   30.4000   45.2797  -11.1026 H   0  0  0  0  0  0
   27.8003   41.3364  -10.4395 H   0  0  0  0  0  0
   29.2360   41.0946  -11.4437 H   0  0  0  0  0  0
   27.7271   41.5672  -12.1826 H   0  0  0  0  0  0
   22.7784   41.2490  -10.4859 H   0  0  0  0  0  0
   21.5751   42.5133  -10.4826 H   0  0  0  0  0  0
   22.3997   41.0712  -12.8960 H   0  0  0  0  0  0
   20.6225   39.5900  -12.7668 H   0  0  0  0  0  0
   21.6183   39.4206  -11.3497 H   0  0  0  0  0  0
   18.6959   41.5475  -12.4935 H   0  0  0  0  0  0
   16.6726   41.9046  -11.0873 H   0  0  0  0  0  0
   16.5533   40.9375   -8.8068 H   0  0  0  0  0  0
   20.4577   39.1839   -9.3551 H   0  0  0  0  0  0
   17.6058   39.9285   -6.9826 H   0  0  0  0  0  0
   19.9161   40.7697   -6.6294 H   0  0  0  0  0  0
   20.5736   39.1916   -7.0833 H   0  0  0  0  0  0
   19.5718   39.3498   -5.6447 H   0  0  0  0  0  0
   17.1294   37.7393   -7.9817 H   0  0  0  0  0  0
   18.0603   37.5234   -6.5037 H   0  0  0  0  0  0
   18.8512   37.3520   -8.0670 H   0  0  0  0  0  0
   22.2581   44.5152  -11.3195 H   0  0  0  0  0  0
  1  2  1  0  0  0
  1 41  1  0  0  0
  1 42  1  0  0  0
  1 43  1  0  0  0
  2 38  1  0  0  0
  2 22  1  0  0  0
  2  3  1  0  0  0
  3  4  2  0  0  0
  3  5  1  0  0  0
  5  6  1  0  0  0
  5 44  1  0  0  0
  6 39  1  0  0  0
  6  7  1  0  0  0
  6 24  1  0  0  0
  7  8  1  0  0  0
  7 45  1  0  0  0
  7 46  1  0  0  0
  8 13  1  0  0  0
  8  9  2  0  0  0
  9 10  1  0  0  0
  9 47  1  0  0  0
 10 11  2  0  0  0
 10 48  1  0  0  0
 11 12  1  0  0  0
 11 49  1  0  0  0
 12 13  2  0  0  0
 12 14  1  0  0  0
 13 50  1  0  0  0
 14 15  1  0  0  0
 15 16  1  0  0  0
 15 51  1  0  0  0
 15 52  1  0  0  0
 16 17  1  0  0  0
 16 53  1  0  0  0
 16 54  1  0  0  0
 17 18  1  0  0  0
 17 55  1  0  0  0
 17 56  1  0  0  0
 18 19  1  0  0  0
 18 57  1  0  0  0
 18 58  1  0  0  0
 19 20  1  0  0  0
 19 59  1  0  0  0
 19 60  1  0  0  0
 20 21  2  0  0  0
 20 22  1  0  0  0
 22 23  1  0  0  0
 23 61  1  0  0  0
 23 62  1  0  0  0
 23 63  1  0  0  0
 24 40  1  0  0  0
 24 25  1  0  0  0
 24 37  1  0  0  0
 25 26  1  0  0  0
 25 64  1  0  0  0
 25 65  1  0  0  0
 26 27  1  0  0  0
 26 66  1  0  0  0
 27 28  1  0  0  0
 27 67  1  0  0  0
 27 68  1  0  0  0
 28 33  1  0  0  0
 28 29  2  0  0  0
 29 30  1  0  0  0
 29 69  1  0  0  0
 30 31  2  0  0  0
 30 70  1  0  0  0
 31 32  1  0  0  0
 31 71  1  0  0  0
 32 33  2  0  0  0
 32 34  1  0  0  0
 33 72  1  0  0  0
 34 35  1  0  0  0
 34 36  1  0  0  0
 34 73  1  0  0  0
 35 74  1  0  0  0
 35 75  1  0  0  0
 35 76  1  0  0  0
 36 77  1  0  0  0
 36 78  1  0  0  0
 36 79  1  0  0  0
 37 80  1  0  0  0
M  END
> <s_m_source_file>
BACE_11.smi

> <i_m_source_file_index>
1

> <i_lp_mmshare_version>
42013

> <i_f3d_flags>
0

> <s_epik_input>
YzEyW2NIXVtjSF1bY0hdYyhbY0hdMilPW0NIMl1bQ0gyXVtDSDJdW0NIMl1bQ0gyXUMoPU8pTihbQ0gzXSlbQ0BASF0oW0NIM10pQyg9TylbTkhdW0NAQEhdKFtDSDJdMSlbQ0BIXShbT0hdKVtDSDJdW05IXVtDSDJdYzNbY0hdW2NIXVtjSF1jKFtjSF0zKVtDSF0oW0NIM10pW0NIM10=

> <s_epik_cmdline>
J2VwaWtfcHl0aG9uJywgJy1waCcsICc3LjAnLCAnLXRuJywgJzgnLCAnLW1hJywgJzIwMCcsICctaW1hZScsICc8aW5maWxlLm1hZT4nLCAnLW9tYWUnLCAnPG91dGZpbGUubWFlPic=

> <r_lp_tautomer_probability>
1

> <r_epik_Ionization_Penalty>
  1.9888

> <r_epik_Ionization_Penalty_Charging>
  0.0000

> <r_epik_Ionization_Penalty_Neutral>
  1.9888

> <r_epik_State_Penalty>
  2.1166

> <r_epik_Charging_Adjusted_Penalty>
2.11661

> <i_epik_Tot_Q>
0

> <i_epik_Tot_abs_Q>
0

> <s_lp_Force_Field>
OPLS_2005

> <r_lp_Energy>
44.3635

> <b_lp_Chiralities_Consistent>
1

> <s_lp_Variant>
BACE_11.smi:1-2

> <chiral flag>
1

> <version>
0

> <r_i_glide_lipo>
-0.657211

> <r_i_glide_hbond>
-0.267375

> <r_i_glide_metal>
-0

> <r_i_glide_rewards>
-0.382084

> <r_i_glide_erotb>
0.394218

> <r_i_glide_esite>
0

> <chiral flag>
1

> <s_i_glide_gridfile>
second_dock_grid_2

> <i_i_glide_lignum>
23

> <i_i_glide_rotatable_bonds>
7

> <r_i_docking_score>
0.0194298

> <r_i_glide_ligand_efficiency>
0.000525131

> <r_i_glide_ligand_efficiency_sa>
0.00174985

> <r_i_glide_ligand_efficiency_ln>
0.00421388

> <r_glide_XP_GScore>
-2.09717

> <r_i_glide_gscore>
-2.09717

> <r_i_glide_evdw>
-33.3872

> <r_i_glide_ecoul>
-7.96762

> <r_i_glide_energy>
-41.3548

> <r_i_glide_einternal>
5.50007

> <r_i_glide_emodel>
-51.7794

> <r_glide_XP_HBond>
-0.9975

> <i_i_glide_confnum>
1

> <i_i_glide_posenum>
6

> <r_i_glide_eff_state_penalty>
2.1166

> <i_glide_XP_PoseRank>
6

$$$$
BACE_11.smi:1
                    3D
 Structure written by MMmdl.
 80 82  0  0  1  0            999 V2000
   28.8367   44.2399  -13.3942 C   0  0  0  0  0  0
   28.1988   44.1553  -11.9934 C   0  0  1  0  0  0
   26.6554   44.1292  -11.9534 C   0  0  0  0  0  0
   26.0096   44.8311  -12.7346 O   0  0  0  0  0  0
   26.0697   43.3840  -11.0001 N   0  0  0  0  0  0
   24.6769   43.4105  -10.5482 C   0  0  1  0  0  0
   24.3894   44.6383   -9.6519 C   0  0  0  0  0  0
   25.2602   44.6652   -8.4062 C   0  0  0  0  0  0
   24.7639   44.1571   -7.1911 C   0  0  0  0  0  0
   25.5835   44.1514   -6.0508 C   0  0  0  0  0  0
   26.9089   44.6217   -6.1178 C   0  0  0  0  0  0
   27.4191   45.1265   -7.3397 C   0  0  0  0  0  0
   26.5763   45.1630   -8.4661 C   0  0  0  0  0  0
   28.7035   45.5828   -7.5281 O   0  0  0  0  0  0
   29.6250   45.5002   -6.4541 C   0  0  0  0  0  0
   31.0228   45.8677   -6.9744 C   0  0  0  0  0  0
   31.6906   44.7637   -7.8224 C   0  0  0  0  0  0
   31.7594   45.0303   -9.3456 C   0  0  0  0  0  0
   30.4535   44.8782  -10.1614 C   0  0  0  0  0  0
   29.9280   43.4346  -10.3041 C   0  0  0  0  0  0
   30.4647   42.5492   -9.6428 O   0  0  0  0  0  0
   28.9073   43.1541  -11.1567 N   0  0  0  0  0  0
   28.5470   41.7443  -11.3672 C   0  0  0  0  0  0
   23.6422   43.1547  -11.6781 C   0  0  1  0  0  0
   22.3840   42.4257  -11.1622 C   0  0  0  0  0  0
   21.6601   41.7022  -12.2212 N   0  0  0  0  0  0
   21.1970   40.3709  -11.8200 C   0  0  0  0  0  0
   20.1750   40.4027  -10.6993 C   0  0  0  0  0  0
   18.7947   40.3835  -10.9800 C   0  0  0  0  0  0
   17.8651   40.4851   -9.9267 C   0  0  0  0  0  0
   18.3148   40.6318   -8.5965 C   0  0  0  0  0  0
   19.6972   40.6464   -8.3070 C   0  0  0  0  0  0
   20.6186   40.4981   -9.3631 C   0  0  0  0  0  0
   20.1584   40.8488   -6.8647 C   0  0  0  0  0  0
   21.6072   41.3528   -6.7198 C   0  0  0  0  0  0
   19.9444   39.5762   -6.0370 C   0  0  0  0  0  0
   23.2604   44.3932  -12.2377 O   0  0  0  0  0  0
   28.3680   45.1363  -11.5556 H   0  0  0  0  0  0
   24.6329   42.5380   -9.8915 H   0  0  0  0  0  0
   24.1191   42.5510  -12.4471 H   0  0  0  0  0  0
   28.3031   44.9371  -14.0419 H   0  0  0  0  0  0
   28.8566   43.2669  -13.8884 H   0  0  0  0  0  0
   29.8688   44.5851  -13.3320 H   0  0  0  0  0  0
   26.6960   42.8298  -10.4338 H   0  0  0  0  0  0
   24.5495   45.5652  -10.2071 H   0  0  0  0  0  0
   23.3402   44.6452   -9.3517 H   0  0  0  0  0  0
   23.7589   43.7654   -7.1290 H   0  0  0  0  0  0
   25.1977   43.7514   -5.1245 H   0  0  0  0  0  0
   27.5116   44.5835   -5.2231 H   0  0  0  0  0  0
   26.9632   45.5579   -9.3929 H   0  0  0  0  0  0
   29.3256   46.1994   -5.6727 H   0  0  0  0  0  0
   29.6452   44.4999   -6.0197 H   0  0  0  0  0  0
   30.9956   46.8144   -7.5149 H   0  0  0  0  0  0
   31.6546   46.0494   -6.1050 H   0  0  0  0  0  0
   32.7220   44.6764   -7.4758 H   0  0  0  0  0  0
   31.2504   43.7918   -7.6022 H   0  0  0  0  0  0
   32.1591   46.0307   -9.5068 H   0  0  0  0  0  0
   32.5050   44.3573   -9.7726 H   0  0  0  0  0  0
   29.6771   45.5172   -9.7492 H   0  0  0  0  0  0
   30.6539   45.2535  -11.1645 H   0  0  0  0  0  0
   28.0363   41.3494  -10.4896 H   0  0  0  0  0  0
   29.4281   41.1260  -11.5548 H   0  0  0  0  0  0
   27.8868   41.6054  -12.2234 H   0  0  0  0  0  0
   22.7282   41.7057  -10.4232 H   0  0  0  0  0  0
   21.7169   43.1059  -10.6288 H   0  0  0  0  0  0
   22.3191   41.5702  -12.9883 H   0  0  0  0  0  0
   20.7639   39.8580  -12.6788 H   0  0  0  0  0  0
   22.0547   39.7642  -11.5142 H   0  0  0  0  0  0
   18.4541   40.2977  -12.0036 H   0  0  0  0  0  0
   16.8077   40.4651  -10.1385 H   0  0  0  0  0  0
   17.5934   40.7291   -7.7955 H   0  0  0  0  0  0
   21.6789   40.4947   -9.1728 H   0  0  0  0  0  0
   19.5273   41.6336   -6.4460 H   0  0  0  0  0  0
   21.7645   42.2642   -7.2967 H   0  0  0  0  0  0
   22.3317   40.6064   -7.0484 H   0  0  0  0  0  0
   21.8315   41.5800   -5.6786 H   0  0  0  0  0  0
   18.8950   39.2736   -6.0400 H   0  0  0  0  0  0
   20.2269   39.7486   -4.9972 H   0  0  0  0  0  0
   20.5370   38.7420   -6.4168 H   0  0  0  0  0  0
   24.0534   44.8021  -12.5624 H   0  0  0  0  0  0
  1  2  1  0  0  0
  1 41  1  0  0  0
  1 42  1  0  0  0
  1 43  1  0  0  0
  2 38  1  0  0  0
  2 22  1  0  0  0
  2  3  1  0  0  0
  3  4  2  0  0  0
  3  5  1  0  0  0
  5  6  1  0  0  0
  5 44  1  0  0  0
  6 39  1  0  0  0
  6  7  1  0  0  0
  6 24  1  0  0  0
  7  8  1  0  0  0
  7 45  1  0  0  0
  7 46  1  0  0  0
  8 13  1  0  0  0
  8  9  2  0  0  0
  9 10  1  0  0  0
  9 47  1  0  0  0
 10 11  2  0  0  0
 10 48  1  0  0  0
 11 12  1  0  0  0
 11 49  1  0  0  0
 12 13  2  0  0  0
 12 14  1  0  0  0
 13 50  1  0  0  0
 14 15  1  0  0  0
 15 16  1  0  0  0
 15 51  1  0  0  0
 15 52  1  0  0  0
 16 17  1  0  0  0
 16 53  1  0  0  0
 16 54  1  0  0  0
 17 18  1  0  0  0
 17 55  1  0  0  0
 17 56  1  0  0  0
 18 19  1  0  0  0
 18 57  1  0  0  0
 18 58  1  0  0  0
 19 20  1  0  0  0
 19 59  1  0  0  0
 19 60  1  0  0  0
 20 21  2  0  0  0
 20 22  1  0  0  0
 22 23  1  0  0  0
 23 61  1  0  0  0
 23 62  1  0  0  0
 23 63  1  0  0  0
 24 40  1  0  0  0
 24 25  1  0  0  0
 24 37  1  0  0  0
 25 26  1  0  0  0
 25 64  1  0  0  0
 25 65  1  0  0  0
 26 27  1  0  0  0
 26 66  1  0  0  0
 27 28  1  0  0  0
 27 67  1  0  0  0
 27 68  1  0  0  0
 28 33  1  0  0  0
 28 29  2  0  0  0
 29 30  1  0  0  0
 29 69  1  0  0  0
 30 31  2  0  0  0
 30 70  1  0  0  0
 31 32  1  0  0  0
 31 71  1  0  0  0
 32 33  2  0  0  0
 32 34  1  0  0  0
 33 72  1  0  0  0
 34 35  1  0  0  0
 34 36  1  0  0  0
 34 73  1  0  0  0
 35 74  1  0  0  0
 35 75  1  0  0  0
 35 76  1  0  0  0
 36 77  1  0  0  0
 36 78  1  0  0  0
 36 79  1  0  0  0
 37 80  1  0  0  0
M  END
> <s_m_source_file>
BACE_11.smi

> <i_m_source_file_index>
1

> <i_lp_mmshare_version>
42013

> <i_f3d_flags>
0

> <s_epik_input>
YzEyW2NIXVtjSF1bY0hdYyhbY0hdMilPW0NIMl1bQ0gyXVtDSDJdW0NIMl1bQ0gyXUMoPU8pTihbQ0gzXSlbQ0BASF0oW0NIM10pQyg9TylbTkhdW0NAQEhdKFtDSDJdMSlbQ0BIXShbT0hdKVtDSDJdW05IXVtDSDJdYzNbY0hdW2NIXVtjSF1jKFtjSF0zKVtDSF0oW0NIM10pW0NIM10=

> <s_epik_cmdline>
J2VwaWtfcHl0aG9uJywgJy1waCcsICc3LjAnLCAnLXRuJywgJzgnLCAnLW1hJywgJzIwMCcsICctaW1hZScsICc8aW5maWxlLm1hZT4nLCAnLW9tYWUnLCAnPG91dGZpbGUubWFlPic=

> <r_lp_tautomer_probability>
1

> <r_epik_Ionization_Penalty>
  1.9888

> <r_epik_Ionization_Penalty_Charging>
  0.0000

> <r_epik_Ionization_Penalty_Neutral>
  1.9888

> <r_epik_State_Penalty>
  2.1166

> <r_epik_Charging_Adjusted_Penalty>
2.11661

> <i_epik_Tot_Q>
0

> <i_epik_Tot_abs_Q>
0

> <s_lp_Force_Field>
OPLS_2005

> <r_lp_Energy>
44.3635

> <b_lp_Chiralities_Consistent>
1

> <s_lp_Variant>
BACE_11.smi:1-2

> <chiral flag>
1

> <version>
0

> <r_i_glide_lipo>
-0.657211

> <r_i_glide_hbond>
-0.267375

> <r_i_glide_metal>
-0

> <r_i_glide_rewards>
-0.382084

> <r_i_glide_erotb>
0.394218

> <r_i_glide_esite>
0

> <chiral flag>
1

> <s_i_glide_gridfile>
second_dock_grid_2

> <i_i_glide_lignum>
23

> <i_i_glide_rotatable_bonds>
7

> <r_i_docking_score>
0.810106

> <r_i_glide_ligand_efficiency>
0.0218947

> <r_i_glide_ligand_efficiency_sa>
0.0729581

> <r_i_glide_ligand_efficiency_ln>
0.175693

> <r_glide_XP_GScore>
-1.30649

> <r_i_glide_gscore>
-1.30649

> <r_i_glide_evdw>
-31.8304

> <r_i_glide_ecoul>
-7.5839

> <r_i_glide_energy>
-39.4143

> <r_i_glide_einternal>
4.37971

> <r_i_glide_emodel>
-50.5579

> <r_glide_XP_HBond>
-0.9975

> <i_i_glide_confnum>
1

> <i_i_glide_posenum>
11

> <r_i_glide_eff_state_penalty>
2.1166

> <i_glide_XP_PoseRank>
7

$$$$
BACE_12.smi:1
                    3D
 Structure written by MMmdl.
 79 82  0  0  1  0            999 V2000
   11.7199   43.7821  -11.1136 C   0  0  0  0  0  0
   13.1309   44.3998  -11.0611 C   0  0  0  0  0  0
   13.2771   45.4167  -12.2129 C   0  0  0  0  0  0
   14.2439   43.3421  -11.0289 C   0  0  0  0  0  0
   15.5400   43.6338  -11.5207 C   0  0  0  0  0  0
   16.5348   42.6378  -11.5569 C   0  0  0  0  0  0
   16.2499   41.3451  -11.0832 C   0  0  0  0  0  0
   15.0002   41.0628  -10.4931 C   0  0  0  0  0  0
   14.0033   42.0573  -10.4857 C   0  0  0  0  0  0
   14.7395   39.7275   -9.8105 C   0  0  0  0  0  0
   14.8618   39.8644   -8.3393 N   0  3  0  0  0  0
   15.6950   38.8426   -7.6548 C   0  0  0  0  0  0
   16.9991   39.4642   -7.0994 C   0  0  2  0  0  0
   17.9931   39.8967   -8.2125 C   0  0  2  0  0  0
   19.1543   38.9064   -8.4923 C   0  0  0  0  0  0
   20.0246   39.3768   -9.6353 C   0  0  0  0  0  0
   19.5074   39.3703  -10.9440 C   0  0  0  0  0  0
   20.2484   39.9410  -11.9897 C   0  0  0  0  0  0
   21.5202   40.4745  -11.7364 C   0  0  0  0  0  0
   22.0810   40.4161  -10.4420 C   0  0  0  0  0  0
   21.3205   39.8753   -9.3877 C   0  0  0  0  0  0
   23.4956   40.9193  -10.1901 C   0  0  0  0  0  0
   23.6595   42.4225  -10.4502 C   0  0  0  0  0  0
   22.9773   43.2952   -9.3841 C   0  0  0  0  0  0
   22.2717   44.5166   -9.9931 C   0  0  0  0  0  0
   21.6754   45.3739   -8.9803 N   0  0  0  0  0  0
   20.4643   45.0682   -8.3491 C   0  0  0  0  0  0
   19.7464   43.8718   -8.5774 C   0  0  0  0  0  0
   18.5409   43.6573   -7.8748 C   0  0  0  0  0  0
   18.0815   44.6743   -7.0149 C   0  0  0  0  0  0
   18.8735   45.8217   -6.8308 C   0  0  0  0  0  0
   20.0400   46.0140   -7.4894 N   0  0  0  0  0  0
   18.4602   46.7769   -5.9243 O   0  0  0  0  0  0
   19.2881   47.9186   -5.7250 C   0  0  0  0  0  0
   17.7596   42.3871   -8.0393 C   0  0  0  0  0  0
   16.5296   42.3959   -8.1074 O   0  0  0  0  0  0
   18.4934   41.2627   -8.0401 N   0  0  0  0  0  0
   17.6594   38.5499   -6.2544 O   0  0  0  0  0  0
   16.6911   40.2951   -6.4721 H   0  0  0  0  0  0
   17.4277   39.9308   -9.1340 H   0  0  0  0  0  0
   11.4721   43.2483  -10.1938 H   0  0  0  0  0  0
   11.6230   43.0887  -11.9520 H   0  0  0  0  0  0
   10.9617   44.5491  -11.2371 H   0  0  0  0  0  0
   13.2113   44.9494  -10.1246 H   0  0  0  0  0  0
   14.1815   46.0191  -12.1184 H   0  0  0  0  0  0
   12.4467   46.1230  -12.2302 H   0  0  0  0  0  0
   13.2942   44.9116  -13.1805 H   0  0  0  0  0  0
   15.7915   44.6121  -11.8980 H   0  0  0  0  0  0
   17.5138   42.8643  -11.9541 H   0  0  0  0  0  0
   17.0169   40.5905  -11.1378 H   0  0  0  0  0  0
   13.0524   41.8087  -10.0385 H   0  0  0  0  0  0
   13.7348   39.3697  -10.0406 H   0  0  0  0  0  0
   15.4339   38.9862  -10.2100 H   0  0  0  0  0  0
   15.2618   40.7754   -8.1385 H   0  0  0  0  0  0
   15.0892   38.4661   -6.8319 H   0  0  0  0  0  0
   15.9019   37.9778   -8.2880 H   0  0  0  0  0  0
   19.7819   38.7828   -7.6087 H   0  0  0  0  0  0
   18.7612   37.9188   -8.7366 H   0  0  0  0  0  0
   18.5309   38.9553  -11.1467 H   0  0  0  0  0  0
   19.8448   39.9715  -12.9894 H   0  0  0  0  0  0
   22.0599   40.9124  -12.5579 H   0  0  0  0  0  0
   21.7282   39.8560   -8.3868 H   0  0  0  0  0  0
   23.8032   40.6803   -9.1719 H   0  0  0  0  0  0
   24.1691   40.3618  -10.8402 H   0  0  0  0  0  0
   24.7214   42.6681  -10.4689 H   0  0  0  0  0  0
   23.2893   42.6599  -11.4476 H   0  0  0  0  0  0
   22.2596   42.6977   -8.8235 H   0  0  0  0  0  0
   23.7207   43.6186   -8.6520 H   0  0  0  0  0  0
   22.9962   45.1120  -10.5508 H   0  0  0  0  0  0
   21.5098   44.2072  -10.7097 H   0  0  0  0  0  0
   22.1254   46.2483   -8.7555 H   0  0  0  0  0  0
   20.1056   43.1261   -9.2705 H   0  0  0  0  0  0
   17.1565   44.5507   -6.4695 H   0  0  0  0  0  0
   18.8508   48.5507   -4.9546 H   0  0  0  0  0  0
   19.3717   48.5103   -6.6369 H   0  0  0  0  0  0
   20.2895   47.6363   -5.3909 H   0  0  0  0  0  0
   19.4911   41.3633   -7.9274 H   0  0  0  0  0  0
   17.0464   37.8500   -6.0398 H   0  0  0  0  0  0
   13.9288   39.8511   -7.9426 H   0  0  0  0  0  0
  1  2  1  0  0  0
  1 41  1  0  0  0
  1 42  1  0  0  0
  1 43  1  0  0  0
  2  3  1  0  0  0
  2  4  1  0  0  0
  2 44  1  0  0  0
  3 45  1  0  0  0
  3 46  1  0  0  0
  3 47  1  0  0  0
  4  9  1  0  0  0
  4  5  2  0  0  0
  5  6  1  0  0  0
  5 48  1  0  0  0
  6  7  2  0  0  0
  6 49  1  0  0  0
  7  8  1  0  0  0
  7 50  1  0  0  0
  8  9  2  0  0  0
  8 10  1  0  0  0
  9 51  1  0  0  0
 10 11  1  0  0  0
 10 52  1  0  0  0
 10 53  1  0  0  0
 11 12  1  0  0  0
 11 54  1  0  0  0
 11 79  1  0  0  0
 12 13  1  0  0  0
 12 55  1  0  0  0
 12 56  1  0  0  0
 13 39  1  0  0  0
 13 14  1  0  0  0
 13 38  1  0  0  0
 14 40  1  0  0  0
 14 37  1  0  0  0
 14 15  1  0  0  0
 15 16  1  0  0  0
 15 57  1  0  0  0
 15 58  1  0  0  0
 16 21  1  0  0  0
 16 17  2  0  0  0
 17 18  1  0  0  0
 17 59  1  0  0  0
 18 19  2  0  0  0
 18 60  1  0  0  0
 19 20  1  0  0  0
 19 61  1  0  0  0
 20 21  2  0  0  0
 20 22  1  0  0  0
 21 62  1  0  0  0
 22 23  1  0  0  0
 22 63  1  0  0  0
 22 64  1  0  0  0
 23 24  1  0  0  0
 23 65  1  0  0  0
 23 66  1  0  0  0
 24 25  1  0  0  0
 24 67  1  0  0  0
 24 68  1  0  0  0
 25 26  1  0  0  0
 25 69  1  0  0  0
 25 70  1  0  0  0
 26 27  1  0  0  0
 26 71  1  0  0  0
 27 32  1  0  0  0
 27 28  2  0  0  0
 28 29  1  0  0  0
 28 72  1  0  0  0
 29 30  2  0  0  0
 29 35  1  0  0  0
 30 31  1  0  0  0
 30 73  1  0  0  0
 31 32  2  0  0  0
 31 33  1  0  0  0
 33 34  1  0  0  0
 34 74  1  0  0  0
 34 75  1  0  0  0
 34 76  1  0  0  0
 35 36  2  0  0  0
 35 37  1  0  0  0
 37 77  1  0  0  0
 38 78  1  0  0  0
M  CHG  1  11   1
M  END
> <s_m_source_file>
BACE_12.smi

> <i_m_source_file_index>
1

> <i_lp_mmshare_version>
42013

> <i_f3d_flags>
0

> <s_epik_input>
W0NIM11bQ0hdKFtDSDNdKWMxW2NIXVtjSF1bY0hdYyhbY0hdMSlbQ0gyXVtOSF1bQ0gyXVtDQEBIXShbT0hdKVtDQEhdKFtDSDJdMilbTkhdQyg9TyljKFtjSF1jKG4zKU9bQ0gzXSlbY0hdYzNbTkhdW0NIMl1bQ0gyXVtDSDJdW0NIMl1jKFtjSF00KVtjSF1bY0hdW2NIXWMyNA==

> <s_epik_cmdline>
J2VwaWtfcHl0aG9uJywgJy1waCcsICc3LjAnLCAnLXRuJywgJzgnLCAnLW1hJywgJzIwMCcsICctaW1hZScsICc8aW5maWxlLm1hZT4nLCAnLW9tYWUnLCAnPG91dGZpbGUubWFlPic=

> <r_lp_tautomer_probability>
1

> <r_epik_Ionization_Penalty>
  0.0201

> <r_epik_Ionization_Penalty_Charging>
  0.0201

> <r_epik_Ionization_Penalty_Neutral>
  0.0000

> <r_epik_State_Penalty>
  0.0161

> <r_epik_Charging_Adjusted_Penalty>
0.0361071

> <i_epik_Tot_Q>
1

> <i_epik_Tot_abs_Q>
1

> <s_lp_Force_Field>
OPLS_2005

> <r_lp_Energy>
26.9767

> <b_lp_Chiralities_Consistent>
1

> <s_lp_Variant>
BACE_12.smi:1-1

> <chiral flag>
1

> <version>
0

> <r_i_glide_lipo>
-0.9589

> <r_i_glide_hbond>
-0.467199

> <r_i_glide_metal>
-0

> <r_i_glide_rewards>
0

> <r_i_glide_erotb>
0.383096

> <r_i_glide_esite>
-0.00163197

> <chiral flag>
1

> <s_i_glide_gridfile>
second_dock_grid_2

> <i_i_glide_lignum>
24

> <i_i_glide_rotatable_bonds>
8

> <r_i_docking_score>
-4.64842

> <r_i_glide_ligand_efficiency>
-0.122327

> <r_i_glide_ligand_efficiency_sa>
-0.41126

> <r_i_glide_ligand_efficiency_ln>
-1.00234

> <r_glide_XP_GScore>
-4.66452

> <r_i_glide_gscore>
-4.66452

> <r_i_glide_evdw>
-37.3803

> <r_i_glide_ecoul>
-13.0991

> <r_i_glide_energy>
-50.4794

> <r_i_glide_einternal>
9.85865

> <r_i_glide_emodel>
-71.8166

> <r_glide_XP_HBond>
-0.7

> <i_i_glide_confnum>
1

> <i_i_glide_posenum>
4

> <r_i_glide_eff_state_penalty>
0.0161

> <i_glide_XP_PoseRank>
1

$$$$
BACE_12.smi:1
                    3D
 Structure written by MMmdl.
 79 82  0  0  1  0            999 V2000
   30.5862   41.9536  -11.4181 C   0  0  0  0  0  0
   29.4558   41.6489  -12.4100 C   0  0  0  0  0  0
   29.9474   41.8152  -13.8588 C   0  0  0  0  0  0
   28.2118   42.4681  -12.0721 C   0  0  0  0  0  0
   28.0226   43.7744  -12.5749 C   0  0  0  0  0  0
   26.8942   44.5251  -12.1927 C   0  0  0  0  0  0
   25.9509   43.9829  -11.2996 C   0  0  0  0  0  0
   26.1180   42.6740  -10.7998 C   0  0  0  0  0  0
   27.2507   41.9305  -11.1897 C   0  0  0  0  0  0
   25.1270   42.0820   -9.8063 C   0  0  0  0  0  0
   23.9139   41.5213  -10.4415 N   0  3  0  0  0  0
   23.0266   42.5254  -11.0823 C   0  0  0  0  0  0
   21.6268   41.9881  -11.4616 C   0  0  2  0  0  0
   20.8858   41.2764  -10.2937 C   0  0  2  0  0  0
   20.6143   39.7665  -10.5157 C   0  0  0  0  0  0
   19.7974   39.1502   -9.3983 C   0  0  0  0  0  0
   20.3352   39.0835   -8.0972 C   0  0  0  0  0  0
   19.5538   38.5904   -7.0398 C   0  0  0  0  0  0
   18.2416   38.1497   -7.2826 C   0  0  0  0  0  0
   17.7040   38.1842   -8.5866 C   0  0  0  0  0  0
   18.4877   38.6864   -9.6455 C   0  0  0  0  0  0
   16.2820   37.7056   -8.8376 C   0  0  0  0  0  0
   15.2322   38.6207   -8.1826 C   0  0  0  0  0  0
   15.1169   40.0008   -8.8518 C   0  0  0  0  0  0
   14.9349   41.1235   -7.8205 C   0  0  0  0  0  0
   14.7397   42.4275   -8.4434 N   0  0  0  0  0  0
   15.8230   43.2685   -8.7044 C   0  0  0  0  0  0
   17.1388   42.7806   -8.8283 C   0  0  0  0  0  0
   18.1703   43.6804   -9.1561 C   0  0  0  0  0  0
   17.8527   45.0475   -9.2843 C   0  0  0  0  0  0
   16.5041   45.4483   -9.1267 C   0  0  0  0  0  0
   15.5126   44.5720   -8.8604 N   0  0  0  0  0  0
   16.0602   46.7460   -9.2418 O   0  0  0  0  0  0
   17.0316   47.7616   -9.4339 C   0  0  0  0  0  0
   19.5691   43.1886   -9.3736 C   0  0  0  0  0  0
   20.5493   43.8849   -9.1075 O   0  0  0  0  0  0
   19.6525   41.9793   -9.9504 N   0  0  0  0  0  0
   21.6600   41.2089  -12.6438 O   0  0  0  0  0  0
   21.0505   42.8646  -11.7603 H   0  0  0  0  0  0
   21.4993   41.3514   -9.3951 H   0  0  0  0  0  0
   30.2775   41.7414  -10.3948 H   0  0  0  0  0  0
   30.8842   43.0021  -11.4653 H   0  0  0  0  0  0
   31.4666   41.3504  -11.6396 H   0  0  0  0  0  0
   29.1910   40.5961  -12.2929 H   0  0  0  0  0  0
   29.1739   41.5643  -14.5814 H   0  0  0  0  0  0
   30.7880   41.1490  -14.0552 H   0  0  0  0  0  0
   30.2904   42.8285  -14.0676 H   0  0  0  0  0  0
   28.7473   44.2218  -13.2377 H   0  0  0  0  0  0
   26.7634   45.5284  -12.5693 H   0  0  0  0  0  0
   25.1047   44.5817  -10.9961 H   0  0  0  0  0  0
   27.4066   40.9501  -10.7762 H   0  0  0  0  0  0
   25.6147   41.2700   -9.2658 H   0  0  0  0  0  0
   24.8512   42.8305   -9.0613 H   0  0  0  0  0  0
   24.2011   40.8534  -11.1465 H   0  0  0  0  0  0
   22.8960   43.3550  -10.3858 H   0  0  0  0  0  0
   23.5094   42.9368  -11.9694 H   0  0  0  0  0  0
   20.0788   39.6102  -11.4536 H   0  0  0  0  0  0
   21.5543   39.2203  -10.6051 H   0  0  0  0  0  0
   21.3372   39.4326   -7.8988 H   0  0  0  0  0  0
   19.9572   38.5541   -6.0400 H   0  0  0  0  0  0
   17.6585   37.7664   -6.4585 H   0  0  0  0  0  0
   18.0740   38.7326  -10.6434 H   0  0  0  0  0  0
   16.0939   37.6229   -9.9080 H   0  0  0  0  0  0
   16.1884   36.6953   -8.4403 H   0  0  0  0  0  0
   14.2501   38.1501   -8.2143 H   0  0  0  0  0  0
   15.4634   38.7212   -7.1195 H   0  0  0  0  0  0
   15.9922   40.2001   -9.4672 H   0  0  0  0  0  0
   14.2713   39.9923   -9.5416 H   0  0  0  0  0  0
   14.0627   40.8959   -7.2131 H   0  0  0  0  0  0
   15.7757   41.1577   -7.1256 H   0  0  0  0  0  0
   13.8340   42.8540   -8.3369 H   0  0  0  0  0  0
   17.3587   41.7342   -8.6818 H   0  0  0  0  0  0
   18.6381   45.7509   -9.5165 H   0  0  0  0  0  0
   16.5350   48.7306   -9.4794 H   0  0  0  0  0  0
   17.5763   47.6263  -10.3691 H   0  0  0  0  0  0
   17.7375   47.7928   -8.6031 H   0  0  0  0  0  0
   18.7849   41.4931  -10.1281 H   0  0  0  0  0  0
   22.5607   40.9501  -12.8404 H   0  0  0  0  0  0
   23.3943   41.0294   -9.7291 H   0  0  0  0  0  0
  1  2  1  0  0  0
  1 41  1  0  0  0
  1 42  1  0  0  0
  1 43  1  0  0  0
  2  3  1  0  0  0
  2  4  1  0  0  0
  2 44  1  0  0  0
  3 45  1  0  0  0
  3 46  1  0  0  0
  3 47  1  0  0  0
  4  9  1  0  0  0
  4  5  2  0  0  0
  5  6  1  0  0  0
  5 48  1  0  0  0
  6  7  2  0  0  0
  6 49  1  0  0  0
  7  8  1  0  0  0
  7 50  1  0  0  0
  8  9  2  0  0  0
  8 10  1  0  0  0
  9 51  1  0  0  0
 10 11  1  0  0  0
 10 52  1  0  0  0
 10 53  1  0  0  0
 11 12  1  0  0  0
 11 54  1  0  0  0
 11 79  1  0  0  0
 12 13  1  0  0  0
 12 55  1  0  0  0
 12 56  1  0  0  0
 13 39  1  0  0  0
 13 14  1  0  0  0
 13 38  1  0  0  0
 14 40  1  0  0  0
 14 37  1  0  0  0
 14 15  1  0  0  0
 15 16  1  0  0  0
 15 57  1  0  0  0
 15 58  1  0  0  0
 16 21  1  0  0  0
 16 17  2  0  0  0
 17 18  1  0  0  0
 17 59  1  0  0  0
 18 19  2  0  0  0
 18 60  1  0  0  0
 19 20  1  0  0  0
 19 61  1  0  0  0
 20 21  2  0  0  0
 20 22  1  0  0  0
 21 62  1  0  0  0
 22 23  1  0  0  0
 22 63  1  0  0  0
 22 64  1  0  0  0
 23 24  1  0  0  0
 23 65  1  0  0  0
 23 66  1  0  0  0
 24 25  1  0  0  0
 24 67  1  0  0  0
 24 68  1  0  0  0
 25 26  1  0  0  0
 25 69  1  0  0  0
 25 70  1  0  0  0
 26 27  1  0  0  0
 26 71  1  0  0  0
 27 32  1  0  0  0
 27 28  2  0  0  0
 28 29  1  0  0  0
 28 72  1  0  0  0
 29 30  2  0  0  0
 29 35  1  0  0  0
 30 31  1  0  0  0
 30 73  1  0  0  0
 31 32  2  0  0  0
 31 33  1  0  0  0
 33 34  1  0  0  0
 34 74  1  0  0  0
 34 75  1  0  0  0
 34 76  1  0  0  0
 35 36  2  0  0  0
 35 37  1  0  0  0
 37 77  1  0  0  0
 38 78  1  0  0  0
M  CHG  1  11   1
M  END
> <s_m_source_file>
BACE_12.smi

> <i_m_source_file_index>
1

> <i_lp_mmshare_version>
42013

> <i_f3d_flags>
0

> <s_epik_input>
W0NIM11bQ0hdKFtDSDNdKWMxW2NIXVtjSF1bY0hdYyhbY0hdMSlbQ0gyXVtOSF1bQ0gyXVtDQEBIXShbT0hdKVtDQEhdKFtDSDJdMilbTkhdQyg9TyljKFtjSF1jKG4zKU9bQ0gzXSlbY0hdYzNbTkhdW0NIMl1bQ0gyXVtDSDJdW0NIMl1jKFtjSF00KVtjSF1bY0hdW2NIXWMyNA==

> <s_epik_cmdline>
J2VwaWtfcHl0aG9uJywgJy1waCcsICc3LjAnLCAnLXRuJywgJzgnLCAnLW1hJywgJzIwMCcsICctaW1hZScsICc8aW5maWxlLm1hZT4nLCAnLW9tYWUnLCAnPG91dGZpbGUubWFlPic=

> <r_lp_tautomer_probability>
1

> <r_epik_Ionization_Penalty>
  0.0201

> <r_epik_Ionization_Penalty_Charging>
  0.0201

> <r_epik_Ionization_Penalty_Neutral>
  0.0000

> <r_epik_State_Penalty>
  0.0161

> <r_epik_Charging_Adjusted_Penalty>
0.0361071

> <i_epik_Tot_Q>
1

> <i_epik_Tot_abs_Q>
1

> <s_lp_Force_Field>
OPLS_2005

> <r_lp_Energy>
26.9767

> <b_lp_Chiralities_Consistent>
1

> <s_lp_Variant>
BACE_12.smi:1-1

> <chiral flag>
1

> <version>
0

> <r_i_glide_lipo>
-0.9589

> <r_i_glide_hbond>
-0.467199

> <r_i_glide_metal>
-0

> <r_i_glide_rewards>
0

> <r_i_glide_erotb>
0.383096

> <r_i_glide_esite>
-0.00163197

> <chiral flag>
1

> <s_i_glide_gridfile>
second_dock_grid_2

> <i_i_glide_lignum>
24

> <i_i_glide_rotatable_bonds>
8

> <r_i_docking_score>
-4.318

> <r_i_glide_ligand_efficiency>
-0.113632

> <r_i_glide_ligand_efficiency_sa>
-0.382027

> <r_i_glide_ligand_efficiency_ln>
-0.931088

> <r_glide_XP_GScore>
-4.3341

> <r_i_glide_gscore>
-4.3341

> <r_i_glide_evdw>
-40.491

> <r_i_glide_ecoul>
-11.7444

> <r_i_glide_energy>
-52.2354

> <r_i_glide_einternal>
5.11819

> <r_i_glide_emodel>
-72.4118

> <r_glide_XP_HBond>
-0.7

> <i_i_glide_confnum>
1

> <i_i_glide_posenum>
5

> <r_i_glide_eff_state_penalty>
0.0161

> <i_glide_XP_PoseRank>
2

$$$$
BACE_12.smi:1
                    3D
 Structure written by MMmdl.
 79 82  0  0  1  0            999 V2000
   29.4447   41.3499  -13.5974 C   0  0  0  0  0  0
   29.6935   42.3775  -12.4883 C   0  0  0  0  0  0
   30.4575   41.7593  -11.3071 C   0  0  0  0  0  0
   28.3986   43.0437  -12.0414 C   0  0  0  0  0  0
   28.1830   44.4096  -12.3230 C   0  0  0  0  0  0
   27.0121   45.0515  -11.8790 C   0  0  0  0  0  0
   26.0518   44.3322  -11.1438 C   0  0  0  0  0  0
   26.2461   42.9615  -10.8730 C   0  0  0  0  0  0
   27.4158   42.3179  -11.3315 C   0  0  0  0  0  0
   25.2296   42.1937  -10.0505 C   0  0  0  0  0  0
   24.0624   41.7497  -10.8400 N   0  3  0  0  0  0
   23.1089   42.8027  -11.2576 C   0  0  0  0  0  0
   21.6861   42.2689  -11.5601 C   0  0  2  0  0  0
   20.9434   41.6913  -10.3246 C   0  0  2  0  0  0
   21.3475   40.2421   -9.9491 C   0  0  0  0  0  0
   20.4422   39.6147   -8.9113 C   0  0  0  0  0  0
   20.5120   40.0332   -7.5664 C   0  0  0  0  0  0
   19.6599   39.4588   -6.6064 C   0  0  0  0  0  0
   18.7353   38.4712   -6.9884 C   0  0  0  0  0  0
   18.6707   38.0432   -8.3305 C   0  0  0  0  0  0
   19.5240   38.6162   -9.2918 C   0  0  0  0  0  0
   17.7118   36.9407   -8.7251 C   0  0  0  0  0  0
   16.2446   37.3615   -8.6346 C   0  0  0  0  0  0
   15.7869   38.3597   -9.7010 C   0  0  0  0  0  0
   14.9159   39.4831   -9.1161 C   0  0  0  0  0  0
   14.4598   40.4166  -10.1361 N   0  0  0  0  0  0
   15.2159   41.5599  -10.4222 C   0  0  0  0  0  0
   16.6084   41.6363  -10.1902 C   0  0  0  0  0  0
   17.2982   42.8183  -10.5363 C   0  0  0  0  0  0
   16.5506   43.8961  -11.0551 C   0  0  0  0  0  0
   15.1644   43.7377  -11.2399 C   0  0  0  0  0  0
   14.5157   42.5832  -10.9533 N   0  0  0  0  0  0
   14.4445   44.7860  -11.7755 O   0  0  0  0  0  0
   13.0748   44.5617  -12.0918 C   0  0  0  0  0  0
   18.7812   42.9453  -10.3311 C   0  0  0  0  0  0
   19.2986   44.0384  -10.0985 O   0  0  0  0  0  0
   19.4910   41.8143  -10.4885 N   0  0  0  0  0  0
   21.6600   41.3502  -12.6425 O   0  0  0  0  0  0
   21.1297   43.1391  -11.9078 H   0  0  0  0  0  0
   21.1918   42.3137   -9.4620 H   0  0  0  0  0  0
   28.9121   41.7911  -14.4391 H   0  0  0  0  0  0
   28.8602   40.5049  -13.2341 H   0  0  0  0  0  0
   30.3853   40.9502  -13.9782 H   0  0  0  0  0  0
   30.3345   43.1527  -12.9097 H   0  0  0  0  0  0
   30.6686   42.5058  -10.5407 H   0  0  0  0  0  0
   31.4095   41.3506  -11.6408 H   0  0  0  0  0  0
   29.8969   40.9501  -10.8397 H   0  0  0  0  0  0
   28.9218   44.9749  -12.8718 H   0  0  0  0  0  0
   26.8619   46.1008  -12.0881 H   0  0  0  0  0  0
   25.1709   44.8428  -10.7821 H   0  0  0  0  0  0
   27.5770   41.2707  -11.1148 H   0  0  0  0  0  0
   25.7089   41.3024   -9.6400 H   0  0  0  0  0  0
   24.9072   42.7915   -9.1966 H   0  0  0  0  0  0
   24.3808   41.2736  -11.6840 H   0  0  0  0  0  0
   23.0329   43.5554  -10.4712 H   0  0  0  0  0  0
   23.5113   43.3109  -12.1351 H   0  0  0  0  0  0
   21.3436   39.5987  -10.8298 H   0  0  0  0  0  0
   22.3619   40.2068   -9.5558 H   0  0  0  0  0  0
   21.2119   40.7994   -7.2656 H   0  0  0  0  0  0
   19.7028   39.7797   -5.5757 H   0  0  0  0  0  0
   18.0798   38.0305   -6.2480 H   0  0  0  0  0  0
   19.4713   38.2879  -10.3207 H   0  0  0  0  0  0
   17.9420   36.5720   -9.7252 H   0  0  0  0  0  0
   17.8717   36.1056   -8.0441 H   0  0  0  0  0  0
   15.6600   36.4553   -8.7446 H   0  0  0  0  0  0
   16.0283   37.7510   -7.6400 H   0  0  0  0  0  0
   16.6442   38.7672  -10.2343 H   0  0  0  0  0  0
   15.2111   37.8134  -10.4400 H   0  0  0  0  0  0
   14.0339   39.0547   -8.6384 H   0  0  0  0  0  0
   15.4513   40.0176   -8.3300 H   0  0  0  0  0  0
   13.4529   40.4957  -10.2277 H   0  0  0  0  0  0
   17.1461   40.8138   -9.7438 H   0  0  0  0  0  0
   17.0312   44.8292  -11.3133 H   0  0  0  0  0  0
   12.6539   45.4675  -12.5284 H   0  0  0  0  0  0
   12.4934   44.3200  -11.1998 H   0  0  0  0  0  0
   12.9622   43.7580  -12.8217 H   0  0  0  0  0  0
   18.9816   40.9680  -10.6968 H   0  0  0  0  0  0
   22.5433   41.0423  -12.8403 H   0  0  0  0  0  0
   23.5648   41.0796  -10.2739 H   0  0  0  0  0  0
  1  2  1  0  0  0
  1 41  1  0  0  0
  1 42  1  0  0  0
  1 43  1  0  0  0
  2  3  1  0  0  0
  2  4  1  0  0  0
  2 44  1  0  0  0
  3 45  1  0  0  0
  3 46  1  0  0  0
  3 47  1  0  0  0
  4  9  1  0  0  0
  4  5  2  0  0  0
  5  6  1  0  0  0
  5 48  1  0  0  0
  6  7  2  0  0  0
  6 49  1  0  0  0
  7  8  1  0  0  0
  7 50  1  0  0  0
  8  9  2  0  0  0
  8 10  1  0  0  0
  9 51  1  0  0  0
 10 11  1  0  0  0
 10 52  1  0  0  0
 10 53  1  0  0  0
 11 12  1  0  0  0
 11 54  1  0  0  0
 11 79  1  0  0  0
 12 13  1  0  0  0
 12 55  1  0  0  0
 12 56  1  0  0  0
 13 39  1  0  0  0
 13 14  1  0  0  0
 13 38  1  0  0  0
 14 40  1  0  0  0
 14 37  1  0  0  0
 14 15  1  0  0  0
 15 16  1  0  0  0
 15 57  1  0  0  0
 15 58  1  0  0  0
 16 21  1  0  0  0
 16 17  2  0  0  0
 17 18  1  0  0  0
 17 59  1  0  0  0
 18 19  2  0  0  0
 18 60  1  0  0  0
 19 20  1  0  0  0
 19 61  1  0  0  0
 20 21  2  0  0  0
 20 22  1  0  0  0
 21 62  1  0  0  0
 22 23  1  0  0  0
 22 63  1  0  0  0
 22 64  1  0  0  0
 23 24  1  0  0  0
 23 65  1  0  0  0
 23 66  1  0  0  0
 24 25  1  0  0  0
 24 67  1  0  0  0
 24 68  1  0  0  0
 25 26  1  0  0  0
 25 69  1  0  0  0
 25 70  1  0  0  0
 26 27  1  0  0  0
 26 71  1  0  0  0
 27 32  1  0  0  0
 27 28  2  0  0  0
 28 29  1  0  0  0
 28 72  1  0  0  0
 29 30  2  0  0  0
 29 35  1  0  0  0
 30 31  1  0  0  0
 30 73  1  0  0  0
 31 32  2  0  0  0
 31 33  1  0  0  0
 33 34  1  0  0  0
 34 74  1  0  0  0
 34 75  1  0  0  0
 34 76  1  0  0  0
 35 36  2  0  0  0
 35 37  1  0  0  0
 37 77  1  0  0  0
 38 78  1  0  0  0
M  CHG  1  11   1
M  END
> <s_m_source_file>
BACE_12.smi

> <i_m_source_file_index>
1

> <i_lp_mmshare_version>
42013

> <i_f3d_flags>
0

> <s_epik_input>
W0NIM11bQ0hdKFtDSDNdKWMxW2NIXVtjSF1bY0hdYyhbY0hdMSlbQ0gyXVtOSF1bQ0gyXVtDQEBIXShbT0hdKVtDQEhdKFtDSDJdMilbTkhdQyg9TyljKFtjSF1jKG4zKU9bQ0gzXSlbY0hdYzNbTkhdW0NIMl1bQ0gyXVtDSDJdW0NIMl1jKFtjSF00KVtjSF1bY0hdW2NIXWMyNA==

> <s_epik_cmdline>
J2VwaWtfcHl0aG9uJywgJy1waCcsICc3LjAnLCAnLXRuJywgJzgnLCAnLW1hJywgJzIwMCcsICctaW1hZScsICc8aW5maWxlLm1hZT4nLCAnLW9tYWUnLCAnPG91dGZpbGUubWFlPic=

> <r_lp_tautomer_probability>
1

> <r_epik_Ionization_Penalty>
  0.0201

> <r_epik_Ionization_Penalty_Charging>
  0.0201

> <r_epik_Ionization_Penalty_Neutral>
  0.0000

> <r_epik_State_Penalty>
  0.0161

> <r_epik_Charging_Adjusted_Penalty>
0.0361071

> <i_epik_Tot_Q>
1

> <i_epik_Tot_abs_Q>
1

> <s_lp_Force_Field>
OPLS_2005

> <r_lp_Energy>
26.9767

> <b_lp_Chiralities_Consistent>
1

> <s_lp_Variant>
BACE_12.smi:1-1

> <chiral flag>
1

> <version>
0

> <r_i_glide_lipo>
-0.9589

> <r_i_glide_hbond>
-0.467199

> <r_i_glide_metal>
-0

> <r_i_glide_rewards>
0

> <r_i_glide_erotb>
0.383096

> <r_i_glide_esite>
-0.00163197

> <chiral flag>
1

> <s_i_glide_gridfile>
second_dock_grid_2

> <i_i_glide_lignum>
24

> <i_i_glide_rotatable_bonds>
8

> <r_i_docking_score>
-3.81481

> <r_i_glide_ligand_efficiency>
-0.10039

> <r_i_glide_ligand_efficiency_sa>
-0.337508

> <r_i_glide_ligand_efficiency_ln>
-0.822585

> <r_glide_XP_GScore>
-3.83091

> <r_i_glide_gscore>
-3.83091

> <r_i_glide_evdw>
-40.3196

> <r_i_glide_ecoul>
-16.6708

> <r_i_glide_energy>
-56.9904

> <r_i_glide_einternal>
5.46906

> <r_i_glide_emodel>
-78.1244

> <r_glide_XP_HBond>
-0.7

> <i_i_glide_confnum>
1

> <i_i_glide_posenum>
2

> <r_i_glide_eff_state_penalty>
0.0161

> <i_glide_XP_PoseRank>
3

$$$$
BACE_12.smi:1
                    3D
 Structure written by MMmdl.
 79 82  0  0  1  0            999 V2000
   29.3967   41.3534  -13.4771 C   0  0  0  0  0  0
   29.5999   42.3091  -12.2977 C   0  0  0  0  0  0
   30.4659   41.6464  -11.2194 C   0  0  0  0  0  0
   28.2916   42.8528  -11.7262 C   0  0  0  0  0  0
   28.0339   44.2404  -11.7784 C   0  0  0  0  0  0
   26.8804   44.7731  -11.1770 C   0  0  0  0  0  0
   25.9716   43.9266  -10.5171 C   0  0  0  0  0  0
   26.1880   42.5321  -10.4868 C   0  0  0  0  0  0
   27.3511   42.0053  -11.0964 C   0  0  0  0  0  0
   25.2245   41.6219   -9.7270 C   0  0  0  0  0  0
   23.9659   41.3029  -10.4404 N   0  3  0  0  0  0
   23.1494   42.4639  -10.8700 C   0  0  0  0  0  0
   21.7091   42.1241  -11.3242 C   0  0  2  0  0  0
   20.8188   41.5103  -10.2108 C   0  0  2  0  0  0
   20.8982   39.9632  -10.1090 C   0  0  0  0  0  0
   19.9207   39.3765   -9.1104 C   0  0  0  0  0  0
   20.1045   39.6155   -7.7333 C   0  0  0  0  0  0
   19.1703   39.1224   -6.8050 C   0  0  0  0  0  0
   18.0558   38.3920   -7.2500 C   0  0  0  0  0  0
   17.8758   38.1273   -8.6235 C   0  0  0  0  0  0
   18.8164   38.6166   -9.5531 C   0  0  0  0  0  0
   16.6645   37.3365   -9.0899 C   0  0  0  0  0  0
   15.3613   38.1532   -9.0433 C   0  0  0  0  0  0
   15.2917   39.3076  -10.0557 C   0  0  0  0  0  0
   14.4591   40.4812   -9.5098 C   0  0  0  0  0  0
   14.2788   41.5648  -10.4670 N   0  0  0  0  0  0
   15.2523   42.5565  -10.6256 C   0  0  0  0  0  0
   16.5880   42.3895  -10.2065 C   0  0  0  0  0  0
   17.5286   43.3932  -10.5028 C   0  0  0  0  0  0
   17.0778   44.5703  -11.1342 C   0  0  0  0  0  0
   15.7090   44.6697  -11.4851 C   0  0  0  0  0  0
   14.8280   43.6744  -11.2489 N   0  0  0  0  0  0
   15.1395   45.7558  -12.1141 O   0  0  0  0  0  0
   15.9824   46.8567  -12.4170 C   0  0  0  0  0  0
   18.9759   43.2031  -10.1672 C   0  0  0  0  0  0
   19.6871   44.1493   -9.8282 O   0  0  0  0  0  0
   19.4336   41.9551  -10.3599 N   0  0  0  0  0  0
   21.6600   41.3291  -12.4957 O   0  0  0  0  0  0
   21.2949   43.0838  -11.6316 H   0  0  0  0  0  0
   21.1492   41.9155   -9.2512 H   0  0  0  0  0  0
   28.8599   41.8342  -14.2922 H   0  0  0  0  0  0
   28.8594   40.4535  -13.1819 H   0  0  0  0  0  0
   30.3539   41.0288  -13.8844 H   0  0  0  0  0  0
   30.1687   43.1600  -12.6755 H   0  0  0  0  0  0
   30.6450   42.3168  -10.3772 H   0  0  0  0  0  0
   31.4337   41.3690  -11.6398 H   0  0  0  0  0  0
   30.0009   40.7365  -10.8401 H   0  0  0  0  0  0
   28.7394   44.9055  -12.2549 H   0  0  0  0  0  0
   26.7035   45.8392  -11.2064 H   0  0  0  0  0  0
   25.1092   44.3575  -10.0289 H   0  0  0  0  0  0
   27.5488   40.9500  -11.0493 H   0  0  0  0  0  0
   25.7239   40.6771   -9.5061 H   0  0  0  0  0  0
   24.9805   42.0806   -8.7685 H   0  0  0  0  0  0
   24.1966   40.7836  -11.2828 H   0  0  0  0  0  0
   23.0889   43.1749  -10.0439 H   0  0  0  0  0  0
   23.6656   42.9769  -11.6825 H   0  0  0  0  0  0
   20.6977   39.5025  -11.0770 H   0  0  0  0  0  0
   21.9010   39.6411   -9.8295 H   0  0  0  0  0  0
   20.9457   40.1959   -7.3823 H   0  0  0  0  0  0
   19.2927   39.3259   -5.7500 H   0  0  0  0  0  0
   17.3281   38.0471   -6.5291 H   0  0  0  0  0  0
   18.6728   38.4270  -10.6072 H   0  0  0  0  0  0
   16.8337   36.9508  -10.0930 H   0  0  0  0  0  0
   16.5628   36.4661   -8.4419 H   0  0  0  0  0  0
   14.5123   37.5012   -9.2404 H   0  0  0  0  0  0
   15.2220   38.5244   -8.0263 H   0  0  0  0  0  0
   16.2944   39.6304  -10.3185 H   0  0  0  0  0  0
   14.8601   38.9510  -10.9884 H   0  0  0  0  0  0
   13.4684   40.1136   -9.2441 H   0  0  0  0  0  0
   14.8966   40.8683   -8.5884 H   0  0  0  0  0  0
   13.3216   41.8366  -10.6287 H   0  0  0  0  0  0
   16.9060   41.5096   -9.6719 H   0  0  0  0  0  0
   17.7828   45.3584  -11.3471 H   0  0  0  0  0  0
   15.3961   47.6348  -12.9062 H   0  0  0  0  0  0
   16.7836   46.5706  -13.0983 H   0  0  0  0  0  0
   16.4123   47.2887  -11.5114 H   0  0  0  0  0  0
   18.7626   41.2553  -10.6410 H   0  0  0  0  0  0
   22.5409   41.2042  -12.8419 H   0  0  0  0  0  0
   23.4141   40.7036   -9.8440 H   0  0  0  0  0  0
  1  2  1  0  0  0
  1 41  1  0  0  0
  1 42  1  0  0  0
  1 43  1  0  0  0
  2  3  1  0  0  0
  2  4  1  0  0  0
  2 44  1  0  0  0
  3 45  1  0  0  0
  3 46  1  0  0  0
  3 47  1  0  0  0
  4  9  1  0  0  0
  4  5  2  0  0  0
  5  6  1  0  0  0
  5 48  1  0  0  0
  6  7  2  0  0  0
  6 49  1  0  0  0
  7  8  1  0  0  0
  7 50  1  0  0  0
  8  9  2  0  0  0
  8 10  1  0  0  0
  9 51  1  0  0  0
 10 11  1  0  0  0
 10 52  1  0  0  0
 10 53  1  0  0  0
 11 12  1  0  0  0
 11 54  1  0  0  0
 11 79  1  0  0  0
 12 13  1  0  0  0
 12 55  1  0  0  0
 12 56  1  0  0  0
 13 39  1  0  0  0
 13 14  1  0  0  0
 13 38  1  0  0  0
 14 40  1  0  0  0
 14 37  1  0  0  0
 14 15  1  0  0  0
 15 16  1  0  0  0
 15 57  1  0  0  0
 15 58  1  0  0  0
 16 21  1  0  0  0
 16 17  2  0  0  0
 17 18  1  0  0  0
 17 59  1  0  0  0
 18 19  2  0  0  0
 18 60  1  0  0  0
 19 20  1  0  0  0
 19 61  1  0  0  0
 20 21  2  0  0  0
 20 22  1  0  0  0
 21 62  1  0  0  0
 22 23  1  0  0  0
 22 63  1  0  0  0
 22 64  1  0  0  0
 23 24  1  0  0  0
 23 65  1  0  0  0
 23 66  1  0  0  0
 24 25  1  0  0  0
 24 67  1  0  0  0
 24 68  1  0  0  0
 25 26  1  0  0  0
 25 69  1  0  0  0
 25 70  1  0  0  0
 26 27  1  0  0  0
 26 71  1  0  0  0
 27 32  1  0  0  0
 27 28  2  0  0  0
 28 29  1  0  0  0
 28 72  1  0  0  0
 29 30  2  0  0  0
 29 35  1  0  0  0
 30 31  1  0  0  0
 30 73  1  0  0  0
 31 32  2  0  0  0
 31 33  1  0  0  0
 33 34  1  0  0  0
 34 74  1  0  0  0
 34 75  1  0  0  0
 34 76  1  0  0  0
 35 36  2  0  0  0
 35 37  1  0  0  0
 37 77  1  0  0  0
 38 78  1  0  0  0
M  CHG  1  11   1
M  END
> <s_m_source_file>
BACE_12.smi

> <i_m_source_file_index>
1

> <i_lp_mmshare_version>
42013

> <i_f3d_flags>
0

> <s_epik_input>
W0NIM11bQ0hdKFtDSDNdKWMxW2NIXVtjSF1bY0hdYyhbY0hdMSlbQ0gyXVtOSF1bQ0gyXVtDQEBIXShbT0hdKVtDQEhdKFtDSDJdMilbTkhdQyg9TyljKFtjSF1jKG4zKU9bQ0gzXSlbY0hdYzNbTkhdW0NIMl1bQ0gyXVtDSDJdW0NIMl1jKFtjSF00KVtjSF1bY0hdW2NIXWMyNA==

> <s_epik_cmdline>
J2VwaWtfcHl0aG9uJywgJy1waCcsICc3LjAnLCAnLXRuJywgJzgnLCAnLW1hJywgJzIwMCcsICctaW1hZScsICc8aW5maWxlLm1hZT4nLCAnLW9tYWUnLCAnPG91dGZpbGUubWFlPic=

> <r_lp_tautomer_probability>
1

> <r_epik_Ionization_Penalty>
  0.0201

> <r_epik_Ionization_Penalty_Charging>
  0.0201

> <r_epik_Ionization_Penalty_Neutral>
  0.0000

> <r_epik_State_Penalty>
  0.0161

> <r_epik_Charging_Adjusted_Penalty>
0.0361071

> <i_epik_Tot_Q>
1

> <i_epik_Tot_abs_Q>
1

> <s_lp_Force_Field>
OPLS_2005

> <r_lp_Energy>
26.9767

> <b_lp_Chiralities_Consistent>
1

> <s_lp_Variant>
BACE_12.smi:1-1

> <chiral flag>
1

> <version>
0

> <r_i_glide_lipo>
-0.9589

> <r_i_glide_hbond>
-0.467199

> <r_i_glide_metal>
-0

> <r_i_glide_rewards>
0

> <r_i_glide_erotb>
0.383096

> <r_i_glide_esite>
-0.00163197

> <chiral flag>
1

> <s_i_glide_gridfile>
second_dock_grid_2

> <i_i_glide_lignum>
24

> <i_i_glide_rotatable_bonds>
8

> <r_i_docking_score>
-2.27182

> <r_i_glide_ligand_efficiency>
-0.0597847

> <r_i_glide_ligand_efficiency_sa>
-0.200995

> <r_i_glide_ligand_efficiency_ln>
-0.489871

> <r_glide_XP_GScore>
-2.28792

> <r_i_glide_gscore>
-2.28792

> <r_i_glide_evdw>
-41.2633

> <r_i_glide_ecoul>
-15.3138

> <r_i_glide_energy>
-56.5771

> <r_i_glide_einternal>
4.20563

> <r_i_glide_emodel>
-77.2416

> <r_glide_XP_HBond>
-0.7

> <i_i_glide_confnum>
1

> <i_i_glide_posenum>
3

> <r_i_glide_eff_state_penalty>
0.0161

> <i_glide_XP_PoseRank>
4

$$$$
