BACE_20.smi:1
                    3D
 Structure written by MMmdl.
 78 79  0  0  1  0            999 V2000
   22.5408   47.4852  -15.9147 C   0  0  0  0  0  0
   23.0673   47.2389  -14.4955 C   0  0  0  0  0  0
   24.3097   46.3348  -14.4674 C   0  0  0  0  0  0
   24.8451   46.1111  -13.0455 C   0  0  0  0  0  0
   26.0357   45.2708  -13.0502 N   0  0  0  0  0  0
   26.0958   44.0800  -12.3096 C   0  0  0  0  0  0
   24.9400   43.6575  -11.6207 C   0  0  0  0  0  0
   24.9809   42.4572  -10.8768 C   0  0  0  0  0  0
   26.1984   41.7367  -10.8396 C   0  0  0  0  0  0
   27.3135   42.2353  -11.5618 C   0  0  0  0  0  0
   27.2539   43.3791  -12.2789 N   0  0  0  0  0  0
   28.5533   41.6330  -11.6135 O   0  0  0  0  0  0
   29.5400   42.1808  -12.4769 C   0  0  0  0  0  0
   23.7689   41.9952  -10.1140 C   0  0  0  0  0  0
   22.6728   42.5269  -10.2976 O   0  0  0  0  0  0
   23.9675   40.9522   -9.2852 N   0  0  0  0  0  0
   23.2415   40.6630   -8.0438 C   0  0  1  0  0  0
   23.0191   42.0025   -7.2877 C   0  0  0  0  0  0
   22.4419   41.8779   -5.8822 C   0  0  0  0  0  0
   21.3825   40.9791   -5.6257 C   0  0  0  0  0  0
   20.8602   40.8475   -4.3238 C   0  0  0  0  0  0
   21.3975   41.6089   -3.2682 C   0  0  0  0  0  0
   22.4600   42.4994   -3.5148 C   0  0  0  0  0  0
   22.9828   42.6315   -4.8166 C   0  0  0  0  0  0
   21.9692   39.8171   -8.3606 C   0  0  2  0  0  0
   21.5499   38.7980   -7.2666 C   0  0  0  0  0  0
   20.0185   38.5851   -7.0997 C   0  0  1  0  0  0
   19.2721   39.7661   -6.4434 C   0  0  0  0  0  0
   19.3494   38.1901   -8.4290 C   0  0  0  0  0  0
   19.9214   38.4272   -9.4941 O   0  0  0  0  0  0
   18.1468   37.5914   -8.3543 N   0  0  0  0  0  0
   17.3072   37.2073   -9.4860 C   0  0  0  0  0  0
   15.8594   37.7013   -9.3143 C   0  0  0  0  0  0
   15.7418   39.2327   -9.3820 C   0  0  0  0  0  0
   14.2965   39.7265   -9.2425 C   0  0  0  0  0  0
   22.1247   39.1821   -9.6143 O   0  0  0  0  0  0
   23.8981   40.0526   -7.4213 H   0  0  0  0  0  0
   21.1452   40.5177   -8.5016 H   0  0  0  0  0  0
   19.8754   37.7221   -6.4474 H   0  0  0  0  0  0
   21.6613   48.1291  -15.8946 H   0  0  0  0  0  0
   22.2556   46.5509  -16.3992 H   0  0  0  0  0  0
   23.2924   47.9714  -16.5374 H   0  0  0  0  0  0
   22.2748   46.7913  -13.8947 H   0  0  0  0  0  0
   23.3013   48.1977  -14.0315 H   0  0  0  0  0  0
   25.0938   46.7768  -15.0838 H   0  0  0  0  0  0
   24.0674   45.3715  -14.9184 H   0  0  0  0  0  0
   24.0753   45.6402  -12.4327 H   0  0  0  0  0  0
   25.0851   47.0718  -12.5878 H   0  0  0  0  0  0
   26.8317   45.5592  -13.6009 H   0  0  0  0  0  0
   24.0362   44.2485  -11.6728 H   0  0  0  0  0  0
   26.2659   40.8273  -10.2615 H   0  0  0  0  0  0
   30.4532   41.5917  -12.3923 H   0  0  0  0  0  0
   29.7893   43.2074  -12.2047 H   0  0  0  0  0  0
   29.2264   42.1455  -13.5212 H   0  0  0  0  0  0
   24.6826   40.2876   -9.5441 H   0  0  0  0  0  0
   23.9788   42.5108   -7.1798 H   0  0  0  0  0  0
   22.4072   42.6831   -7.8804 H   0  0  0  0  0  0
   20.9664   40.3844   -6.4258 H   0  0  0  0  0  0
   20.0485   40.1605   -4.1348 H   0  0  0  0  0  0
   20.9976   41.5074   -2.2700 H   0  0  0  0  0  0
   22.8760   43.0803   -2.7048 H   0  0  0  0  0  0
   23.8020   43.3140   -4.9893 H   0  0  0  0  0  0
   21.9471   39.1528   -6.3144 H   0  0  0  0  0  0
   22.0381   37.8392   -7.4442 H   0  0  0  0  0  0
   19.5213   39.8565   -5.3866 H   0  0  0  0  0  0
   18.1900   39.6365   -6.4949 H   0  0  0  0  0  0
   19.5133   40.7160   -6.9222 H   0  0  0  0  0  0
   17.7821   37.3867   -7.4350 H   0  0  0  0  0  0
   17.3318   36.1267   -9.6363 H   0  0  0  0  0  0
   17.7427   37.6492  -10.3828 H   0  0  0  0  0  0
   15.4701   37.3510   -8.3573 H   0  0  0  0  0  0
   15.2267   37.2587  -10.0847 H   0  0  0  0  0  0
   16.1497   39.5906  -10.3279 H   0  0  0  0  0  0
   16.3483   39.6826   -8.5951 H   0  0  0  0  0  0
   14.2529   40.8146   -9.2949 H   0  0  0  0  0  0
   13.8647   39.4240   -8.2880 H   0  0  0  0  0  0
   13.6642   39.3316  -10.0381 H   0  0  0  0  0  0
   22.9775   38.7760   -9.6409 H   0  0  0  0  0  0
  1  2  1  0  0  0
  1 40  1  0  0  0
  1 41  1  0  0  0
  1 42  1  0  0  0
  2  3  1  0  0  0
  2 43  1  0  0  0
  2 44  1  0  0  0
  3  4  1  0  0  0
  3 45  1  0  0  0
  3 46  1  0  0  0
  4  5  1  0  0  0
  4 47  1  0  0  0
  4 48  1  0  0  0
  5  6  1  0  0  0
  5 49  1  0  0  0
  6 11  1  0  0  0
  6  7  2  0  0  0
  7  8  1  0  0  0
  7 50  1  0  0  0
  8  9  2  0  0  0
  8 14  1  0  0  0
  9 10  1  0  0  0
  9 51  1  0  0  0
 10 11  2  0  0  0
 10 12  1  0  0  0
 12 13  1  0  0  0
 13 52  1  0  0  0
 13 53  1  0  0  0
 13 54  1  0  0  0
 14 15  2  0  0  0
 14 16  1  0  0  0
 16 17  1  0  0  0
 16 55  1  0  0  0
 17 37  1  0  0  0
 17 18  1  0  0  0
 17 25  1  0  0  0
 18 19  1  0  0  0
 18 56  1  0  0  0
 18 57  1  0  0  0
 19 24  1  0  0  0
 19 20  2  0  0  0
 20 21  1  0  0  0
 20 58  1  0  0  0
 21 22  2  0  0  0
 21 59  1  0  0  0
 22 23  1  0  0  0
 22 60  1  0  0  0
 23 24  2  0  0  0
 23 61  1  0  0  0
 24 62  1  0  0  0
 25 38  1  0  0  0
 25 26  1  0  0  0
 25 36  1  0  0  0
 26 27  1  0  0  0
 26 63  1  0  0  0
 26 64  1  0  0  0
 27 39  1  0  0  0
 27 28  1  0  0  0
 27 29  1  0  0  0
 28 65  1  0  0  0
 28 66  1  0  0  0
 28 67  1  0  0  0
 29 30  2  0  0  0
 29 31  1  0  0  0
 31 32  1  0  0  0
 31 68  1  0  0  0
 32 33  1  0  0  0
 32 69  1  0  0  0
 32 70  1  0  0  0
 33 34  1  0  0  0
 33 71  1  0  0  0
 33 72  1  0  0  0
 34 35  1  0  0  0
 34 73  1  0  0  0
 34 74  1  0  0  0
 35 75  1  0  0  0
 35 76  1  0  0  0
 35 77  1  0  0  0
 36 78  1  0  0  0
M  END
> <s_m_source_file>
BACE_20.smi

> <i_m_source_file_index>
1

> <i_lp_mmshare_version>
42013

> <i_f3d_flags>
0

> <s_epik_input>
W0NIM11bQ0gyXVtDSDJdW0NIMl1bTkhdYzFbY0hdYyhbY0hdYyhuMSlPW0NIM10pQyg9TylbTkhdW0NAQEhdKFtDSDJdYzJbY0hdW2NIXVtjSF1bY0hdW2NIXTIpW0NAQEhdKFtPSF0pW0NIMl1bQ0BASF0oW0NIM10pQyg9TylbTkhdW0NIMl1bQ0gyXVtDSDJdW0NIM10=

> <s_epik_cmdline>
J2VwaWtfcHl0aG9uJywgJy1waCcsICc3LjAnLCAnLXRuJywgJzgnLCAnLW1hJywgJzIwMCcsICctaW1hZScsICc8aW5maWxlLm1hZT4nLCAnLW9tYWUnLCAnPG91dGZpbGUubWFlPic=

> <r_lp_tautomer_probability>
1

> <r_epik_Ionization_Penalty>
  0.0000

> <r_epik_Ionization_Penalty_Charging>
  0.0000

> <r_epik_Ionization_Penalty_Neutral>
  0.0000

> <r_epik_State_Penalty>
 -0.0000

> <r_epik_Charging_Adjusted_Penalty>
0

> <i_epik_Tot_Q>
0

> <i_epik_Tot_abs_Q>
0

> <s_lp_Force_Field>
OPLS_2005

> <r_lp_Energy>
20.6133

> <b_lp_Chiralities_Consistent>
1

> <s_lp_Variant>
BACE_20.smi:1-1

> <chiral flag>
1

> <version>
0

> <r_i_glide_lipo>
-0.356177

> <r_i_glide_hbond>
-0.618841

> <r_i_glide_metal>
-0

> <r_i_glide_rewards>
-0.170657

> <r_i_glide_erotb>
1.14898

> <r_i_glide_esite>
-0.0668184

> <chiral flag>
1

> <s_i_glide_gridfile>
second_dock_grid_2

> <i_i_glide_lignum>
37

> <i_i_glide_rotatable_bonds>
19

> <r_i_docking_score>
-5.13053

> <r_i_glide_ligand_efficiency>
-0.142515

> <r_i_glide_ligand_efficiency_sa>
-0.470573

> <r_i_glide_ligand_efficiency_ln>
-1.11934

> <r_glide_XP_GScore>
-5.13053

> <r_i_glide_gscore>
-5.13053

> <r_i_glide_evdw>
-45.3136

> <r_i_glide_ecoul>
-6.25291

> <r_i_glide_energy>
-51.5665

> <r_i_glide_einternal>
14.7578

> <r_i_glide_emodel>
-70.8401

> <r_glide_XP_HBond>
-1.25393

> <i_i_glide_confnum>
1

> <i_i_glide_posenum>
2

> <r_i_glide_eff_state_penalty>
-0

> <i_glide_XP_PoseRank>
1

$$$$
BACE_20.smi:1
                    3D
 Structure written by MMmdl.
 78 79  0  0  1  0            999 V2000
   22.5506   47.4883  -15.4330 C   0  0  0  0  0  0
   23.4153   47.3250  -14.1785 C   0  0  0  0  0  0
   24.5131   46.2676  -14.3509 C   0  0  0  0  0  0
   25.4045   46.1399  -13.1081 C   0  0  0  0  0  0
   26.3274   45.0216  -13.2348 N   0  0  0  0  0  0
   26.2545   43.9231  -12.3719 C   0  0  0  0  0  0
   25.0789   43.5396  -11.6891 C   0  0  0  0  0  0
   25.1209   42.4361  -10.8067 C   0  0  0  0  0  0
   26.3523   41.7507  -10.6695 C   0  0  0  0  0  0
   27.4696   42.2027  -11.3985 C   0  0  0  0  0  0
   27.4173   43.2663  -12.2323 N   0  0  0  0  0  0
   28.6758   41.5556  -11.2418 O   0  0  0  0  0  0
   29.7722   41.9545  -12.0570 C   0  0  0  0  0  0
   23.8805   42.0340  -10.0455 C   0  0  0  0  0  0
   22.7952   42.5621  -10.2917 O   0  0  0  0  0  0
   24.0523   41.1415   -9.0521 N   0  0  0  0  0  0
   23.0756   40.7355   -8.0248 C   0  0  1  0  0  0
   22.6783   41.9936   -7.1973 C   0  0  0  0  0  0
   22.0213   41.8044   -5.8333 C   0  0  0  0  0  0
   22.4665   40.8276   -4.9164 C   0  0  0  0  0  0
   21.9097   40.7460   -3.6274 C   0  0  0  0  0  0
   20.9025   41.6455   -3.2348 C   0  0  0  0  0  0
   20.4602   42.6295   -4.1371 C   0  0  0  0  0  0
   21.0105   42.7036   -5.4304 C   0  0  0  0  0  0
   21.8696   39.9202   -8.6029 C   0  0  2  0  0  0
   21.3716   38.7845   -7.6634 C   0  0  0  0  0  0
   19.8415   38.6170   -7.4638 C   0  0  1  0  0  0
   19.1923   39.8614   -6.8408 C   0  0  0  0  0  0
   19.0418   38.1533   -8.6954 C   0  0  0  0  0  0
   19.3655   38.4856   -9.8339 O   0  0  0  0  0  0
   17.9623   37.3974   -8.4391 N   0  0  0  0  0  0
   16.9675   36.9810   -9.4169 C   0  0  0  0  0  0
   15.6571   37.7609   -9.2349 C   0  0  0  0  0  0
   15.7675   39.2481   -9.6046 C   0  0  0  0  0  0
   14.4414   39.9866   -9.4105 C   0  0  0  0  0  0
   22.2234   39.3108   -9.8301 O   0  0  0  0  0  0
   23.6607   40.0676   -7.3951 H   0  0  0  0  0  0
   21.0601   40.6107   -8.8371 H   0  0  0  0  0  0
   19.7347   37.8193   -6.7280 H   0  0  0  0  0  0
   21.7709   48.2317  -15.2736 H   0  0  0  0  0  0
   22.0652   46.5500  -15.7005 H   0  0  0  0  0  0
   23.1489   47.8089  -16.2856 H   0  0  0  0  0  0
   22.7792   47.0523  -13.3346 H   0  0  0  0  0  0
   23.8650   48.2874  -13.9274 H   0  0  0  0  0  0
   25.1304   46.5237  -15.2139 H   0  0  0  0  0  0
   24.0601   45.3012  -14.5731 H   0  0  0  0  0  0
   24.7978   46.0633  -12.2057 H   0  0  0  0  0  0
   25.9914   47.0512  -12.9885 H   0  0  0  0  0  0
   27.2524   45.2326  -13.5773 H   0  0  0  0  0  0
   24.1482   44.0676  -11.8341 H   0  0  0  0  0  0
   26.4645   40.8861  -10.0327 H   0  0  0  0  0  0
   30.6442   41.3492  -11.8130 H   0  0  0  0  0  0
   30.0394   42.9984  -11.8899 H   0  0  0  0  0  0
   29.5489   41.8065  -13.1152 H   0  0  0  0  0  0
   24.9749   40.7427   -8.9675 H   0  0  0  0  0  0
   23.5738   42.5887   -7.0066 H   0  0  0  0  0  0
   22.0257   42.6243   -7.8021 H   0  0  0  0  0  0
   23.2603   40.1495   -5.1794 H   0  0  0  0  0  0
   22.2698   40.0082   -2.9252 H   0  0  0  0  0  0
   20.4760   41.5882   -2.2445 H   0  0  0  0  0  0
   19.6894   43.3233   -3.8398 H   0  0  0  0  0  0
   20.6613   43.4687   -6.1075 H   0  0  0  0  0  0
   21.7937   38.9299   -6.6718 H   0  0  0  0  0  0
   21.7952   37.8320   -7.9850 H   0  0  0  0  0  0
   19.6608   40.0984   -5.8859 H   0  0  0  0  0  0
   18.1305   39.7011   -6.6467 H   0  0  0  0  0  0
   19.2735   40.7401   -7.4787 H   0  0  0  0  0  0
   17.7422   37.1827   -7.4726 H   0  0  0  0  0  0
   16.7802   35.9174   -9.2687 H   0  0  0  0  0  0
   17.3359   37.0967  -10.4365 H   0  0  0  0  0  0
   15.3277   37.6762   -8.1970 H   0  0  0  0  0  0
   14.8788   37.2989   -9.8438 H   0  0  0  0  0  0
   16.0928   39.3492  -10.6415 H   0  0  0  0  0  0
   16.5292   39.7301   -8.9895 H   0  0  0  0  0  0
   14.5389   41.0442   -9.6546 H   0  0  0  0  0  0
   14.0983   39.9171   -8.3777 H   0  0  0  0  0  0
   13.6608   39.5661  -10.0416 H   0  0  0  0  0  0
   23.0640   38.8834   -9.7198 H   0  0  0  0  0  0
  1  2  1  0  0  0
  1 40  1  0  0  0
  1 41  1  0  0  0
  1 42  1  0  0  0
  2  3  1  0  0  0
  2 43  1  0  0  0
  2 44  1  0  0  0
  3  4  1  0  0  0
  3 45  1  0  0  0
  3 46  1  0  0  0
  4  5  1  0  0  0
  4 47  1  0  0  0
  4 48  1  0  0  0
  5  6  1  0  0  0
  5 49  1  0  0  0
  6 11  1  0  0  0
  6  7  2  0  0  0
  7  8  1  0  0  0
  7 50  1  0  0  0
  8  9  2  0  0  0
  8 14  1  0  0  0
  9 10  1  0  0  0
  9 51  1  0  0  0
 10 11  2  0  0  0
 10 12  1  0  0  0
 12 13  1  0  0  0
 13 52  1  0  0  0
 13 53  1  0  0  0
 13 54  1  0  0  0
 14 15  2  0  0  0
 14 16  1  0  0  0
 16 17  1  0  0  0
 16 55  1  0  0  0
 17 37  1  0  0  0
 17 18  1  0  0  0
 17 25  1  0  0  0
 18 19  1  0  0  0
 18 56  1  0  0  0
 18 57  1  0  0  0
 19 24  1  0  0  0
 19 20  2  0  0  0
 20 21  1  0  0  0
 20 58  1  0  0  0
 21 22  2  0  0  0
 21 59  1  0  0  0
 22 23  1  0  0  0
 22 60  1  0  0  0
 23 24  2  0  0  0
 23 61  1  0  0  0
 24 62  1  0  0  0
 25 38  1  0  0  0
 25 26  1  0  0  0
 25 36  1  0  0  0
 26 27  1  0  0  0
 26 63  1  0  0  0
 26 64  1  0  0  0
 27 39  1  0  0  0
 27 28  1  0  0  0
 27 29  1  0  0  0
 28 65  1  0  0  0
 28 66  1  0  0  0
 28 67  1  0  0  0
 29 30  2  0  0  0
 29 31  1  0  0  0
 31 32  1  0  0  0
 31 68  1  0  0  0
 32 33  1  0  0  0
 32 69  1  0  0  0
 32 70  1  0  0  0
 33 34  1  0  0  0
 33 71  1  0  0  0
 33 72  1  0  0  0
 34 35  1  0  0  0
 34 73  1  0  0  0
 34 74  1  0  0  0
 35 75  1  0  0  0
 35 76  1  0  0  0
 35 77  1  0  0  0
 36 78  1  0  0  0
M  END
> <s_m_source_file>
BACE_20.smi

> <i_m_source_file_index>
1

> <i_lp_mmshare_version>
42013

> <i_f3d_flags>
0

> <s_epik_input>
W0NIM11bQ0gyXVtDSDJdW0NIMl1bTkhdYzFbY0hdYyhbY0hdYyhuMSlPW0NIM10pQyg9TylbTkhdW0NAQEhdKFtDSDJdYzJbY0hdW2NIXVtjSF1bY0hdW2NIXTIpW0NAQEhdKFtPSF0pW0NIMl1bQ0BASF0oW0NIM10pQyg9TylbTkhdW0NIMl1bQ0gyXVtDSDJdW0NIM10=

> <s_epik_cmdline>
J2VwaWtfcHl0aG9uJywgJy1waCcsICc3LjAnLCAnLXRuJywgJzgnLCAnLW1hJywgJzIwMCcsICctaW1hZScsICc8aW5maWxlLm1hZT4nLCAnLW9tYWUnLCAnPG91dGZpbGUubWFlPic=

> <r_lp_tautomer_probability>
1

> <r_epik_Ionization_Penalty>
  0.0000

> <r_epik_Ionization_Penalty_Charging>
  0.0000

> <r_epik_Ionization_Penalty_Neutral>
  0.0000

> <r_epik_State_Penalty>
 -0.0000

> <r_epik_Charging_Adjusted_Penalty>
0

> <i_epik_Tot_Q>
0

> <i_epik_Tot_abs_Q>
0

> <s_lp_Force_Field>
OPLS_2005

> <r_lp_Energy>
20.6133

> <b_lp_Chiralities_Consistent>
1

> <s_lp_Variant>
BACE_20.smi:1-1

> <chiral flag>
1

> <version>
0

> <r_i_glide_lipo>
-0.356177

> <r_i_glide_hbond>
-0.618841

> <r_i_glide_metal>
-0

> <r_i_glide_rewards>
-0.170657

> <r_i_glide_erotb>
1.14898

> <r_i_glide_esite>
-0.0668184

> <chiral flag>
1

> <s_i_glide_gridfile>
second_dock_grid_2

> <i_i_glide_lignum>
37

> <i_i_glide_rotatable_bonds>
19

> <r_i_docking_score>
-4.66447

> <r_i_glide_ligand_efficiency>
-0.129568

> <r_i_glide_ligand_efficiency_sa>
-0.427826

> <r_i_glide_ligand_efficiency_ln>
-1.01766

> <r_glide_XP_GScore>
-4.66447

> <r_i_glide_gscore>
-4.66447

> <r_i_glide_evdw>
-46.8958

> <r_i_glide_ecoul>
-4.06996

> <r_i_glide_energy>
-50.9658

> <r_i_glide_einternal>
15.0239

> <r_i_glide_emodel>
-68.8381

> <r_glide_XP_HBond>
-1.25393

> <i_i_glide_confnum>
1

> <i_i_glide_posenum>
3

> <r_i_glide_eff_state_penalty>
-0

> <i_glide_XP_PoseRank>
2

$$$$
BACE_20.smi:1
                    3D
 Structure written by MMmdl.
 78 79  0  0  1  0            999 V2000
   22.6141   47.4959  -15.7278 C   0  0  0  0  0  0
   23.3492   47.4017  -14.3859 C   0  0  0  0  0  0
   24.4743   46.3570  -14.3907 C   0  0  0  0  0  0
   25.2745   46.3588  -13.0814 C   0  0  0  0  0  0
   26.2848   45.3117  -13.0759 N   0  0  0  0  0  0
   26.1723   44.1255  -12.3424 C   0  0  0  0  0  0
   25.0489   43.7755  -11.5623 C   0  0  0  0  0  0
   25.0725   42.5709  -10.8241 C   0  0  0  0  0  0
   26.2234   41.7536  -10.9163 C   0  0  0  0  0  0
   27.2791   42.1691  -11.7494 C   0  0  0  0  0  0
   27.2543   43.3352  -12.4364 N   0  0  0  0  0  0
   28.3773   41.3506  -11.9003 O   0  0  0  0  0  0
   29.3389   41.7048  -12.8889 C   0  0  0  0  0  0
   23.8796   42.1739   -9.9966 C   0  0  0  0  0  0
   22.7713   42.6666  -10.2121 O   0  0  0  0  0  0
   24.1292   41.3245   -8.9842 N   0  0  0  0  0  0
   23.1866   40.8420   -7.9621 C   0  0  1  0  0  0
   22.7130   42.0664   -7.1201 C   0  0  0  0  0  0
   22.0492   41.8245   -5.7699 C   0  0  0  0  0  0
   22.4710   40.7953   -4.9045 C   0  0  0  0  0  0
   21.8859   40.6330   -3.6386 C   0  0  0  0  0  0
   20.8781   41.5143   -3.2092 C   0  0  0  0  0  0
   20.4602   42.5567   -4.0562 C   0  0  0  0  0  0
   21.0379   42.7079   -5.3319 C   0  0  0  0  0  0
   22.0386   39.9705   -8.5693 C   0  0  2  0  0  0
   21.5459   38.8070   -7.6631 C   0  0  0  0  0  0
   20.0178   38.6547   -7.4533 C   0  0  1  0  0  0
   19.4230   39.7905   -6.6136 C   0  0  0  0  0  0
   19.1845   38.4614   -8.7312 C   0  0  0  0  0  0
   19.4112   39.1079   -9.7528 O   0  0  0  0  0  0
   18.1679   37.5948   -8.6350 N   0  0  0  0  0  0
   17.1040   37.4468   -9.6159 C   0  0  0  0  0  0
   15.7457   37.6571   -8.9430 C   0  0  0  0  0  0
   15.5403   39.0608   -8.3619 C   0  0  0  0  0  0
   14.1867   39.1839   -7.6645 C   0  0  0  0  0  0
   22.4599   39.3591   -9.7775 O   0  0  0  0  0  0
   23.8029   40.1894   -7.3464 H   0  0  0  0  0  0
   21.2144   40.6371   -8.8226 H   0  0  0  0  0  0
   19.8914   37.7502   -6.8602 H   0  0  0  0  0  0
   21.8260   48.2496  -15.6857 H   0  0  0  0  0  0
   22.1518   46.5469  -15.9938 H   0  0  0  0  0  0
   23.2959   47.7754  -16.5313 H   0  0  0  0  0  0
   22.6331   47.1658  -13.5976 H   0  0  0  0  0  0
   23.7635   48.3792  -14.1407 H   0  0  0  0  0  0
   25.1520   46.5551  -15.2229 H   0  0  0  0  0  0
   24.0603   45.3631  -14.5612 H   0  0  0  0  0  0
   24.6064   46.2871  -12.2230 H   0  0  0  0  0  0
   25.7871   47.3158  -12.9732 H   0  0  0  0  0  0
   27.1613   45.4831  -13.5445 H   0  0  0  0  0  0
   24.1737   44.4034  -11.5118 H   0  0  0  0  0  0
   26.2949   40.8001  -10.4143 H   0  0  0  0  0  0
   30.1205   40.9500  -12.9281 H   0  0  0  0  0  0
   29.8166   42.6591  -12.6632 H   0  0  0  0  0  0
   28.8847   41.7557  -13.8792 H   0  0  0  0  0  0
   25.0764   40.9863   -8.9133 H   0  0  0  0  0  0
   23.5705   42.7088   -6.9128 H   0  0  0  0  0  0
   22.0332   42.6716   -7.7211 H   0  0  0  0  0  0
   23.2599   40.1257   -5.1938 H   0  0  0  0  0  0
   22.2269   39.8386   -2.9945 H   0  0  0  0  0  0
   20.4253   41.3934   -2.2359 H   0  0  0  0  0  0
   19.6864   43.2356   -3.7284 H   0  0  0  0  0  0
   20.7054   43.5137   -5.9696 H   0  0  0  0  0  0
   21.9991   38.8859   -6.6803 H   0  0  0  0  0  0
   21.9303   37.8582   -8.0397 H   0  0  0  0  0  0
   19.8821   39.8271   -5.6271 H   0  0  0  0  0  0
   18.3546   39.6484   -6.4531 H   0  0  0  0  0  0
   19.5558   40.7646   -7.0864 H   0  0  0  0  0  0
   18.0173   37.1327   -7.7481 H   0  0  0  0  0  0
   17.1590   36.4449  -10.0395 H   0  0  0  0  0  0
   17.2129   38.1494  -10.4410 H   0  0  0  0  0  0
   15.6600   36.9477   -8.1249 H   0  0  0  0  0  0
   14.9462   37.4281   -9.6477 H   0  0  0  0  0  0
   15.6218   39.8111   -9.1483 H   0  0  0  0  0  0
   16.3202   39.2837   -7.6339 H   0  0  0  0  0  0
   14.0925   40.1528   -7.1772 H   0  0  0  0  0  0
   14.0631   38.4274   -6.8897 H   0  0  0  0  0  0
   13.3713   39.0695   -8.3794 H   0  0  0  0  0  0
   23.3179   38.9632   -9.6414 H   0  0  0  0  0  0
  1  2  1  0  0  0
  1 40  1  0  0  0
  1 41  1  0  0  0
  1 42  1  0  0  0
  2  3  1  0  0  0
  2 43  1  0  0  0
  2 44  1  0  0  0
  3  4  1  0  0  0
  3 45  1  0  0  0
  3 46  1  0  0  0
  4  5  1  0  0  0
  4 47  1  0  0  0
  4 48  1  0  0  0
  5  6  1  0  0  0
  5 49  1  0  0  0
  6 11  1  0  0  0
  6  7  2  0  0  0
  7  8  1  0  0  0
  7 50  1  0  0  0
  8  9  2  0  0  0
  8 14  1  0  0  0
  9 10  1  0  0  0
  9 51  1  0  0  0
 10 11  2  0  0  0
 10 12  1  0  0  0
 12 13  1  0  0  0
 13 52  1  0  0  0
 13 53  1  0  0  0
 13 54  1  0  0  0
 14 15  2  0  0  0
 14 16  1  0  0  0
 16 17  1  0  0  0
 16 55  1  0  0  0
 17 37  1  0  0  0
 17 18  1  0  0  0
 17 25  1  0  0  0
 18 19  1  0  0  0
 18 56  1  0  0  0
 18 57  1  0  0  0
 19 24  1  0  0  0
 19 20  2  0  0  0
 20 21  1  0  0  0
 20 58  1  0  0  0
 21 22  2  0  0  0
 21 59  1  0  0  0
 22 23  1  0  0  0
 22 60  1  0  0  0
 23 24  2  0  0  0
 23 61  1  0  0  0
 24 62  1  0  0  0
 25 38  1  0  0  0
 25 26  1  0  0  0
 25 36  1  0  0  0
 26 27  1  0  0  0
 26 63  1  0  0  0
 26 64  1  0  0  0
 27 39  1  0  0  0
 27 28  1  0  0  0
 27 29  1  0  0  0
 28 65  1  0  0  0
 28 66  1  0  0  0
 28 67  1  0  0  0
 29 30  2  0  0  0
 29 31  1  0  0  0
 31 32  1  0  0  0
 31 68  1  0  0  0
 32 33  1  0  0  0
 32 69  1  0  0  0
 32 70  1  0  0  0
 33 34  1  0  0  0
 33 71  1  0  0  0
 33 72  1  0  0  0
 34 35  1  0  0  0
 34 73  1  0  0  0
 34 74  1  0  0  0
 35 75  1  0  0  0
 35 76  1  0  0  0
 35 77  1  0  0  0
 36 78  1  0  0  0
M  END
> <s_m_source_file>
BACE_20.smi

> <i_m_source_file_index>
1

> <i_lp_mmshare_version>
42013

> <i_f3d_flags>
0

> <s_epik_input>
W0NIM11bQ0gyXVtDSDJdW0NIMl1bTkhdYzFbY0hdYyhbY0hdYyhuMSlPW0NIM10pQyg9TylbTkhdW0NAQEhdKFtDSDJdYzJbY0hdW2NIXVtjSF1bY0hdW2NIXTIpW0NAQEhdKFtPSF0pW0NIMl1bQ0BASF0oW0NIM10pQyg9TylbTkhdW0NIMl1bQ0gyXVtDSDJdW0NIM10=

> <s_epik_cmdline>
J2VwaWtfcHl0aG9uJywgJy1waCcsICc3LjAnLCAnLXRuJywgJzgnLCAnLW1hJywgJzIwMCcsICctaW1hZScsICc8aW5maWxlLm1hZT4nLCAnLW9tYWUnLCAnPG91dGZpbGUubWFlPic=

> <r_lp_tautomer_probability>
1

> <r_epik_Ionization_Penalty>
  0.0000

> <r_epik_Ionization_Penalty_Charging>
  0.0000

> <r_epik_Ionization_Penalty_Neutral>
  0.0000

> <r_epik_State_Penalty>
 -0.0000

> <r_epik_Charging_Adjusted_Penalty>
0

> <i_epik_Tot_Q>
0

> <i_epik_Tot_abs_Q>
0

> <s_lp_Force_Field>
OPLS_2005

> <r_lp_Energy>
20.6133

> <b_lp_Chiralities_Consistent>
1

> <s_lp_Variant>
BACE_20.smi:1-1

> <chiral flag>
1

> <version>
0

> <r_i_glide_lipo>
-0.356177

> <r_i_glide_hbond>
-0.618841

> <r_i_glide_metal>
-0

> <r_i_glide_rewards>
-0.170657

> <r_i_glide_erotb>
1.14898

> <r_i_glide_esite>
-0.0668184

> <chiral flag>
1

> <s_i_glide_gridfile>
second_dock_grid_2

> <i_i_glide_lignum>
37

> <i_i_glide_rotatable_bonds>
19

> <r_i_docking_score>
-4.54328

> <r_i_glide_ligand_efficiency>
-0.126202

> <r_i_glide_ligand_efficiency_sa>
-0.416711

> <r_i_glide_ligand_efficiency_ln>
-0.991222

> <r_glide_XP_GScore>
-4.54328

> <r_i_glide_gscore>
-4.54328

> <r_i_glide_evdw>
-44.7772

> <r_i_glide_ecoul>
-4.71369

> <r_i_glide_energy>
-49.4909

> <r_i_glide_einternal>
12.7937

> <r_i_glide_emodel>
-66.8913

> <r_glide_XP_HBond>
-1.25393

> <i_i_glide_confnum>
1

> <i_i_glide_posenum>
9

> <r_i_glide_eff_state_penalty>
-0

> <i_glide_XP_PoseRank>
3

$$$$
BACE_20.smi:1
                    3D
 Structure written by MMmdl.
 78 79  0  0  1  0            999 V2000
   24.8601   51.7612   -0.7306 C   0  0  0  0  0  0
   25.6927   50.6026   -0.1732 C   0  0  0  0  0  0
   25.5952   49.3284   -1.0198 C   0  0  0  0  0  0
   26.2405   49.4666   -2.4081 C   0  0  0  0  0  0
   26.0061   48.2949   -3.2405 N   0  0  0  0  0  0
   24.7896   48.1069   -3.9136 C   0  0  0  0  0  0
   24.6202   46.9502   -4.6926 C   0  0  0  0  0  0
   23.3897   46.7332   -5.3451 C   0  0  0  0  0  0
   22.3830   47.7171   -5.2219 C   0  0  0  0  0  0
   22.6451   48.8561   -4.4370 C   0  0  0  0  0  0
   23.8164   49.0355   -3.7842 N   0  0  0  0  0  0
   21.6809   49.8398   -4.3407 O   0  0  0  0  0  0
   21.8718   50.8739   -3.3726 C   0  0  0  0  0  0
   23.1913   45.4982   -6.1734 C   0  0  0  0  0  0
   24.0803   45.0840   -6.9183 O   0  0  0  0  0  0
   22.0170   44.8750   -5.9985 N   0  0  0  0  0  0
   21.6156   43.6290   -6.6491 C   0  0  1  0  0  0
   22.3545   42.4187   -6.0237 C   0  0  0  0  0  0
   22.0371   41.1061   -6.7160 C   0  0  0  0  0  0
   21.0814   40.2199   -6.1714 C   0  0  0  0  0  0
   20.7602   39.0267   -6.8439 C   0  0  0  0  0  0
   21.3987   38.7096   -8.0604 C   0  0  0  0  0  0
   22.3661   39.5832   -8.5953 C   0  0  0  0  0  0
   22.6865   40.7755   -7.9248 C   0  0  0  0  0  0
   20.0720   43.4931   -6.6349 C   0  0  2  0  0  0
   19.3210   44.6809   -7.2910 C   0  0  0  0  0  0
   17.7868   44.5116   -7.4492 C   0  0  1  0  0  0
   17.1483   45.7556   -8.0923 C   0  0  0  0  0  0
   17.4234   43.2546   -8.2528 C   0  0  0  0  0  0
   17.8601   43.1072   -9.3925 O   0  0  0  0  0  0
   16.6524   42.3464   -7.6400 N   0  0  0  0  0  0
   16.3340   41.0341   -8.1743 C   0  0  0  0  0  0
   15.3865   40.2852   -7.2253 C   0  0  0  0  0  0
   15.0635   38.8517   -7.6674 C   0  0  0  0  0  0
   14.2682   38.7824   -8.9783 C   0  0  0  0  0  0
   19.6601   43.3508   -5.2936 O   0  0  0  0  0  0
   21.9126   43.6963   -7.6970 H   0  0  0  0  0  0
   19.8130   42.5773   -7.1610 H   0  0  0  0  0  0
   17.3495   44.4104   -6.4584 H   0  0  0  0  0  0
   24.9035   52.6168   -0.0569 H   0  0  0  0  0  0
   23.8138   51.4780   -0.8448 H   0  0  0  0  0  0
   25.2264   52.0975   -1.7013 H   0  0  0  0  0  0
   25.3518   50.3828    0.8396 H   0  0  0  0  0  0
   26.7350   50.9091   -0.0776 H   0  0  0  0  0  0
   24.5471   49.0412   -1.1082 H   0  0  0  0  0  0
   26.0858   48.5199   -0.4801 H   0  0  0  0  0  0
   27.3165   49.6015   -2.3010 H   0  0  0  0  0  0
   25.8730   50.3497   -2.9299 H   0  0  0  0  0  0
   26.7579   47.6351   -3.3790 H   0  0  0  0  0  0
   25.4138   46.2200   -4.7763 H   0  0  0  0  0  0
   21.4353   47.6099   -5.7266 H   0  0  0  0  0  0
   21.1384   51.6635   -3.5257 H   0  0  0  0  0  0
   22.8511   51.3499   -3.4401 H   0  0  0  0  0  0
   21.7449   50.4909   -2.3583 H   0  0  0  0  0  0
   21.3656   45.2517   -5.3239 H   0  0  0  0  0  0
   23.4327   42.5719   -6.0786 H   0  0  0  0  0  0
   22.1189   42.3354   -4.9610 H   0  0  0  0  0  0
   20.5749   40.4657   -5.2467 H   0  0  0  0  0  0
   20.0151   38.3573   -6.4382 H   0  0  0  0  0  0
   21.1473   37.8001   -8.5824 H   0  0  0  0  0  0
   22.8595   39.3376   -9.5248 H   0  0  0  0  0  0
   23.4240   41.4442   -8.3462 H   0  0  0  0  0  0
   19.7549   44.8598   -8.2745 H   0  0  0  0  0  0
   19.5104   45.5870   -6.7160 H   0  0  0  0  0  0
   17.2830   46.6333   -7.4598 H   0  0  0  0  0  0
   16.0748   45.6179   -8.2340 H   0  0  0  0  0  0
   17.5921   45.9723   -9.0655 H   0  0  0  0  0  0
   16.2924   42.5566   -6.7141 H   0  0  0  0  0  0
   17.2571   40.4644   -8.3085 H   0  0  0  0  0  0
   15.8774   41.1505   -9.1590 H   0  0  0  0  0  0
   14.4603   40.8472   -7.1152 H   0  0  0  0  0  0
   15.8272   40.2428   -6.2279 H   0  0  0  0  0  0
   14.4878   38.3612   -6.8786 H   0  0  0  0  0  0
   15.9863   38.2782   -7.7636 H   0  0  0  0  0  0
   14.0599   37.7501   -9.2410 H   0  0  0  0  0  0
   14.8133   39.2197   -9.8137 H   0  0  0  0  0  0
   13.3116   39.2993   -8.8889 H   0  0  0  0  0  0
   19.0405   42.6245   -5.2400 H   0  0  0  0  0  0
  1  2  1  0  0  0
  1 40  1  0  0  0
  1 41  1  0  0  0
  1 42  1  0  0  0
  2  3  1  0  0  0
  2 43  1  0  0  0
  2 44  1  0  0  0
  3  4  1  0  0  0
  3 45  1  0  0  0
  3 46  1  0  0  0
  4  5  1  0  0  0
  4 47  1  0  0  0
  4 48  1  0  0  0
  5  6  1  0  0  0
  5 49  1  0  0  0
  6 11  1  0  0  0
  6  7  2  0  0  0
  7  8  1  0  0  0
  7 50  1  0  0  0
  8  9  2  0  0  0
  8 14  1  0  0  0
  9 10  1  0  0  0
  9 51  1  0  0  0
 10 11  2  0  0  0
 10 12  1  0  0  0
 12 13  1  0  0  0
 13 52  1  0  0  0
 13 53  1  0  0  0
 13 54  1  0  0  0
 14 15  2  0  0  0
 14 16  1  0  0  0
 16 17  1  0  0  0
 16 55  1  0  0  0
 17 37  1  0  0  0
 17 18  1  0  0  0
 17 25  1  0  0  0
 18 19  1  0  0  0
 18 56  1  0  0  0
 18 57  1  0  0  0
 19 24  1  0  0  0
 19 20  2  0  0  0
 20 21  1  0  0  0
 20 58  1  0  0  0
 21 22  2  0  0  0
 21 59  1  0  0  0
 22 23  1  0  0  0
 22 60  1  0  0  0
 23 24  2  0  0  0
 23 61  1  0  0  0
 24 62  1  0  0  0
 25 38  1  0  0  0
 25 26  1  0  0  0
 25 36  1  0  0  0
 26 27  1  0  0  0
 26 63  1  0  0  0
 26 64  1  0  0  0
 27 39  1  0  0  0
 27 28  1  0  0  0
 27 29  1  0  0  0
 28 65  1  0  0  0
 28 66  1  0  0  0
 28 67  1  0  0  0
 29 30  2  0  0  0
 29 31  1  0  0  0
 31 32  1  0  0  0
 31 68  1  0  0  0
 32 33  1  0  0  0
 32 69  1  0  0  0
 32 70  1  0  0  0
 33 34  1  0  0  0
 33 71  1  0  0  0
 33 72  1  0  0  0
 34 35  1  0  0  0
 34 73  1  0  0  0
 34 74  1  0  0  0
 35 75  1  0  0  0
 35 76  1  0  0  0
 35 77  1  0  0  0
 36 78  1  0  0  0
M  END
> <s_m_source_file>
BACE_20.smi

> <i_m_source_file_index>
1

> <i_lp_mmshare_version>
42013

> <i_f3d_flags>
0

> <s_epik_input>
W0NIM11bQ0gyXVtDSDJdW0NIMl1bTkhdYzFbY0hdYyhbY0hdYyhuMSlPW0NIM10pQyg9TylbTkhdW0NAQEhdKFtDSDJdYzJbY0hdW2NIXVtjSF1bY0hdW2NIXTIpW0NAQEhdKFtPSF0pW0NIMl1bQ0BASF0oW0NIM10pQyg9TylbTkhdW0NIMl1bQ0gyXVtDSDJdW0NIM10=

> <s_epik_cmdline>
J2VwaWtfcHl0aG9uJywgJy1waCcsICc3LjAnLCAnLXRuJywgJzgnLCAnLW1hJywgJzIwMCcsICctaW1hZScsICc8aW5maWxlLm1hZT4nLCAnLW9tYWUnLCAnPG91dGZpbGUubWFlPic=

> <r_lp_tautomer_probability>
1

> <r_epik_Ionization_Penalty>
  0.0000

> <r_epik_Ionization_Penalty_Charging>
  0.0000

> <r_epik_Ionization_Penalty_Neutral>
  0.0000

> <r_epik_State_Penalty>
 -0.0000

> <r_epik_Charging_Adjusted_Penalty>
0

> <i_epik_Tot_Q>
0

> <i_epik_Tot_abs_Q>
0

> <s_lp_Force_Field>
OPLS_2005

> <r_lp_Energy>
20.6133

> <b_lp_Chiralities_Consistent>
1

> <s_lp_Variant>
BACE_20.smi:1-1

> <chiral flag>
1

> <version>
0

> <r_i_glide_lipo>
-0.356177

> <r_i_glide_hbond>
-0.618841

> <r_i_glide_metal>
-0

> <r_i_glide_rewards>
-0.170657

> <r_i_glide_erotb>
1.14898

> <r_i_glide_esite>
-0.0668184

> <chiral flag>
1

> <s_i_glide_gridfile>
second_dock_grid_2

> <i_i_glide_lignum>
37

> <i_i_glide_rotatable_bonds>
19

> <r_i_docking_score>
-4.2927

> <r_i_glide_ligand_efficiency>
-0.119242

> <r_i_glide_ligand_efficiency_sa>
-0.393727

> <r_i_glide_ligand_efficiency_ln>
-0.936551

> <r_glide_XP_GScore>
-4.2927

> <r_i_glide_gscore>
-4.2927

> <r_i_glide_evdw>
-42.0191

> <r_i_glide_ecoul>
-10.6258

> <r_i_glide_energy>
-52.6449

> <r_i_glide_einternal>
8.77745

> <r_i_glide_emodel>
-68.3779

> <r_glide_XP_HBond>
-1.25393

> <i_i_glide_confnum>
1

> <i_i_glide_posenum>
29

> <r_i_glide_eff_state_penalty>
-0

> <i_glide_XP_PoseRank>
4

$$$$
BACE_20.smi:1
                    3D
 Structure written by MMmdl.
 78 79  0  0  1  0            999 V2000
   22.8753   47.1374  -15.8373 C   0  0  0  0  0  0
   23.5879   47.1755  -14.4796 C   0  0  0  0  0  0
   24.6785   46.1029  -14.3612 C   0  0  0  0  0  0
   25.5463   46.2679  -13.1043 C   0  0  0  0  0  0
   26.5807   45.2462  -13.0341 N   0  0  0  0  0  0
   26.4425   44.0774  -12.2757 C   0  0  0  0  0  0
   25.2486   43.6992  -11.6273 C   0  0  0  0  0  0
   25.2309   42.5214  -10.8446 C   0  0  0  0  0  0
   26.4202   41.7584  -10.7673 C   0  0  0  0  0  0
   27.5658   42.2189  -11.4476 C   0  0  0  0  0  0
   27.5700   43.3500  -12.1901 N   0  0  0  0  0  0
   28.7420   41.5106  -11.3337 O   0  0  0  0  0  0
   29.8880   41.9814  -12.0379 C   0  0  0  0  0  0
   23.9712   42.1305  -10.1131 C   0  0  0  0  0  0
   22.8974   42.6693  -10.3829 O   0  0  0  0  0  0
   24.1199   41.2509   -9.1070 N   0  0  0  0  0  0
   23.1159   40.8630   -8.1017 C   0  0  1  0  0  0
   22.7670   42.1308   -7.2585 C   0  0  0  0  0  0
   22.1418   41.9829   -5.8732 C   0  0  0  0  0  0
   22.4620   40.9168   -5.0029 C   0  0  0  0  0  0
   21.8989   40.8504   -3.7153 C   0  0  0  0  0  0
   21.0185   41.8581   -3.2734 C   0  0  0  0  0  0
   20.7145   42.9381   -4.1219 C   0  0  0  0  0  0
   21.2717   42.9991   -5.4133 C   0  0  0  0  0  0
   21.8922   40.1280   -8.7471 C   0  0  2  0  0  0
   21.1284   39.1782   -7.7832 C   0  0  0  0  0  0
   19.5937   39.3458   -7.6916 C   0  0  1  0  0  0
   19.1585   40.7879   -7.3844 C   0  0  0  0  0  0
   18.8233   38.8158   -8.9109 C   0  0  0  0  0  0
   19.0404   39.2686  -10.0332 O   0  0  0  0  0  0
   17.8480   37.9329   -8.6454 N   0  0  0  0  0  0
   16.7137   37.6548   -9.5238 C   0  0  0  0  0  0
   15.3920   37.9935   -8.8114 C   0  0  0  0  0  0
   15.2656   39.4728   -8.4018 C   0  0  0  0  0  0
   14.4626   39.6794   -7.1134 C   0  0  0  0  0  0
   22.2960   39.3511   -9.8581 O   0  0  0  0  0  0
   23.6512   40.1475   -7.4801 H   0  0  0  0  0  0
   21.2205   40.8762   -9.1621 H   0  0  0  0  0  0
   19.2786   38.7451   -6.8364 H   0  0  0  0  0  0
   22.0622   47.8638  -15.8715 H   0  0  0  0  0  0
   22.4602   46.1496  -16.0360 H   0  0  0  0  0  0
   23.5639   47.3739  -16.6476 H   0  0  0  0  0  0
   22.8588   47.0461  -13.6784 H   0  0  0  0  0  0
   24.0249   48.1667  -14.3407 H   0  0  0  0  0  0
   25.3221   46.1512  -15.2403 H   0  0  0  0  0  0
   24.2195   45.1129  -14.3668 H   0  0  0  0  0  0
   24.9344   46.2793  -12.2047 H   0  0  0  0  0  0
   26.0375   47.2400  -13.1317 H   0  0  0  0  0  0
   27.5066   45.4758  -13.3629 H   0  0  0  0  0  0
   24.3510   44.2939  -11.7135 H   0  0  0  0  0  0
   26.4783   40.8382  -10.2031 H   0  0  0  0  0  0
   30.7426   41.3466  -11.8119 H   0  0  0  0  0  0
   30.1482   42.9963  -11.7389 H   0  0  0  0  0  0
   29.7316   41.9538  -13.1177 H   0  0  0  0  0  0
   25.0378   40.8513   -8.9959 H   0  0  0  0  0  0
   23.6812   42.7032   -7.0962 H   0  0  0  0  0  0
   22.1196   42.7820   -7.8495 H   0  0  0  0  0  0
   23.1555   40.1491   -5.3031 H   0  0  0  0  0  0
   22.1560   40.0320   -3.0609 H   0  0  0  0  0  0
   20.5911   41.8120   -2.2832 H   0  0  0  0  0  0
   20.0515   43.7209   -3.7815 H   0  0  0  0  0  0
   21.0301   43.8397   -6.0477 H   0  0  0  0  0  0
   21.5167   39.2885   -6.7779 H   0  0  0  0  0  0
   21.3573   38.1379   -8.0269 H   0  0  0  0  0  0
   19.6276   41.1368   -6.4676 H   0  0  0  0  0  0
   18.0838   40.8424   -7.2397 H   0  0  0  0  0  0
   19.3918   41.4886   -8.1823 H   0  0  0  0  0  0
   17.7441   37.6142   -7.6917 H   0  0  0  0  0  0
   16.7356   36.6011   -9.8068 H   0  0  0  0  0  0
   16.7765   38.2344  -10.4405 H   0  0  0  0  0  0
   15.2997   37.3533   -7.9372 H   0  0  0  0  0  0
   14.5453   37.7394   -9.4495 H   0  0  0  0  0  0
   14.7999   40.0302   -9.2136 H   0  0  0  0  0  0
   16.2390   39.9316   -8.2623 H   0  0  0  0  0  0
   14.4568   40.7344   -6.8419 H   0  0  0  0  0  0
   14.8944   39.1359   -6.2716 H   0  0  0  0  0  0
   13.4349   39.3498   -7.2300 H   0  0  0  0  0  0
   23.1052   38.8982   -9.6418 H   0  0  0  0  0  0
  1  2  1  0  0  0
  1 40  1  0  0  0
  1 41  1  0  0  0
  1 42  1  0  0  0
  2  3  1  0  0  0
  2 43  1  0  0  0
  2 44  1  0  0  0
  3  4  1  0  0  0
  3 45  1  0  0  0
  3 46  1  0  0  0
  4  5  1  0  0  0
  4 47  1  0  0  0
  4 48  1  0  0  0
  5  6  1  0  0  0
  5 49  1  0  0  0
  6 11  1  0  0  0
  6  7  2  0  0  0
  7  8  1  0  0  0
  7 50  1  0  0  0
  8  9  2  0  0  0
  8 14  1  0  0  0
  9 10  1  0  0  0
  9 51  1  0  0  0
 10 11  2  0  0  0
 10 12  1  0  0  0
 12 13  1  0  0  0
 13 52  1  0  0  0
 13 53  1  0  0  0
 13 54  1  0  0  0
 14 15  2  0  0  0
 14 16  1  0  0  0
 16 17  1  0  0  0
 16 55  1  0  0  0
 17 37  1  0  0  0
 17 18  1  0  0  0
 17 25  1  0  0  0
 18 19  1  0  0  0
 18 56  1  0  0  0
 18 57  1  0  0  0
 19 24  1  0  0  0
 19 20  2  0  0  0
 20 21  1  0  0  0
 20 58  1  0  0  0
 21 22  2  0  0  0
 21 59  1  0  0  0
 22 23  1  0  0  0
 22 60  1  0  0  0
 23 24  2  0  0  0
 23 61  1  0  0  0
 24 62  1  0  0  0
 25 38  1  0  0  0
 25 26  1  0  0  0
 25 36  1  0  0  0
 26 27  1  0  0  0
 26 63  1  0  0  0
 26 64  1  0  0  0
 27 39  1  0  0  0
 27 28  1  0  0  0
 27 29  1  0  0  0
 28 65  1  0  0  0
 28 66  1  0  0  0
 28 67  1  0  0  0
 29 30  2  0  0  0
 29 31  1  0  0  0
 31 32  1  0  0  0
 31 68  1  0  0  0
 32 33  1  0  0  0
 32 69  1  0  0  0
 32 70  1  0  0  0
 33 34  1  0  0  0
 33 71  1  0  0  0
 33 72  1  0  0  0
 34 35  1  0  0  0
 34 73  1  0  0  0
 34 74  1  0  0  0
 35 75  1  0  0  0
 35 76  1  0  0  0
 35 77  1  0  0  0
 36 78  1  0  0  0
M  END
> <s_m_source_file>
BACE_20.smi

> <i_m_source_file_index>
1

> <i_lp_mmshare_version>
42013

> <i_f3d_flags>
0

> <s_epik_input>
W0NIM11bQ0gyXVtDSDJdW0NIMl1bTkhdYzFbY0hdYyhbY0hdYyhuMSlPW0NIM10pQyg9TylbTkhdW0NAQEhdKFtDSDJdYzJbY0hdW2NIXVtjSF1bY0hdW2NIXTIpW0NAQEhdKFtPSF0pW0NIMl1bQ0BASF0oW0NIM10pQyg9TylbTkhdW0NIMl1bQ0gyXVtDSDJdW0NIM10=

> <s_epik_cmdline>
J2VwaWtfcHl0aG9uJywgJy1waCcsICc3LjAnLCAnLXRuJywgJzgnLCAnLW1hJywgJzIwMCcsICctaW1hZScsICc8aW5maWxlLm1hZT4nLCAnLW9tYWUnLCAnPG91dGZpbGUubWFlPic=

> <r_lp_tautomer_probability>
1

> <r_epik_Ionization_Penalty>
  0.0000

> <r_epik_Ionization_Penalty_Charging>
  0.0000

> <r_epik_Ionization_Penalty_Neutral>
  0.0000

> <r_epik_State_Penalty>
 -0.0000

> <r_epik_Charging_Adjusted_Penalty>
0

> <i_epik_Tot_Q>
0

> <i_epik_Tot_abs_Q>
0

> <s_lp_Force_Field>
OPLS_2005

> <r_lp_Energy>
20.6133

> <b_lp_Chiralities_Consistent>
1

> <s_lp_Variant>
BACE_20.smi:1-1

> <chiral flag>
1

> <version>
0

> <r_i_glide_lipo>
-0.356177

> <r_i_glide_hbond>
-0.618841

> <r_i_glide_metal>
-0

> <r_i_glide_rewards>
-0.170657

> <r_i_glide_erotb>
1.14898

> <r_i_glide_esite>
-0.0668184

> <chiral flag>
1

> <s_i_glide_gridfile>
second_dock_grid_2

> <i_i_glide_lignum>
37

> <i_i_glide_rotatable_bonds>
19

> <r_i_docking_score>
-4.19061

> <r_i_glide_ligand_efficiency>
-0.116406

> <r_i_glide_ligand_efficiency_sa>
-0.384364

> <r_i_glide_ligand_efficiency_ln>
-0.914279

> <r_glide_XP_GScore>
-4.19061

> <r_i_glide_gscore>
-4.19061

> <r_i_glide_evdw>
-44.7064

> <r_i_glide_ecoul>
-4.37426

> <r_i_glide_energy>
-49.0807

> <r_i_glide_einternal>
10.2704

> <r_i_glide_emodel>
-70.3192

> <r_glide_XP_HBond>
-1.25393

> <i_i_glide_confnum>
1

> <i_i_glide_posenum>
26

> <r_i_glide_eff_state_penalty>
-0

> <i_glide_XP_PoseRank>
5

$$$$
BACE_20.smi:1
                    3D
 Structure written by MMmdl.
 78 79  0  0  1  0            999 V2000
   29.3845   44.8285   -4.5143 C   0  0  0  0  0  0
   30.7213   45.2091   -5.1739 C   0  0  0  0  0  0
   31.0004   44.4991   -6.5128 C   0  0  0  0  0  0
   29.8705   44.6627   -7.5406 C   0  0  0  0  0  0
   30.2235   44.1037   -8.8403 N   0  0  0  0  0  0
   29.2786   43.4722   -9.6623 C   0  0  0  0  0  0
   27.8908   43.4948   -9.3973 C   0  0  0  0  0  0
   27.0120   42.7878  -10.2445 C   0  0  0  0  0  0
   27.5600   42.1373  -11.3690 C   0  0  0  0  0  0
   28.9503   42.1890  -11.5757 C   0  0  0  0  0  0
   29.7972   42.8298  -10.7289 N   0  0  0  0  0  0
   29.4669   41.5659  -12.6925 O   0  0  0  0  0  0
   30.8460   41.7500  -12.9926 C   0  0  0  0  0  0
   25.5369   42.7578   -9.9468 C   0  0  0  0  0  0
   25.0309   43.6174   -9.2263 O   0  0  0  0  0  0
   24.8547   41.7069  -10.4396 N   0  0  0  0  0  0
   23.4488   41.3552  -10.1898 C   0  0  1  0  0  0
   23.3076   40.9357   -8.6976 C   0  0  0  0  0  0
   22.0625   40.1268   -8.3613 C   0  0  0  0  0  0
   21.1679   40.5788   -7.3640 C   0  0  0  0  0  0
   19.9850   39.8620   -7.0923 C   0  0  0  0  0  0
   19.6868   38.6938   -7.8178 C   0  0  0  0  0  0
   20.5804   38.2363   -8.8050 C   0  0  0  0  0  0
   21.7759   38.9325   -9.0558 C   0  0  0  0  0  0
   22.4863   42.4914  -10.6781 C   0  0  2  0  0  0
   20.9619   42.2054  -10.6724 C   0  0  0  0  0  0
   20.3217   41.4706  -11.8802 C   0  0  1  0  0  0
   21.0078   40.1656  -12.3397 C   0  0  0  0  0  0
   18.8187   41.2769  -11.6222 C   0  0  0  0  0  0
   18.0098   42.0785  -12.0917 O   0  0  0  0  0  0
   18.4609   40.2357  -10.8563 N   0  0  0  0  0  0
   17.0979   39.8810  -10.4804 C   0  0  0  0  0  0
   16.6775   40.5643   -9.1684 C   0  0  0  0  0  0
   15.2459   40.2176   -8.7185 C   0  0  0  0  0  0
   15.0676   38.7569   -8.2674 C   0  0  0  0  0  0
   22.8606   42.9500  -11.9691 O   0  0  0  0  0  0
   23.2931   40.4730  -10.8043 H   0  0  0  0  0  0
   22.6190   43.3426  -10.0109 H   0  0  0  0  0  0
   20.3766   42.1491  -12.7251 H   0  0  0  0  0  0
   29.3165   45.2458   -3.5109 H   0  0  0  0  0  0
   29.2604   43.7508   -4.4401 H   0  0  0  0  0  0
   28.5398   45.2143   -5.0850 H   0  0  0  0  0  0
   31.5375   44.9849   -4.4845 H   0  0  0  0  0  0
   30.7500   46.2899   -5.3195 H   0  0  0  0  0  0
   31.1674   43.4360   -6.3339 H   0  0  0  0  0  0
   31.9347   44.8863   -6.9234 H   0  0  0  0  0  0
   29.6233   45.7157   -7.6705 H   0  0  0  0  0  0
   28.9889   44.1653   -7.1396 H   0  0  0  0  0  0
   31.1993   44.0220   -9.0804 H   0  0  0  0  0  0
   27.4815   44.0279   -8.5525 H   0  0  0  0  0  0
   26.9385   41.6036  -12.0720 H   0  0  0  0  0  0
   31.0879   41.2211  -13.9145 H   0  0  0  0  0  0
   31.4863   41.3518  -12.2034 H   0  0  0  0  0  0
   31.0790   42.8044  -13.1458 H   0  0  0  0  0  0
   25.3800   41.0485  -10.9968 H   0  0  0  0  0  0
   24.1594   40.3155   -8.4146 H   0  0  0  0  0  0
   23.3538   41.8162   -8.0546 H   0  0  0  0  0  0
   21.3730   41.4894   -6.8202 H   0  0  0  0  0  0
   19.2891   40.2151   -6.3444 H   0  0  0  0  0  0
   18.7705   38.1541   -7.6208 H   0  0  0  0  0  0
   20.3467   37.3493   -9.3688 H   0  0  0  0  0  0
   22.4602   38.5576   -9.8032 H   0  0  0  0  0  0
   20.4711   43.1798  -10.6189 H   0  0  0  0  0  0
   20.6667   41.7273   -9.7467 H   0  0  0  0  0  0
   22.0416   40.3290  -12.6523 H   0  0  0  0  0  0
   20.4845   39.7457  -13.1989 H   0  0  0  0  0  0
   21.0089   39.4040  -11.5616 H   0  0  0  0  0  0
   19.1964   39.6473  -10.4945 H   0  0  0  0  0  0
   17.0621   38.7968  -10.3723 H   0  0  0  0  0  0
   16.4043   40.1364  -11.2805 H   0  0  0  0  0  0
   16.7488   41.6476   -9.2893 H   0  0  0  0  0  0
   17.3714   40.3030   -8.3687 H   0  0  0  0  0  0
   14.5368   40.4462   -9.5168 H   0  0  0  0  0  0
   14.9768   40.8622   -7.8816 H   0  0  0  0  0  0
   14.0484   38.5849   -7.9226 H   0  0  0  0  0  0
   15.7372   38.5152   -7.4388 H   0  0  0  0  0  0
   15.2594   38.0530   -9.0751 H   0  0  0  0  0  0
   23.1735   42.2039  -12.4669 H   0  0  0  0  0  0
  1  2  1  0  0  0
  1 40  1  0  0  0
  1 41  1  0  0  0
  1 42  1  0  0  0
  2  3  1  0  0  0
  2 43  1  0  0  0
  2 44  1  0  0  0
  3  4  1  0  0  0
  3 45  1  0  0  0
  3 46  1  0  0  0
  4  5  1  0  0  0
  4 47  1  0  0  0
  4 48  1  0  0  0
  5  6  1  0  0  0
  5 49  1  0  0  0
  6 11  1  0  0  0
  6  7  2  0  0  0
  7  8  1  0  0  0
  7 50  1  0  0  0
  8  9  2  0  0  0
  8 14  1  0  0  0
  9 10  1  0  0  0
  9 51  1  0  0  0
 10 11  2  0  0  0
 10 12  1  0  0  0
 12 13  1  0  0  0
 13 52  1  0  0  0
 13 53  1  0  0  0
 13 54  1  0  0  0
 14 15  2  0  0  0
 14 16  1  0  0  0
 16 17  1  0  0  0
 16 55  1  0  0  0
 17 37  1  0  0  0
 17 18  1  0  0  0
 17 25  1  0  0  0
 18 19  1  0  0  0
 18 56  1  0  0  0
 18 57  1  0  0  0
 19 24  1  0  0  0
 19 20  2  0  0  0
 20 21  1  0  0  0
 20 58  1  0  0  0
 21 22  2  0  0  0
 21 59  1  0  0  0
 22 23  1  0  0  0
 22 60  1  0  0  0
 23 24  2  0  0  0
 23 61  1  0  0  0
 24 62  1  0  0  0
 25 38  1  0  0  0
 25 26  1  0  0  0
 25 36  1  0  0  0
 26 27  1  0  0  0
 26 63  1  0  0  0
 26 64  1  0  0  0
 27 39  1  0  0  0
 27 28  1  0  0  0
 27 29  1  0  0  0
 28 65  1  0  0  0
 28 66  1  0  0  0
 28 67  1  0  0  0
 29 30  2  0  0  0
 29 31  1  0  0  0
 31 32  1  0  0  0
 31 68  1  0  0  0
 32 33  1  0  0  0
 32 69  1  0  0  0
 32 70  1  0  0  0
 33 34  1  0  0  0
 33 71  1  0  0  0
 33 72  1  0  0  0
 34 35  1  0  0  0
 34 73  1  0  0  0
 34 74  1  0  0  0
 35 75  1  0  0  0
 35 76  1  0  0  0
 35 77  1  0  0  0
 36 78  1  0  0  0
M  END
> <s_m_source_file>
BACE_20.smi

> <i_m_source_file_index>
1

> <i_lp_mmshare_version>
42013

> <i_f3d_flags>
0

> <s_epik_input>
W0NIM11bQ0gyXVtDSDJdW0NIMl1bTkhdYzFbY0hdYyhbY0hdYyhuMSlPW0NIM10pQyg9TylbTkhdW0NAQEhdKFtDSDJdYzJbY0hdW2NIXVtjSF1bY0hdW2NIXTIpW0NAQEhdKFtPSF0pW0NIMl1bQ0BASF0oW0NIM10pQyg9TylbTkhdW0NIMl1bQ0gyXVtDSDJdW0NIM10=

> <s_epik_cmdline>
J2VwaWtfcHl0aG9uJywgJy1waCcsICc3LjAnLCAnLXRuJywgJzgnLCAnLW1hJywgJzIwMCcsICctaW1hZScsICc8aW5maWxlLm1hZT4nLCAnLW9tYWUnLCAnPG91dGZpbGUubWFlPic=

> <r_lp_tautomer_probability>
1

> <r_epik_Ionization_Penalty>
  0.0000

> <r_epik_Ionization_Penalty_Charging>
  0.0000

> <r_epik_Ionization_Penalty_Neutral>
  0.0000

> <r_epik_State_Penalty>
 -0.0000

> <r_epik_Charging_Adjusted_Penalty>
0

> <i_epik_Tot_Q>
0

> <i_epik_Tot_abs_Q>
0

> <s_lp_Force_Field>
OPLS_2005

> <r_lp_Energy>
20.6133

> <b_lp_Chiralities_Consistent>
1

> <s_lp_Variant>
BACE_20.smi:1-1

> <chiral flag>
1

> <version>
0

> <r_i_glide_lipo>
-0.356177

> <r_i_glide_hbond>
-0.618841

> <r_i_glide_metal>
-0

> <r_i_glide_rewards>
-0.170657

> <r_i_glide_erotb>
1.14898

> <r_i_glide_esite>
-0.0668184

> <chiral flag>
1

> <s_i_glide_gridfile>
second_dock_grid_2

> <i_i_glide_lignum>
37

> <i_i_glide_rotatable_bonds>
19

> <r_i_docking_score>
-4.12546

> <r_i_glide_ligand_efficiency>
-0.114596

> <r_i_glide_ligand_efficiency_sa>
-0.378388

> <r_i_glide_ligand_efficiency_ln>
-0.900064

> <r_glide_XP_GScore>
-4.12546

> <r_i_glide_gscore>
-4.12546

> <r_i_glide_evdw>
-44.3942

> <r_i_glide_ecoul>
-8.77541

> <r_i_glide_energy>
-53.1696

> <r_i_glide_einternal>
14.3536

> <r_i_glide_emodel>
-68.8896

> <r_glide_XP_HBond>
-1.25393

> <i_i_glide_confnum>
1

> <i_i_glide_posenum>
20

> <r_i_glide_eff_state_penalty>
-0

> <i_glide_XP_PoseRank>
6

$$$$
BACE_20.smi:1
                    3D
 Structure written by MMmdl.
 78 79  0  0  1  0            999 V2000
   30.9362   42.4101  -15.7346 C   0  0  0  0  0  0
   30.9766   42.6190  -14.2164 C   0  0  0  0  0  0
   29.7787   41.9808  -13.4992 C   0  0  0  0  0  0
   29.7606   42.3138  -11.9980 C   0  0  0  0  0  0
   28.6099   41.7500  -11.3011 N   0  0  0  0  0  0
   27.3372   42.3273  -11.3967 C   0  0  0  0  0  0
   26.2815   41.7504  -10.6673 C   0  0  0  0  0  0
   24.9886   42.2959  -10.8001 C   0  0  0  0  0  0
   24.8077   43.4055  -11.6522 C   0  0  0  0  0  0
   25.9265   43.9333  -12.3206 C   0  0  0  0  0  0
   27.1681   43.4093  -12.1878 N   0  0  0  0  0  0
   25.7509   45.0231  -13.1479 O   0  0  0  0  0  0
   26.9043   45.5952  -13.7554 C   0  0  0  0  0  0
   23.8321   41.7144  -10.0520 C   0  0  0  0  0  0
   23.8524   41.6307   -8.8240 O   0  0  0  0  0  0
   22.8241   41.2956  -10.8378 N   0  0  0  0  0  0
   21.5609   40.6652  -10.4332 C   0  0  1  0  0  0
   21.7429   39.4859   -9.4389 C   0  0  0  0  0  0
   20.4404   38.7992   -9.0551 C   0  0  0  0  0  0
   19.6676   38.1501  -10.0401 C   0  0  0  0  0  0
   18.4855   37.4754   -9.6845 C   0  0  0  0  0  0
   18.0602   37.4605   -8.3466 C   0  0  0  0  0  0
   18.7968   38.1510   -7.3662 C   0  0  0  0  0  0
   19.9905   38.8127   -7.7165 C   0  0  0  0  0  0
   20.4705   41.6916  -10.0237 C   0  0  2  0  0  0
   20.0489   42.6532  -11.1583 C   0  0  0  0  0  0
   18.7992   43.5127  -10.8455 C   0  0  1  0  0  0
   18.5857   44.5838  -11.9312 C   0  0  0  0  0  0
   17.5325   42.6529  -10.6688 C   0  0  0  0  0  0
   16.8596   42.3263  -11.6493 O   0  0  0  0  0  0
   17.2183   42.2963   -9.4125 N   0  0  0  0  0  0
   16.1047   41.4346   -9.0337 C   0  0  0  0  0  0
   16.2066   41.0455   -7.5490 C   0  0  0  0  0  0
   15.0157   40.2206   -7.0292 C   0  0  0  0  0  0
   14.9417   38.7945   -7.5734 C   0  0  0  0  0  0
   20.8861   42.4416   -8.8990 O   0  0  0  0  0  0
   21.1969   40.2067  -11.3528 H   0  0  0  0  0  0
   19.5925   41.1261   -9.7194 H   0  0  0  0  0  0
   18.9744   44.0439   -9.9084 H   0  0  0  0  0  0
   31.7990   42.8713  -16.2146 H   0  0  0  0  0  0
   30.0368   42.8485  -16.1677 H   0  0  0  0  0  0
   30.9443   41.3499  -15.9856 H   0  0  0  0  0  0
   31.0011   43.6897  -14.0084 H   0  0  0  0  0  0
   31.9034   42.2058  -13.8172 H   0  0  0  0  0  0
   29.7988   40.9001  -13.6403 H   0  0  0  0  0  0
   28.8601   42.3318  -13.9681 H   0  0  0  0  0  0
   29.7799   43.3930  -11.8482 H   0  0  0  0  0  0
   30.6640   41.9240  -11.5304 H   0  0  0  0  0  0
   28.6715   40.8035  -10.9402 H   0  0  0  0  0  0
   26.4474   40.8860  -10.0383 H   0  0  0  0  0  0
   23.8336   43.8546  -11.7834 H   0  0  0  0  0  0
   26.6085   46.4566  -14.3542 H   0  0  0  0  0  0
   27.4034   44.8898  -14.4198 H   0  0  0  0  0  0
   27.6181   45.9433  -13.0067 H   0  0  0  0  0  0
   23.0077   41.3472  -11.8331 H   0  0  0  0  0  0
   22.4097   38.7380   -9.8729 H   0  0  0  0  0  0
   22.2220   39.8175   -8.5190 H   0  0  0  0  0  0
   19.9922   38.1468  -11.0700 H   0  0  0  0  0  0
   17.9149   36.9531  -10.4396 H   0  0  0  0  0  0
   17.1757   36.9069   -8.0719 H   0  0  0  0  0  0
   18.4529   38.1511   -6.3407 H   0  0  0  0  0  0
   20.5604   39.3188   -6.9509 H   0  0  0  0  0  0
   19.8573   42.0744  -12.0623 H   0  0  0  0  0  0
   20.8893   43.3071  -11.3991 H   0  0  0  0  0  0
   19.4337   45.2673  -11.9771 H   0  0  0  0  0  0
   17.6955   45.1824  -11.7300 H   0  0  0  0  0  0
   18.4686   44.1351  -12.9183 H   0  0  0  0  0  0
   17.8307   42.5981   -8.6683 H   0  0  0  0  0  0
   16.1098   40.5399   -9.6569 H   0  0  0  0  0  0
   15.1687   41.9578   -9.2236 H   0  0  0  0  0  0
   16.2729   41.9537   -6.9465 H   0  0  0  0  0  0
   17.1325   40.5003   -7.3650 H   0  0  0  0  0  0
   14.0795   40.7356   -7.2397 H   0  0  0  0  0  0
   15.0807   40.1555   -5.9425 H   0  0  0  0  0  0
   14.0599   38.2868   -7.1956 H   0  0  0  0  0  0
   15.7896   38.2159   -7.2249 H   0  0  0  0  0  0
   14.9065   38.7607   -8.6619 H   0  0  0  0  0  0
   21.4711   41.9052   -8.3803 H   0  0  0  0  0  0
  1  2  1  0  0  0
  1 40  1  0  0  0
  1 41  1  0  0  0
  1 42  1  0  0  0
  2  3  1  0  0  0
  2 43  1  0  0  0
  2 44  1  0  0  0
  3  4  1  0  0  0
  3 45  1  0  0  0
  3 46  1  0  0  0
  4  5  1  0  0  0
  4 47  1  0  0  0
  4 48  1  0  0  0
  5  6  1  0  0  0
  5 49  1  0  0  0
  6 11  1  0  0  0
  6  7  2  0  0  0
  7  8  1  0  0  0
  7 50  1  0  0  0
  8  9  2  0  0  0
  8 14  1  0  0  0
  9 10  1  0  0  0
  9 51  1  0  0  0
 10 11  2  0  0  0
 10 12  1  0  0  0
 12 13  1  0  0  0
 13 52  1  0  0  0
 13 53  1  0  0  0
 13 54  1  0  0  0
 14 15  2  0  0  0
 14 16  1  0  0  0
 16 17  1  0  0  0
 16 55  1  0  0  0
 17 37  1  0  0  0
 17 18  1  0  0  0
 17 25  1  0  0  0
 18 19  1  0  0  0
 18 56  1  0  0  0
 18 57  1  0  0  0
 19 24  1  0  0  0
 19 20  2  0  0  0
 20 21  1  0  0  0
 20 58  1  0  0  0
 21 22  2  0  0  0
 21 59  1  0  0  0
 22 23  1  0  0  0
 22 60  1  0  0  0
 23 24  2  0  0  0
 23 61  1  0  0  0
 24 62  1  0  0  0
 25 38  1  0  0  0
 25 26  1  0  0  0
 25 36  1  0  0  0
 26 27  1  0  0  0
 26 63  1  0  0  0
 26 64  1  0  0  0
 27 39  1  0  0  0
 27 28  1  0  0  0
 27 29  1  0  0  0
 28 65  1  0  0  0
 28 66  1  0  0  0
 28 67  1  0  0  0
 29 30  2  0  0  0
 29 31  1  0  0  0
 31 32  1  0  0  0
 31 68  1  0  0  0
 32 33  1  0  0  0
 32 69  1  0  0  0
 32 70  1  0  0  0
 33 34  1  0  0  0
 33 71  1  0  0  0
 33 72  1  0  0  0
 34 35  1  0  0  0
 34 73  1  0  0  0
 34 74  1  0  0  0
 35 75  1  0  0  0
 35 76  1  0  0  0
 35 77  1  0  0  0
 36 78  1  0  0  0
M  END
> <s_m_source_file>
BACE_20.smi

> <i_m_source_file_index>
1

> <i_lp_mmshare_version>
42013

> <i_f3d_flags>
0

> <s_epik_input>
W0NIM11bQ0gyXVtDSDJdW0NIMl1bTkhdYzFbY0hdYyhbY0hdYyhuMSlPW0NIM10pQyg9TylbTkhdW0NAQEhdKFtDSDJdYzJbY0hdW2NIXVtjSF1bY0hdW2NIXTIpW0NAQEhdKFtPSF0pW0NIMl1bQ0BASF0oW0NIM10pQyg9TylbTkhdW0NIMl1bQ0gyXVtDSDJdW0NIM10=

> <s_epik_cmdline>
J2VwaWtfcHl0aG9uJywgJy1waCcsICc3LjAnLCAnLXRuJywgJzgnLCAnLW1hJywgJzIwMCcsICctaW1hZScsICc8aW5maWxlLm1hZT4nLCAnLW9tYWUnLCAnPG91dGZpbGUubWFlPic=

> <r_lp_tautomer_probability>
1

> <r_epik_Ionization_Penalty>
  0.0000

> <r_epik_Ionization_Penalty_Charging>
  0.0000

> <r_epik_Ionization_Penalty_Neutral>
  0.0000

> <r_epik_State_Penalty>
 -0.0000

> <r_epik_Charging_Adjusted_Penalty>
0

> <i_epik_Tot_Q>
0

> <i_epik_Tot_abs_Q>
0

> <s_lp_Force_Field>
OPLS_2005

> <r_lp_Energy>
20.6133

> <b_lp_Chiralities_Consistent>
1

> <s_lp_Variant>
BACE_20.smi:1-1

> <chiral flag>
1

> <version>
0

> <r_i_glide_lipo>
-0.356177

> <r_i_glide_hbond>
-0.618841

> <r_i_glide_metal>
-0

> <r_i_glide_rewards>
-0.170657

> <r_i_glide_erotb>
1.14898

> <r_i_glide_esite>
-0.0668184

> <chiral flag>
1

> <s_i_glide_gridfile>
second_dock_grid_2

> <i_i_glide_lignum>
37

> <i_i_glide_rotatable_bonds>
19

> <r_i_docking_score>
-4.06429

> <r_i_glide_ligand_efficiency>
-0.112897

> <r_i_glide_ligand_efficiency_sa>
-0.372778

> <r_i_glide_ligand_efficiency_ln>
-0.886719

> <r_glide_XP_GScore>
-4.06429

> <r_i_glide_gscore>
-4.06429

> <r_i_glide_evdw>
-41.5241

> <r_i_glide_ecoul>
-9.62566

> <r_i_glide_energy>
-51.1497

> <r_i_glide_einternal>
9.02114

> <r_i_glide_emodel>
-68.1368

> <r_glide_XP_HBond>
-1.25393

> <i_i_glide_confnum>
1

> <i_i_glide_posenum>
16

> <r_i_glide_eff_state_penalty>
-0

> <i_glide_XP_PoseRank>
7

$$$$
BACE_20.smi:1
                    3D
 Structure written by MMmdl.
 78 79  0  0  1  0            999 V2000
   28.7881   48.6720  -17.2455 C   0  0  0  0  0  0
   29.1821   47.4416  -16.4225 C   0  0  0  0  0  0
   28.1916   47.1479  -15.2857 C   0  0  0  0  0  0
   28.5699   45.8845  -14.5044 C   0  0  0  0  0  0
   27.6141   45.6043  -13.4417 N   0  0  0  0  0  0
   27.6482   44.3795  -12.7642 C   0  0  0  0  0  0
   26.6575   44.1037  -11.8055 C   0  0  0  0  0  0
   26.6533   42.8445  -11.1735 C   0  0  0  0  0  0
   27.6660   41.9214  -11.5032 C   0  0  0  0  0  0
   28.6334   42.2912  -12.4573 C   0  0  0  0  0  0
   28.6205   43.4972  -13.0742 N   0  0  0  0  0  0
   29.6248   41.3927  -12.7940 O   0  0  0  0  0  0
   30.5105   41.7500  -13.8542 C   0  0  0  0  0  0
   25.5709   42.5067  -10.1950 C   0  0  0  0  0  0
   25.2409   43.3096   -9.3225 O   0  0  0  0  0  0
   24.9301   41.3501  -10.4400 N   0  0  0  0  0  0
   23.5839   40.9831   -9.9712 C   0  0  1  0  0  0
   23.6631   40.6597   -8.4530 C   0  0  0  0  0  0
   22.3734   40.1927   -7.8094 C   0  0  0  0  0  0
   21.7846   38.9667   -8.1888 C   0  0  0  0  0  0
   20.5436   38.5864   -7.6405 C   0  0  0  0  0  0
   19.9179   39.3934   -6.6713 C   0  0  0  0  0  0
   20.5304   40.5915   -6.2604 C   0  0  0  0  0  0
   21.7487   40.9966   -6.8347 C   0  0  0  0  0  0
   22.5203   42.0460  -10.4164 C   0  0  2  0  0  0
   21.0262   41.6049  -10.4150 C   0  0  0  0  0  0
   20.2828   41.4695  -11.7763 C   0  0  1  0  0  0
   20.5858   40.1636  -12.5272 C   0  0  0  0  0  0
   18.7721   41.6949  -11.6218 C   0  0  0  0  0  0
   18.2154   42.5525  -12.3077 O   0  0  0  0  0  0
   18.1481   40.9599  -10.6861 N   0  0  0  0  0  0
   16.8509   41.2223  -10.0629 C   0  0  0  0  0  0
   15.6745   41.4477  -11.0336 C   0  0  0  0  0  0
   14.3458   41.6314  -10.2820 C   0  0  0  0  0  0
   13.2506   42.2690  -11.1431 C   0  0  0  0  0  0
   22.8603   42.5754  -11.6863 O   0  0  0  0  0  0
   23.3281   40.0636  -10.4961 H   0  0  0  0  0  0
   22.5995   42.8862   -9.7258 H   0  0  0  0  0  0
   20.5911   42.2795  -12.4295 H   0  0  0  0  0  0
   29.5119   48.8570  -18.0398 H   0  0  0  0  0  0
   28.7495   49.5650  -16.6214 H   0  0  0  0  0  0
   27.8100   48.5482  -17.7092 H   0  0  0  0  0  0
   30.1767   47.5954  -16.0039 H   0  0  0  0  0  0
   29.2599   46.5758  -17.0790 H   0  0  0  0  0  0
   27.1875   47.0361  -15.6945 H   0  0  0  0  0  0
   28.1563   48.0012  -14.6071 H   0  0  0  0  0  0
   29.5613   45.9947  -14.0645 H   0  0  0  0  0  0
   28.6136   45.0322  -15.1841 H   0  0  0  0  0  0
   26.9018   46.2835  -13.2178 H   0  0  0  0  0  0
   25.8870   44.8259  -11.5787 H   0  0  0  0  0  0
   27.7049   40.9500  -11.0395 H   0  0  0  0  0  0
   31.2252   40.9496  -14.0334 H   0  0  0  0  0  0
   31.0814   42.6455  -13.6117 H   0  0  0  0  0  0
   29.9666   41.9132  -14.7855 H   0  0  0  0  0  0
   25.3008   40.7835  -11.1886 H   0  0  0  0  0  0
   24.4077   39.8801   -8.2882 H   0  0  0  0  0  0
   24.0240   41.5292   -7.9056 H   0  0  0  0  0  0
   22.2600   38.3410   -8.9305 H   0  0  0  0  0  0
   20.0605   37.6789   -7.9645 H   0  0  0  0  0  0
   18.9700   39.0954   -6.2446 H   0  0  0  0  0  0
   20.0603   41.2107   -5.5118 H   0  0  0  0  0  0
   22.1959   41.9300   -6.5257 H   0  0  0  0  0  0
   20.4931   42.3326   -9.8018 H   0  0  0  0  0  0
   20.9018   40.6673   -9.8869 H   0  0  0  0  0  0
   21.6519   40.0676  -12.7363 H   0  0  0  0  0  0
   20.0608   40.1500  -13.4842 H   0  0  0  0  0  0
   20.2791   39.2851  -11.9604 H   0  0  0  0  0  0
   18.7097   40.2593  -10.2224 H   0  0  0  0  0  0
   16.9618   42.0873   -9.4056 H   0  0  0  0  0  0
   16.6258   40.3753   -9.4113 H   0  0  0  0  0  0
   15.5954   40.6088  -11.7260 H   0  0  0  0  0  0
   15.8543   42.3389  -11.6313 H   0  0  0  0  0  0
   14.5023   42.2629   -9.4064 H   0  0  0  0  0  0
   14.0044   40.6679   -9.9005 H   0  0  0  0  0  0
   12.3178   42.3338  -10.5813 H   0  0  0  0  0  0
   13.0554   41.6862  -12.0400 H   0  0  0  0  0  0
   13.5251   43.2766  -11.4502 H   0  0  0  0  0  0
   23.1738   41.8678  -12.2399 H   0  0  0  0  0  0
  1  2  1  0  0  0
  1 40  1  0  0  0
  1 41  1  0  0  0
  1 42  1  0  0  0
  2  3  1  0  0  0
  2 43  1  0  0  0
  2 44  1  0  0  0
  3  4  1  0  0  0
  3 45  1  0  0  0
  3 46  1  0  0  0
  4  5  1  0  0  0
  4 47  1  0  0  0
  4 48  1  0  0  0
  5  6  1  0  0  0
  5 49  1  0  0  0
  6 11  1  0  0  0
  6  7  2  0  0  0
  7  8  1  0  0  0
  7 50  1  0  0  0
  8  9  2  0  0  0
  8 14  1  0  0  0
  9 10  1  0  0  0
  9 51  1  0  0  0
 10 11  2  0  0  0
 10 12  1  0  0  0
 12 13  1  0  0  0
 13 52  1  0  0  0
 13 53  1  0  0  0
 13 54  1  0  0  0
 14 15  2  0  0  0
 14 16  1  0  0  0
 16 17  1  0  0  0
 16 55  1  0  0  0
 17 37  1  0  0  0
 17 18  1  0  0  0
 17 25  1  0  0  0
 18 19  1  0  0  0
 18 56  1  0  0  0
 18 57  1  0  0  0
 19 24  1  0  0  0
 19 20  2  0  0  0
 20 21  1  0  0  0
 20 58  1  0  0  0
 21 22  2  0  0  0
 21 59  1  0  0  0
 22 23  1  0  0  0
 22 60  1  0  0  0
 23 24  2  0  0  0
 23 61  1  0  0  0
 24 62  1  0  0  0
 25 38  1  0  0  0
 25 26  1  0  0  0
 25 36  1  0  0  0
 26 27  1  0  0  0
 26 63  1  0  0  0
 26 64  1  0  0  0
 27 39  1  0  0  0
 27 28  1  0  0  0
 27 29  1  0  0  0
 28 65  1  0  0  0
 28 66  1  0  0  0
 28 67  1  0  0  0
 29 30  2  0  0  0
 29 31  1  0  0  0
 31 32  1  0  0  0
 31 68  1  0  0  0
 32 33  1  0  0  0
 32 69  1  0  0  0
 32 70  1  0  0  0
 33 34  1  0  0  0
 33 71  1  0  0  0
 33 72  1  0  0  0
 34 35  1  0  0  0
 34 73  1  0  0  0
 34 74  1  0  0  0
 35 75  1  0  0  0
 35 76  1  0  0  0
 35 77  1  0  0  0
 36 78  1  0  0  0
M  END
> <s_m_source_file>
BACE_20.smi

> <i_m_source_file_index>
1

> <i_lp_mmshare_version>
42013

> <i_f3d_flags>
0

> <s_epik_input>
W0NIM11bQ0gyXVtDSDJdW0NIMl1bTkhdYzFbY0hdYyhbY0hdYyhuMSlPW0NIM10pQyg9TylbTkhdW0NAQEhdKFtDSDJdYzJbY0hdW2NIXVtjSF1bY0hdW2NIXTIpW0NAQEhdKFtPSF0pW0NIMl1bQ0BASF0oW0NIM10pQyg9TylbTkhdW0NIMl1bQ0gyXVtDSDJdW0NIM10=

> <s_epik_cmdline>
J2VwaWtfcHl0aG9uJywgJy1waCcsICc3LjAnLCAnLXRuJywgJzgnLCAnLW1hJywgJzIwMCcsICctaW1hZScsICc8aW5maWxlLm1hZT4nLCAnLW9tYWUnLCAnPG91dGZpbGUubWFlPic=

> <r_lp_tautomer_probability>
1

> <r_epik_Ionization_Penalty>
  0.0000

> <r_epik_Ionization_Penalty_Charging>
  0.0000

> <r_epik_Ionization_Penalty_Neutral>
  0.0000

> <r_epik_State_Penalty>
 -0.0000

> <r_epik_Charging_Adjusted_Penalty>
0

> <i_epik_Tot_Q>
0

> <i_epik_Tot_abs_Q>
0

> <s_lp_Force_Field>
OPLS_2005

> <r_lp_Energy>
20.6133

> <b_lp_Chiralities_Consistent>
1

> <s_lp_Variant>
BACE_20.smi:1-1

> <chiral flag>
1

> <version>
0

> <r_i_glide_lipo>
-0.356177

> <r_i_glide_hbond>
-0.618841

> <r_i_glide_metal>
-0

> <r_i_glide_rewards>
-0.170657

> <r_i_glide_erotb>
1.14898

> <r_i_glide_esite>
-0.0668184

> <chiral flag>
1

> <s_i_glide_gridfile>
second_dock_grid_2

> <i_i_glide_lignum>
37

> <i_i_glide_rotatable_bonds>
19

> <r_i_docking_score>
-3.80274

> <r_i_glide_ligand_efficiency>
-0.105632

> <r_i_glide_ligand_efficiency_sa>
-0.348788

> <r_i_glide_ligand_efficiency_ln>
-0.829655

> <r_glide_XP_GScore>
-3.80274

> <r_i_glide_gscore>
-3.80274

> <r_i_glide_evdw>
-40.2845

> <r_i_glide_ecoul>
-9.43452

> <r_i_glide_energy>
-49.719

> <r_i_glide_einternal>
8.13685

> <r_i_glide_emodel>
-67.7848

> <r_glide_XP_HBond>
-1.25393

> <i_i_glide_confnum>
1

> <i_i_glide_posenum>
22

> <r_i_glide_eff_state_penalty>
-0

> <i_glide_XP_PoseRank>
8

$$$$
BACE_20.smi:1
                    3D
 Structure written by MMmdl.
 78 79  0  0  1  0            999 V2000
   23.1102   46.5020  -16.2907 C   0  0  0  0  0  0
   23.4762   46.7836  -14.8288 C   0  0  0  0  0  0
   24.6835   45.9651  -14.3540 C   0  0  0  0  0  0
   25.0985   46.3095  -12.9180 C   0  0  0  0  0  0
   26.2474   45.5272  -12.4849 N   0  0  0  0  0  0
   26.1149   44.2413  -11.9475 C   0  0  0  0  0  0
   24.9443   43.7803  -11.3105 C   0  0  0  0  0  0
   24.9358   42.4902  -10.7338 C   0  0  0  0  0  0
   26.1080   41.7062  -10.8399 C   0  0  0  0  0  0
   27.2211   42.2410  -11.5181 C   0  0  0  0  0  0
   27.2220   43.4852  -12.0541 N   0  0  0  0  0  0
   28.3633   41.4793  -11.6392 O   0  0  0  0  0  0
   29.4630   42.0255  -12.3597 C   0  0  0  0  0  0
   23.7012   41.9927  -10.0339 C   0  0  0  0  0  0
   22.5996   42.4738  -10.3000 O   0  0  0  0  0  0
   23.9054   41.1170   -9.0322 N   0  0  0  0  0  0
   22.9488   40.7517   -7.9731 C   0  0  1  0  0  0
   22.6549   42.0430   -7.1465 C   0  0  0  0  0  0
   22.0229   41.9172   -5.7652 C   0  0  0  0  0  0
   22.4614   40.9535   -4.8297 C   0  0  0  0  0  0
   21.8916   40.8951   -3.5454 C   0  0  0  0  0  0
   20.8876   41.8082   -3.1715 C   0  0  0  0  0  0
   20.4602   42.7841   -4.0883 C   0  0  0  0  0  0
   21.0239   42.8379   -5.3782 C   0  0  0  0  0  0
   21.6861   40.0207   -8.5398 C   0  0  2  0  0  0
   20.9026   39.1921   -7.4836 C   0  0  0  0  0  0
   19.3543   39.2598   -7.5046 C   0  0  1  0  0  0
   18.7961   40.6928   -7.5715 C   0  0  0  0  0  0
   18.6958   38.4020   -8.5903 C   0  0  0  0  0  0
   19.1013   38.4252   -9.7511 O   0  0  0  0  0  0
   17.6180   37.7016   -8.2051 N   0  0  0  0  0  0
   16.6659   37.0666   -9.1055 C   0  0  0  0  0  0
   15.4471   37.9730   -9.3735 C   0  0  0  0  0  0
   15.7934   39.3488   -9.9756 C   0  0  0  0  0  0
   14.5639   40.1731  -10.3717 C   0  0  0  0  0  0
   22.0598   39.1407   -9.5867 O   0  0  0  0  0  0
   23.4987   40.0455   -7.3517 H   0  0  0  0  0  0
   21.0371   40.7661   -8.9927 H   0  0  0  0  0  0
   19.0353   38.8457   -6.5454 H   0  0  0  0  0  0
   22.2424   47.0867  -16.5928 H   0  0  0  0  0  0
   22.8668   45.4497  -16.4402 H   0  0  0  0  0  0
   23.9310   46.7529  -16.9618 H   0  0  0  0  0  0
   22.6168   46.5656  -14.1918 H   0  0  0  0  0  0
   23.6833   47.8484  -14.7116 H   0  0  0  0  0  0
   25.5262   46.1535  -15.0178 H   0  0  0  0  0  0
   24.4607   44.9000  -14.4277 H   0  0  0  0  0  0
   24.2585   46.2021  -12.2341 H   0  0  0  0  0  0
   25.3827   47.3617  -12.8720 H   0  0  0  0  0  0
   27.1366   45.7325  -12.9147 H   0  0  0  0  0  0
   24.0640   44.3986  -11.2279 H   0  0  0  0  0  0
   26.1600   40.7020  -10.4448 H   0  0  0  0  0  0
   30.3036   41.3341  -12.3331 H   0  0  0  0  0  0
   29.8054   42.9643  -11.9212 H   0  0  0  0  0  0
   29.2014   42.1937  -13.4051 H   0  0  0  0  0  0
   24.8465   40.7656   -8.9307 H   0  0  0  0  0  0
   23.5897   42.5816   -6.9875 H   0  0  0  0  0  0
   22.0308   42.7099   -7.7434 H   0  0  0  0  0  0
   23.2413   40.2528   -5.0856 H   0  0  0  0  0  0
   22.2310   40.1510   -2.8407 H   0  0  0  0  0  0
   20.4496   41.7645   -2.1849 H   0  0  0  0  0  0
   19.6960   43.4907   -3.8032 H   0  0  0  0  0  0
   20.6869   43.5952   -6.0694 H   0  0  0  0  0  0
   21.2036   39.4944   -6.4891 H   0  0  0  0  0  0
   21.2181   38.1501   -7.5263 H   0  0  0  0  0  0
   19.2964   41.3409   -6.8567 H   0  0  0  0  0  0
   17.7358   40.7059   -7.3155 H   0  0  0  0  0  0
   18.8943   41.1367   -8.5627 H   0  0  0  0  0  0
   17.3550   37.6982   -7.2268 H   0  0  0  0  0  0
   16.3320   36.1410   -8.6357 H   0  0  0  0  0  0
   17.1463   36.7814  -10.0402 H   0  0  0  0  0  0
   14.8952   38.1222   -8.4436 H   0  0  0  0  0  0
   14.7738   37.4399  -10.0400 H   0  0  0  0  0  0
   16.4453   39.2271  -10.8403 H   0  0  0  0  0  0
   16.3590   39.9253   -9.2467 H   0  0  0  0  0  0
   14.8512   41.1926  -10.6269 H   0  0  0  0  0  0
   13.8432   40.2260   -9.5540 H   0  0  0  0  0  0
   14.0599   39.7497  -11.2375 H   0  0  0  0  0  0
   22.8152   38.6352   -9.3193 H   0  0  0  0  0  0
  1  2  1  0  0  0
  1 40  1  0  0  0
  1 41  1  0  0  0
  1 42  1  0  0  0
  2  3  1  0  0  0
  2 43  1  0  0  0
  2 44  1  0  0  0
  3  4  1  0  0  0
  3 45  1  0  0  0
  3 46  1  0  0  0
  4  5  1  0  0  0
  4 47  1  0  0  0
  4 48  1  0  0  0
  5  6  1  0  0  0
  5 49  1  0  0  0
  6 11  1  0  0  0
  6  7  2  0  0  0
  7  8  1  0  0  0
  7 50  1  0  0  0
  8  9  2  0  0  0
  8 14  1  0  0  0
  9 10  1  0  0  0
  9 51  1  0  0  0
 10 11  2  0  0  0
 10 12  1  0  0  0
 12 13  1  0  0  0
 13 52  1  0  0  0
 13 53  1  0  0  0
 13 54  1  0  0  0
 14 15  2  0  0  0
 14 16  1  0  0  0
 16 17  1  0  0  0
 16 55  1  0  0  0
 17 37  1  0  0  0
 17 18  1  0  0  0
 17 25  1  0  0  0
 18 19  1  0  0  0
 18 56  1  0  0  0
 18 57  1  0  0  0
 19 24  1  0  0  0
 19 20  2  0  0  0
 20 21  1  0  0  0
 20 58  1  0  0  0
 21 22  2  0  0  0
 21 59  1  0  0  0
 22 23  1  0  0  0
 22 60  1  0  0  0
 23 24  2  0  0  0
 23 61  1  0  0  0
 24 62  1  0  0  0
 25 38  1  0  0  0
 25 26  1  0  0  0
 25 36  1  0  0  0
 26 27  1  0  0  0
 26 63  1  0  0  0
 26 64  1  0  0  0
 27 39  1  0  0  0
 27 28  1  0  0  0
 27 29  1  0  0  0
 28 65  1  0  0  0
 28 66  1  0  0  0
 28 67  1  0  0  0
 29 30  2  0  0  0
 29 31  1  0  0  0
 31 32  1  0  0  0
 31 68  1  0  0  0
 32 33  1  0  0  0
 32 69  1  0  0  0
 32 70  1  0  0  0
 33 34  1  0  0  0
 33 71  1  0  0  0
 33 72  1  0  0  0
 34 35  1  0  0  0
 34 73  1  0  0  0
 34 74  1  0  0  0
 35 75  1  0  0  0
 35 76  1  0  0  0
 35 77  1  0  0  0
 36 78  1  0  0  0
M  END
> <s_m_source_file>
BACE_20.smi

> <i_m_source_file_index>
1

> <i_lp_mmshare_version>
42013

> <i_f3d_flags>
0

> <s_epik_input>
W0NIM11bQ0gyXVtDSDJdW0NIMl1bTkhdYzFbY0hdYyhbY0hdYyhuMSlPW0NIM10pQyg9TylbTkhdW0NAQEhdKFtDSDJdYzJbY0hdW2NIXVtjSF1bY0hdW2NIXTIpW0NAQEhdKFtPSF0pW0NIMl1bQ0BASF0oW0NIM10pQyg9TylbTkhdW0NIMl1bQ0gyXVtDSDJdW0NIM10=

> <s_epik_cmdline>
J2VwaWtfcHl0aG9uJywgJy1waCcsICc3LjAnLCAnLXRuJywgJzgnLCAnLW1hJywgJzIwMCcsICctaW1hZScsICc8aW5maWxlLm1hZT4nLCAnLW9tYWUnLCAnPG91dGZpbGUubWFlPic=

> <r_lp_tautomer_probability>
1

> <r_epik_Ionization_Penalty>
  0.0000

> <r_epik_Ionization_Penalty_Charging>
  0.0000

> <r_epik_Ionization_Penalty_Neutral>
  0.0000

> <r_epik_State_Penalty>
 -0.0000

> <r_epik_Charging_Adjusted_Penalty>
0

> <i_epik_Tot_Q>
0

> <i_epik_Tot_abs_Q>
0

> <s_lp_Force_Field>
OPLS_2005

> <r_lp_Energy>
20.6133

> <b_lp_Chiralities_Consistent>
1

> <s_lp_Variant>
BACE_20.smi:1-1

> <chiral flag>
1

> <version>
0

> <r_i_glide_lipo>
-0.356177

> <r_i_glide_hbond>
-0.618841

> <r_i_glide_metal>
-0

> <r_i_glide_rewards>
-0.170657

> <r_i_glide_erotb>
1.14898

> <r_i_glide_esite>
-0.0668184

> <chiral flag>
1

> <s_i_glide_gridfile>
second_dock_grid_2

> <i_i_glide_lignum>
37

> <i_i_glide_rotatable_bonds>
19

> <r_i_docking_score>
-3.7218

> <r_i_glide_ligand_efficiency>
-0.103383

> <r_i_glide_ligand_efficiency_sa>
-0.341364

> <r_i_glide_ligand_efficiency_ln>
-0.811996

> <r_glide_XP_GScore>
-3.7218

> <r_i_glide_gscore>
-3.7218

> <r_i_glide_evdw>
-47.3894

> <r_i_glide_ecoul>
-3.00585

> <r_i_glide_energy>
-50.3952

> <r_i_glide_einternal>
9.10273

> <r_i_glide_emodel>
-69.0142

> <r_glide_XP_HBond>
-1.25393

> <i_i_glide_confnum>
1

> <i_i_glide_posenum>
14

> <r_i_glide_eff_state_penalty>
-0

> <i_glide_XP_PoseRank>
9

$$$$
BACE_20.smi:1
                    3D
 Structure written by MMmdl.
 78 79  0  0  1  0            999 V2000
   29.2997   47.7638  -15.7698 C   0  0  0  0  0  0
   29.6795   46.5476  -14.9168 C   0  0  0  0  0  0
   28.7216   46.2917  -13.7403 C   0  0  0  0  0  0
   27.3369   45.7940  -14.1881 C   0  0  0  0  0  0
   26.4627   45.4590  -13.0712 N   0  0  0  0  0  0
   26.5493   44.2254  -12.4096 C   0  0  0  0  0  0
   25.5802   43.9230  -11.4364 C   0  0  0  0  0  0
   25.6679   42.6908  -10.7588 C   0  0  0  0  0  0
   26.7270   41.8129  -11.0686 C   0  0  0  0  0  0
   27.6571   42.2037  -12.0468 C   0  0  0  0  0  0
   27.5577   43.3798  -12.7154 N   0  0  0  0  0  0
   28.7029   41.3560  -12.3536 O   0  0  0  0  0  0
   29.5457   41.7044  -13.4464 C   0  0  0  0  0  0
   24.7002   42.3646   -9.6726 C   0  0  0  0  0  0
   24.8230   42.9003   -8.5710 O   0  0  0  0  0  0
   23.7411   41.4736   -9.9841 N   0  0  0  0  0  0
   22.8309   40.8743   -9.0007 C   0  0  1  0  0  0
   21.9286   41.9328   -8.2902 C   0  0  0  0  0  0
   21.8548   41.7272   -6.7847 C   0  0  0  0  0  0
   22.6403   42.5246   -5.9247 C   0  0  0  0  0  0
   22.5955   42.3280   -4.5296 C   0  0  0  0  0  0
   21.7583   41.3346   -3.9882 C   0  0  0  0  0  0
   20.9587   40.5489   -4.8392 C   0  0  0  0  0  0
   21.0067   40.7423   -6.2345 C   0  0  0  0  0  0
   22.0972   39.6409   -9.6275 C   0  0  2  0  0  0
   20.6514   39.8256  -10.1490 C   0  0  0  0  0  0
   20.5118   40.7474  -11.3927 C   0  0  1  0  0  0
   21.0011   40.0448  -12.6746 C   0  0  0  0  0  0
   19.0930   41.3125  -11.6119 C   0  0  0  0  0  0
   18.9027   42.1503  -12.4961 O   0  0  0  0  0  0
   18.1057   40.8764  -10.8172 N   0  0  0  0  0  0
   16.7345   41.3656  -10.8430 C   0  0  0  0  0  0
   15.8486   40.5932   -9.8531 C   0  0  0  0  0  0
   15.6617   39.1165  -10.2320 C   0  0  0  0  0  0
   14.7253   38.3676   -9.2815 C   0  0  0  0  0  0
   22.0598   38.5966   -8.6816 O   0  0  0  0  0  0
   23.5249   40.4863   -8.2478 H   0  0  0  0  0  0
   22.7050   39.2491  -10.4394 H   0  0  0  0  0  0
   21.1360   41.6245  -11.2351 H   0  0  0  0  0  0
   30.0440   47.9366  -16.5483 H   0  0  0  0  0  0
   29.2427   48.6672  -15.1636 H   0  0  0  0  0  0
   28.3354   47.6283  -16.2602 H   0  0  0  0  0  0
   30.6829   46.7050  -14.5201 H   0  0  0  0  0  0
   29.7408   45.6565  -15.5437 H   0  0  0  0  0  0
   28.6213   47.1936  -13.1383 H   0  0  0  0  0  0
   29.1771   45.5444  -13.0900 H   0  0  0  0  0  0
   27.4431   44.9310  -14.8422 H   0  0  0  0  0  0
   26.8382   46.5640  -14.7793 H   0  0  0  0  0  0
   25.7103   46.0899  -12.8395 H   0  0  0  0  0  0
   24.7936   44.6214  -11.1986 H   0  0  0  0  0  0
   26.8345   40.8651  -10.5536 H   0  0  0  0  0  0
   30.3228   40.9505  -13.5703 H   0  0  0  0  0  0
   30.0452   42.6610  -13.2830 H   0  0  0  0  0  0
   28.9833   41.7507  -14.3787 H   0  0  0  0  0  0
   23.7269   41.1056  -10.9262 H   0  0  0  0  0  0
   22.3000   42.9434   -8.4561 H   0  0  0  0  0  0
   20.9188   41.9786   -8.6931 H   0  0  0  0  0  0
   23.2960   43.2815   -6.3320 H   0  0  0  0  0  0
   23.2086   42.9339   -3.8784 H   0  0  0  0  0  0
   21.7220   41.1811   -2.9181 H   0  0  0  0  0  0
   20.3034   39.7987   -4.4270 H   0  0  0  0  0  0
   20.3956   40.1262   -6.8782 H   0  0  0  0  0  0
   20.0257   40.1522   -9.3193 H   0  0  0  0  0  0
   20.2537   38.8428  -10.4156 H   0  0  0  0  0  0
   22.0589   39.8032  -12.6173 H   0  0  0  0  0  0
   20.8675   40.6702  -13.5588 H   0  0  0  0  0  0
   20.4607   39.1122  -12.8401 H   0  0  0  0  0  0
   18.3276   40.1789  -10.1233 H   0  0  0  0  0  0
   16.3369   41.2745  -11.8555 H   0  0  0  0  0  0
   16.7347   42.4260  -10.5861 H   0  0  0  0  0  0
   14.8701   41.0721   -9.8113 H   0  0  0  0  0  0
   16.2617   40.6696   -8.8452 H   0  0  0  0  0  0
   16.6257   38.6081  -10.2573 H   0  0  0  0  0  0
   15.2556   39.0583  -11.2399 H   0  0  0  0  0  0
   14.5779   37.3491   -9.6367 H   0  0  0  0  0  0
   13.7470   38.8444   -9.2262 H   0  0  0  0  0  0
   15.1356   38.3201   -8.2704 H   0  0  0  0  0  0
   22.9234   38.1989   -8.6727 H   0  0  0  0  0  0
  1  2  1  0  0  0
  1 40  1  0  0  0
  1 41  1  0  0  0
  1 42  1  0  0  0
  2  3  1  0  0  0
  2 43  1  0  0  0
  2 44  1  0  0  0
  3  4  1  0  0  0
  3 45  1  0  0  0
  3 46  1  0  0  0
  4  5  1  0  0  0
  4 47  1  0  0  0
  4 48  1  0  0  0
  5  6  1  0  0  0
  5 49  1  0  0  0
  6 11  1  0  0  0
  6  7  2  0  0  0
  7  8  1  0  0  0
  7 50  1  0  0  0
  8  9  2  0  0  0
  8 14  1  0  0  0
  9 10  1  0  0  0
  9 51  1  0  0  0
 10 11  2  0  0  0
 10 12  1  0  0  0
 12 13  1  0  0  0
 13 52  1  0  0  0
 13 53  1  0  0  0
 13 54  1  0  0  0
 14 15  2  0  0  0
 14 16  1  0  0  0
 16 17  1  0  0  0
 16 55  1  0  0  0
 17 37  1  0  0  0
 17 18  1  0  0  0
 17 25  1  0  0  0
 18 19  1  0  0  0
 18 56  1  0  0  0
 18 57  1  0  0  0
 19 24  1  0  0  0
 19 20  2  0  0  0
 20 21  1  0  0  0
 20 58  1  0  0  0
 21 22  2  0  0  0
 21 59  1  0  0  0
 22 23  1  0  0  0
 22 60  1  0  0  0
 23 24  2  0  0  0
 23 61  1  0  0  0
 24 62  1  0  0  0
 25 38  1  0  0  0
 25 26  1  0  0  0
 25 36  1  0  0  0
 26 27  1  0  0  0
 26 63  1  0  0  0
 26 64  1  0  0  0
 27 39  1  0  0  0
 27 28  1  0  0  0
 27 29  1  0  0  0
 28 65  1  0  0  0
 28 66  1  0  0  0
 28 67  1  0  0  0
 29 30  2  0  0  0
 29 31  1  0  0  0
 31 32  1  0  0  0
 31 68  1  0  0  0
 32 33  1  0  0  0
 32 69  1  0  0  0
 32 70  1  0  0  0
 33 34  1  0  0  0
 33 71  1  0  0  0
 33 72  1  0  0  0
 34 35  1  0  0  0
 34 73  1  0  0  0
 34 74  1  0  0  0
 35 75  1  0  0  0
 35 76  1  0  0  0
 35 77  1  0  0  0
 36 78  1  0  0  0
M  END
> <s_m_source_file>
BACE_20.smi

> <i_m_source_file_index>
1

> <i_lp_mmshare_version>
42013

> <i_f3d_flags>
0

> <s_epik_input>
W0NIM11bQ0gyXVtDSDJdW0NIMl1bTkhdYzFbY0hdYyhbY0hdYyhuMSlPW0NIM10pQyg9TylbTkhdW0NAQEhdKFtDSDJdYzJbY0hdW2NIXVtjSF1bY0hdW2NIXTIpW0NAQEhdKFtPSF0pW0NIMl1bQ0BASF0oW0NIM10pQyg9TylbTkhdW0NIMl1bQ0gyXVtDSDJdW0NIM10=

> <s_epik_cmdline>
J2VwaWtfcHl0aG9uJywgJy1waCcsICc3LjAnLCAnLXRuJywgJzgnLCAnLW1hJywgJzIwMCcsICctaW1hZScsICc8aW5maWxlLm1hZT4nLCAnLW9tYWUnLCAnPG91dGZpbGUubWFlPic=

> <r_lp_tautomer_probability>
1

> <r_epik_Ionization_Penalty>
  0.0000

> <r_epik_Ionization_Penalty_Charging>
  0.0000

> <r_epik_Ionization_Penalty_Neutral>
  0.0000

> <r_epik_State_Penalty>
 -0.0000

> <r_epik_Charging_Adjusted_Penalty>
0

> <i_epik_Tot_Q>
0

> <i_epik_Tot_abs_Q>
0

> <s_lp_Force_Field>
OPLS_2005

> <r_lp_Energy>
20.6133

> <b_lp_Chiralities_Consistent>
1

> <s_lp_Variant>
BACE_20.smi:1-1

> <chiral flag>
1

> <version>
0

> <r_i_glide_lipo>
-0.356177

> <r_i_glide_hbond>
-0.618841

> <r_i_glide_metal>
-0

> <r_i_glide_rewards>
-0.170657

> <r_i_glide_erotb>
1.14898

> <r_i_glide_esite>
-0.0668184

> <chiral flag>
1

> <s_i_glide_gridfile>
second_dock_grid_2

> <i_i_glide_lignum>
37

> <i_i_glide_rotatable_bonds>
19

> <r_i_docking_score>
-3.54846

> <r_i_glide_ligand_efficiency>
-0.0985684

> <r_i_glide_ligand_efficiency_sa>
-0.325466

> <r_i_glide_ligand_efficiency_ln>
-0.774178

> <r_glide_XP_GScore>
-3.54846

> <r_i_glide_gscore>
-3.54846

> <r_i_glide_evdw>
-44.517

> <r_i_glide_ecoul>
-5.56752

> <r_i_glide_energy>
-50.0845

> <r_i_glide_einternal>
0

> <r_i_glide_emodel>
-69.5805

> <r_glide_XP_HBond>
-1.25393

> <i_i_glide_confnum>
1

> <i_i_glide_posenum>
38

> <r_i_glide_eff_state_penalty>
-0

> <i_glide_XP_PoseRank>
10

$$$$
