BACE_7.smi:1
                    3D
 Structure written by MMmdl.
 98102  0  0  1  0            999 V2000
   17.6562   38.1192   -9.8418 C   0  0  0  0  0  0
   17.5169   39.2124   -8.7683 C   0  0  2  0  0  0
   17.7795   38.6473   -7.3528 C   0  0  0  0  0  0
   19.2826   38.5213   -7.0234 C   0  0  0  0  0  0
   19.9072   39.8587   -6.5866 C   0  0  0  0  0  0
   21.4320   39.9408   -6.7619 C   0  0  0  0  0  0
   22.0129   41.3072   -6.3304 C   0  0  0  0  0  0
   21.4733   42.4377   -7.1181 N   0  0  0  0  0  0
   21.9575   42.6493   -8.3731 C   0  0  0  0  0  0
   23.0419   42.2163   -8.7614 O   0  0  0  0  0  0
   21.0486   43.2954   -9.3750 C   0  0  0  0  0  0
   21.3717   44.5332   -9.9702 C   0  0  0  0  0  0
   20.5000   45.1121  -10.9239 C   0  0  0  0  0  0
   19.3081   44.4418  -11.2806 C   0  0  0  0  0  0
   18.9856   43.1982  -10.6976 C   0  0  0  0  0  0
   19.8787   42.6207   -9.7704 C   0  0  0  0  0  0
   17.7217   42.4847  -11.0696 C   0  0  0  0  0  0
   17.2600   42.5467  -12.2090 O   0  0  0  0  0  0
   17.1316   41.8542  -10.0417 N   0  0  0  0  0  0
   16.0267   40.8999  -10.0955 C   0  0  1  0  0  0
   16.1550   39.9521   -8.8743 C   0  0  0  0  0  0
   14.6169   41.5748  -10.1940 C   0  0  1  0  0  0
   14.5554   43.1151   -9.9303 C   0  0  0  0  0  0
   13.3578   43.7988  -10.4504 N   0  0  0  0  0  0
   13.4008   44.1259  -11.8838 C   0  0  0  0  0  0
   14.0472   45.4547  -12.2628 C   0  0  0  0  0  0
   15.4418   45.6542  -12.1493 C   0  0  0  0  0  0
   16.0333   46.8394  -12.6250 C   0  0  0  0  0  0
   15.2423   47.8343  -13.2306 C   0  0  0  0  0  0
   13.8409   47.6621  -13.3342 C   0  0  0  0  0  0
   13.2598   46.4727  -12.8391 C   0  0  0  0  0  0
   12.9356   48.7126  -13.9806 C   0  0  0  0  0  0
   12.4256   48.2315  -15.3459 C   0  0  0  0  0  0
   13.5748   50.1085  -14.0927 C   0  0  0  0  0  0
   14.0600   41.1787  -11.4354 O   0  0  0  0  0  0
   20.8204   46.4022  -11.5303 C   0  0  0  0  0  0
   21.9198   47.1429  -11.3771 N   0  0  0  0  0  0
   21.7215   48.2612  -12.1747 C   0  0  0  0  0  0
   20.4904   48.1449  -12.7691 C   0  0  0  0  0  0
   19.9075   46.9740  -12.3655 O   0  0  0  0  0  0
   20.6993   43.4523   -6.3539 C   0  0  2  0  0  0
   19.2335   43.6517   -6.7987 C   0  0  0  0  0  0
   21.4797   44.7568   -6.1664 C   0  0  0  0  0  0
   22.6385   44.7466   -5.3595 C   0  0  0  0  0  0
   23.3854   45.9252   -5.1651 C   0  0  0  0  0  0
   22.9823   47.1254   -5.7760 C   0  0  0  0  0  0
   21.8313   47.1461   -6.5860 C   0  0  0  0  0  0
   21.0841   45.9679   -6.7837 C   0  0  0  0  0  0
   18.3090   39.9290   -8.9551 H   0  0  0  0  0  0
   16.1859   40.2853  -10.9838 H   0  0  0  0  0  0
   13.9623   41.1080   -9.4575 H   0  0  0  0  0  0
   20.5824   43.0813   -5.3349 H   0  0  0  0  0  0
   16.8475   37.3902   -9.7788 H   0  0  0  0  0  0
   18.5940   37.5733   -9.7419 H   0  0  0  0  0  0
   17.6487   38.5491  -10.8404 H   0  0  0  0  0  0
   17.3096   39.2705   -6.5912 H   0  0  0  0  0  0
   17.2963   37.6761   -7.2616 H   0  0  0  0  0  0
   19.4121   37.7850   -6.2292 H   0  0  0  0  0  0
   19.8176   38.1210   -7.8844 H   0  0  0  0  0  0
   19.4516   40.6601   -7.1613 H   0  0  0  0  0  0
   19.6578   40.0516   -5.5440 H   0  0  0  0  0  0
   21.9032   39.1504   -6.1753 H   0  0  0  0  0  0
   21.6964   39.7436   -7.8020 H   0  0  0  0  0  0
   21.8461   41.4320   -5.2606 H   0  0  0  0  0  0
   23.0969   41.2775   -6.4301 H   0  0  0  0  0  0
   22.2830   45.0413   -9.6886 H   0  0  0  0  0  0
   18.6354   44.8798  -12.0035 H   0  0  0  0  0  0
   19.6669   41.6560   -9.3344 H   0  0  0  0  0  0
   17.5760   41.9485   -9.1399 H   0  0  0  0  0  0
   15.3459   39.2195   -8.8848 H   0  0  0  0  0  0
   15.9952   40.5460   -7.9723 H   0  0  0  0  0  0
   14.5969   43.2524   -8.8489 H   0  0  0  0  0  0
   15.4330   43.6270  -10.2988 H   0  0  0  0  0  0
   12.5522   43.2085  -10.2644 H   0  0  0  0  0  0
   13.9220   43.3545  -12.4407 H   0  0  0  0  0  0
   12.3842   44.1248  -12.2741 H   0  0  0  0  0  0
   16.0834   44.8909  -11.7462 H   0  0  0  0  0  0
   17.1040   46.9724  -12.5444 H   0  0  0  0  0  0
   15.7325   48.7201  -13.6046 H   0  0  0  0  0  0
   12.1961   46.3319  -12.9438 H   0  0  0  0  0  0
   12.0670   48.8149  -13.3307 H   0  0  0  0  0  0
   11.8940   47.2822  -15.2649 H   0  0  0  0  0  0
   13.2469   48.0896  -16.0495 H   0  0  0  0  0  0
   11.7354   48.9522  -15.7859 H   0  0  0  0  0  0
   13.9230   50.4745  -13.1276 H   0  0  0  0  0  0
   12.8602   50.8390  -14.4723 H   0  0  0  0  0  0
   14.4196   50.1107  -14.7818 H   0  0  0  0  0  0
   13.3378   40.5848  -11.2398 H   0  0  0  0  0  0
   22.4593   49.0438  -12.2553 H   0  0  0  0  0  0
   19.9262   48.7615  -13.4535 H   0  0  0  0  0  0
   18.7175   44.2894   -6.0815 H   0  0  0  0  0  0
   18.6890   42.7098   -6.8380 H   0  0  0  0  0  0
   19.1247   44.1376   -7.7653 H   0  0  0  0  0  0
   22.9638   43.8320   -4.8839 H   0  0  0  0  0  0
   24.2707   45.9026   -4.5462 H   0  0  0  0  0  0
   23.5574   48.0277   -5.6269 H   0  0  0  0  0  0
   21.5253   48.0635   -7.0649 H   0  0  0  0  0  0
   20.2182   46.0156   -7.4216 H   0  0  0  0  0  0
  1  2  1  0  0  0
  1 53  1  0  0  0
  1 54  1  0  0  0
  1 55  1  0  0  0
  2 49  1  0  0  0
  2 21  1  0  0  0
  2  3  1  0  0  0
  3  4  1  0  0  0
  3 56  1  0  0  0
  3 57  1  0  0  0
  4  5  1  0  0  0
  4 58  1  0  0  0
  4 59  1  0  0  0
  5  6  1  0  0  0
  5 60  1  0  0  0
  5 61  1  0  0  0
  6  7  1  0  0  0
  6 62  1  0  0  0
  6 63  1  0  0  0
  7  8  1  0  0  0
  7 64  1  0  0  0
  7 65  1  0  0  0
  8  9  1  0  0  0
  8 41  1  0  0  0
  9 10  2  0  0  0
  9 11  1  0  0  0
 11 16  1  0  0  0
 11 12  2  0  0  0
 12 13  1  0  0  0
 12 66  1  0  0  0
 13 14  2  0  0  0
 13 36  1  0  0  0
 14 15  1  0  0  0
 14 67  1  0  0  0
 15 16  2  0  0  0
 15 17  1  0  0  0
 16 68  1  0  0  0
 17 18  2  0  0  0
 17 19  1  0  0  0
 19 20  1  0  0  0
 19 69  1  0  0  0
 20 50  1  0  0  0
 20 21  1  0  0  0
 20 22  1  0  0  0
 21 70  1  0  0  0
 21 71  1  0  0  0
 22 51  1  0  0  0
 22 23  1  0  0  0
 22 35  1  0  0  0
 23 24  1  0  0  0
 23 72  1  0  0  0
 23 73  1  0  0  0
 24 25  1  0  0  0
 24 74  1  0  0  0
 25 26  1  0  0  0
 25 75  1  0  0  0
 25 76  1  0  0  0
 26 31  1  0  0  0
 26 27  2  0  0  0
 27 28  1  0  0  0
 27 77  1  0  0  0
 28 29  2  0  0  0
 28 78  1  0  0  0
 29 30  1  0  0  0
 29 79  1  0  0  0
 30 31  2  0  0  0
 30 32  1  0  0  0
 31 80  1  0  0  0
 32 33  1  0  0  0
 32 34  1  0  0  0
 32 81  1  0  0  0
 33 82  1  0  0  0
 33 83  1  0  0  0
 33 84  1  0  0  0
 34 85  1  0  0  0
 34 86  1  0  0  0
 34 87  1  0  0  0
 35 88  1  0  0  0
 36 40  1  0  0  0
 36 37  2  0  0  0
 37 38  1  0  0  0
 38 39  2  0  0  0
 38 89  1  0  0  0
 39 40  1  0  0  0
 39 90  1  0  0  0
 41 52  1  0  0  0
 41 42  1  0  0  0
 41 43  1  0  0  0
 42 91  1  0  0  0
 42 92  1  0  0  0
 42 93  1  0  0  0
 43 48  1  0  0  0
 43 44  2  0  0  0
 44 45  1  0  0  0
 44 94  1  0  0  0
 45 46  2  0  0  0
 45 95  1  0  0  0
 46 47  1  0  0  0
 46 96  1  0  0  0
 47 48  2  0  0  0
 47 97  1  0  0  0
 48 98  1  0  0  0
M  END
> <s_m_source_file>
BACE_7.smi

> <i_m_source_file_index>
1

> <i_lp_mmshare_version>
42013

> <i_f3d_flags>
0

> <s_epik_input>
W2NIXTFbY0hdW2NIXVtjSF1bY0hdYzFbQ0BASF0oW0NIM10pTihDMj1PKVtDSDJdW0NIMl1bQ0gyXVtDSDJdW0NIMl1bQ0BASF0oW0NIM10pW0NIMl1bQ0BIXShbTkhdQyg9TyljKFtjSF0zKVtjSF1jKFtjSF1jMjMpLWM0bltjSF1bY0hdbzQpW0NASF0oW09IXSlbQ0gyXVtOSF1bQ0gyXWM1W2NIXVtjSF1bY0hdYyhbY0hdNSlbQ0hdKFtDSDNdKVtDSDNd

> <s_epik_cmdline>
J2VwaWtfcHl0aG9uJywgJy1waCcsICc3LjAnLCAnLXRuJywgJzgnLCAnLW1hJywgJzIwMCcsICctaW1hZScsICc8aW5maWxlLm1hZT4nLCAnLW9tYWUnLCAnPG91dGZpbGUubWFlPic=

> <r_epik_Ionization_Penalty>
  2.1294

> <r_epik_Ionization_Penalty_Charging>
  0.0000

> <r_epik_Ionization_Penalty_Neutral>
  2.1294

> <r_epik_State_Penalty>
  2.2676

> <r_epik_Charging_Adjusted_Penalty>
2.26762

> <i_epik_Tot_Q>
0

> <i_epik_Tot_abs_Q>
0

> <s_lp_Force_Field>
OPLS_2005

> <r_lp_Energy>
63.2316

> <b_lp_Chiralities_Consistent>
1

> <s_lp_Variant>
BACE_7.smi:1-2

> <chiral flag>
1

> <version>
0

> <r_i_glide_lipo>
-0.803458

> <r_i_glide_hbond>
-0.676623

> <r_i_glide_metal>
-0

> <r_i_glide_rewards>
-9.07933e-06

> <r_i_glide_erotb>
0.249819

> <r_i_glide_esite>
-0.00445028

> <chiral flag>
1

> <s_i_glide_gridfile>
second_dock_grid_2

> <i_i_glide_lignum>
15

> <i_i_glide_rotatable_bonds>
10

> <r_i_docking_score>
-0.990385

> <r_i_glide_ligand_efficiency>
-0.020633

> <r_i_glide_ligand_efficiency_sa>
-0.0749854

> <r_i_glide_ligand_efficiency_ln>
-0.203314

> <r_glide_XP_GScore>
-3.25799

> <r_i_glide_gscore>
-3.25799

> <r_i_glide_evdw>
-39.1233

> <r_i_glide_ecoul>
-16.6616

> <r_i_glide_energy>
-55.7848

> <r_i_glide_einternal>
0

> <r_i_glide_emodel>
-76.5637

> <r_glide_XP_HBond>
-1.2054

> <i_i_glide_confnum>
1

> <i_i_glide_posenum>
1

> <r_i_glide_eff_state_penalty>
2.2676

> <i_glide_XP_PoseRank>
1

$$$$
BACE_7.smi:1
                    3D
 Structure written by MMmdl.
 98102  0  0  1  0            999 V2000
   25.8984   43.3203  -12.0800 C   0  0  0  0  0  0
   26.3662   42.7082  -10.7517 C   0  0  2  0  0  0
   27.7902   42.1183  -10.8615 C   0  0  0  0  0  0
   28.9053   43.1828  -10.8066 C   0  0  0  0  0  0
   29.1787   43.6935   -9.3794 C   0  0  0  0  0  0
   29.7778   45.1088   -9.3383 C   0  0  0  0  0  0
   29.9318   45.6729   -7.9086 C   0  0  0  0  0  0
   28.6300   45.7971   -7.2154 N   0  0  0  0  0  0
   27.8340   46.8590   -7.5148 C   0  0  0  0  0  0
   28.2353   47.8709   -8.0887 O   0  0  0  0  0  0
   26.3621   46.7214   -7.2760 C   0  0  0  0  0  0
   25.6750   47.5824   -6.3997 C   0  0  0  0  0  0
   24.2904   47.4131   -6.1786 C   0  0  0  0  0  0
   23.5982   46.3732   -6.8488 C   0  0  0  0  0  0
   24.2811   45.5186   -7.7442 C   0  0  0  0  0  0
   25.6533   45.7366   -7.9784 C   0  0  0  0  0  0
   23.5714   44.4242   -8.4841 C   0  0  0  0  0  0
   22.4285   44.5768   -8.9116 O   0  0  0  0  0  0
   24.2952   43.3015   -8.6643 N   0  0  0  0  0  0
   24.0318   42.2622   -9.6601 C   0  0  1  0  0  0
   25.3593   41.6672  -10.1977 C   0  0  0  0  0  0
   23.0111   41.2208   -9.1289 C   0  0  1  0  0  0
   22.1764   40.6057  -10.2666 C   0  0  0  0  0  0
   20.8877   40.1628   -9.7542 N   0  0  0  0  0  0
   19.9833   39.6259  -10.7606 C   0  0  0  0  0  0
   18.7838   38.9827  -10.1027 C   0  0  0  0  0  0
   18.9409   37.7501   -9.4447 C   0  0  0  0  0  0
   17.8443   37.1449   -8.8106 C   0  0  0  0  0  0
   16.5908   37.7765   -8.8219 C   0  0  0  0  0  0
   16.4115   39.0189   -9.4782 C   0  0  0  0  0  0
   17.5256   39.6171  -10.1107 C   0  0  0  0  0  0
   15.0505   39.7260   -9.4860 C   0  0  0  0  0  0
   13.9258   38.8966   -8.8390 C   0  0  0  0  0  0
   14.6372   40.1890  -10.8968 C   0  0  0  0  0  0
   23.6548   40.1593   -8.4404 O   0  0  0  0  0  0
   23.5898   48.3034   -5.2524 C   0  0  0  0  0  0
   22.2868   48.3706   -4.9733 N   0  0  0  0  0  0
   22.1603   49.3961   -4.0435 C   0  0  0  0  0  0
   23.4097   49.8978   -3.7957 C   0  0  0  0  0  0
   24.3205   49.2210   -4.5578 O   0  0  0  0  0  0
   28.4745   44.9171   -6.0286 C   0  0  2  0  0  0
   27.1819   44.0773   -5.9331 C   0  0  0  0  0  0
   28.7955   45.6586   -4.7380 C   0  0  0  0  0  0
   27.7844   46.3014   -3.9875 C   0  0  0  0  0  0
   28.1127   47.0396   -2.8391 C   0  0  0  0  0  0
   29.4516   47.1331   -2.4240 C   0  0  0  0  0  0
   30.4598   46.4765   -3.1538 C   0  0  0  0  0  0
   30.1350   45.7479   -4.3110 C   0  0  0  0  0  0
   26.4290   43.5208  -10.0360 H   0  0  0  0  0  0
   23.5587   42.7769  -10.4964 H   0  0  0  0  0  0
   22.3385   41.7216   -8.4301 H   0  0  0  0  0  0
   29.2422   44.1501   -6.0995 H   0  0  0  0  0  0
   25.7877   42.5488  -12.8392 H   0  0  0  0  0  0
   26.6075   44.0531  -12.4577 H   0  0  0  0  0  0
   24.9426   43.8288  -11.9743 H   0  0  0  0  0  0
   27.9592   41.4112  -10.0484 H   0  0  0  0  0  0
   27.8731   41.5367  -11.7821 H   0  0  0  0  0  0
   29.8285   42.7641  -11.2088 H   0  0  0  0  0  0
   28.6487   44.0128  -11.4627 H   0  0  0  0  0  0
   28.2535   43.6865   -8.8092 H   0  0  0  0  0  0
   29.8473   42.9989   -8.8717 H   0  0  0  0  0  0
   30.7534   45.0966   -9.8257 H   0  0  0  0  0  0
   29.1567   45.7862   -9.9290 H   0  0  0  0  0  0
   30.6378   45.0515   -7.3570 H   0  0  0  0  0  0
   30.4258   46.6444   -7.9580 H   0  0  0  0  0  0
   26.2232   48.3616   -5.8846 H   0  0  0  0  0  0
   22.5397   46.2329   -6.6775 H   0  0  0  0  0  0
   26.1910   45.1164   -8.6775 H   0  0  0  0  0  0
   25.1847   43.2477   -8.1905 H   0  0  0  0  0  0
   25.1460   40.9249  -10.9657 H   0  0  0  0  0  0
   25.8348   41.1119   -9.3902 H   0  0  0  0  0  0
   21.9990   41.3505  -11.0434 H   0  0  0  0  0  0
   22.7139   39.7877  -10.7455 H   0  0  0  0  0  0
   21.0190   39.4927   -9.0025 H   0  0  0  0  0  0
   19.6635   40.4108  -11.4489 H   0  0  0  0  0  0
   20.4875   38.8678  -11.3604 H   0  0  0  0  0  0
   19.9110   37.2779   -9.4151 H   0  0  0  0  0  0
   17.9649   36.2073   -8.2899 H   0  0  0  0  0  0
   15.7843   37.2967   -8.2895 H   0  0  0  0  0  0
   17.4241   40.5764  -10.5949 H   0  0  0  0  0  0
   15.1686   40.6242   -8.8766 H   0  0  0  0  0  0
   14.0872   38.7803   -7.7663 H   0  0  0  0  0  0
   13.8637   37.9010   -9.2750 H   0  0  0  0  0  0
   12.9451   39.3501   -8.9731 H   0  0  0  0  0  0
   15.3436   40.9100  -11.3085 H   0  0  0  0  0  0
   13.6616   40.6785  -10.8726 H   0  0  0  0  0  0
   14.5754   39.3517  -11.5903 H   0  0  0  0  0  0
   24.0786   39.5855   -9.0716 H   0  0  0  0  0  0
   21.2042   49.6800   -3.6332 H   0  0  0  0  0  0
   23.7933   50.6753   -3.1539 H   0  0  0  0  0  0
   27.2613   43.3535   -5.1232 H   0  0  0  0  0  0
   27.0038   43.5129   -6.8488 H   0  0  0  0  0  0
   26.2889   44.6581   -5.7134 H   0  0  0  0  0  0
   26.7499   46.2468   -4.2908 H   0  0  0  0  0  0
   27.3355   47.5416   -2.2817 H   0  0  0  0  0  0
   29.7088   47.7122   -1.5495 H   0  0  0  0  0  0
   31.4911   46.5510   -2.8408 H   0  0  0  0  0  0
   30.9270   45.2760   -4.8714 H   0  0  0  0  0  0
  1  2  1  0  0  0
  1 53  1  0  0  0
  1 54  1  0  0  0
  1 55  1  0  0  0
  2 49  1  0  0  0
  2 21  1  0  0  0
  2  3  1  0  0  0
  3  4  1  0  0  0
  3 56  1  0  0  0
  3 57  1  0  0  0
  4  5  1  0  0  0
  4 58  1  0  0  0
  4 59  1  0  0  0
  5  6  1  0  0  0
  5 60  1  0  0  0
  5 61  1  0  0  0
  6  7  1  0  0  0
  6 62  1  0  0  0
  6 63  1  0  0  0
  7  8  1  0  0  0
  7 64  1  0  0  0
  7 65  1  0  0  0
  8  9  1  0  0  0
  8 41  1  0  0  0
  9 10  2  0  0  0
  9 11  1  0  0  0
 11 16  1  0  0  0
 11 12  2  0  0  0
 12 13  1  0  0  0
 12 66  1  0  0  0
 13 14  2  0  0  0
 13 36  1  0  0  0
 14 15  1  0  0  0
 14 67  1  0  0  0
 15 16  2  0  0  0
 15 17  1  0  0  0
 16 68  1  0  0  0
 17 18  2  0  0  0
 17 19  1  0  0  0
 19 20  1  0  0  0
 19 69  1  0  0  0
 20 50  1  0  0  0
 20 21  1  0  0  0
 20 22  1  0  0  0
 21 70  1  0  0  0
 21 71  1  0  0  0
 22 51  1  0  0  0
 22 23  1  0  0  0
 22 35  1  0  0  0
 23 24  1  0  0  0
 23 72  1  0  0  0
 23 73  1  0  0  0
 24 25  1  0  0  0
 24 74  1  0  0  0
 25 26  1  0  0  0
 25 75  1  0  0  0
 25 76  1  0  0  0
 26 31  1  0  0  0
 26 27  2  0  0  0
 27 28  1  0  0  0
 27 77  1  0  0  0
 28 29  2  0  0  0
 28 78  1  0  0  0
 29 30  1  0  0  0
 29 79  1  0  0  0
 30 31  2  0  0  0
 30 32  1  0  0  0
 31 80  1  0  0  0
 32 33  1  0  0  0
 32 34  1  0  0  0
 32 81  1  0  0  0
 33 82  1  0  0  0
 33 83  1  0  0  0
 33 84  1  0  0  0
 34 85  1  0  0  0
 34 86  1  0  0  0
 34 87  1  0  0  0
 35 88  1  0  0  0
 36 40  1  0  0  0
 36 37  2  0  0  0
 37 38  1  0  0  0
 38 39  2  0  0  0
 38 89  1  0  0  0
 39 40  1  0  0  0
 39 90  1  0  0  0
 41 52  1  0  0  0
 41 42  1  0  0  0
 41 43  1  0  0  0
 42 91  1  0  0  0
 42 92  1  0  0  0
 42 93  1  0  0  0
 43 48  1  0  0  0
 43 44  2  0  0  0
 44 45  1  0  0  0
 44 94  1  0  0  0
 45 46  2  0  0  0
 45 95  1  0  0  0
 46 47  1  0  0  0
 46 96  1  0  0  0
 47 48  2  0  0  0
 47 97  1  0  0  0
 48 98  1  0  0  0
M  END
> <s_m_source_file>
BACE_7.smi

> <i_m_source_file_index>
1

> <i_lp_mmshare_version>
42013

> <i_f3d_flags>
0

> <s_epik_input>
W2NIXTFbY0hdW2NIXVtjSF1bY0hdYzFbQ0BASF0oW0NIM10pTihDMj1PKVtDSDJdW0NIMl1bQ0gyXVtDSDJdW0NIMl1bQ0BASF0oW0NIM10pW0NIMl1bQ0BIXShbTkhdQyg9TyljKFtjSF0zKVtjSF1jKFtjSF1jMjMpLWM0bltjSF1bY0hdbzQpW0NASF0oW09IXSlbQ0gyXVtOSF1bQ0gyXWM1W2NIXVtjSF1bY0hdYyhbY0hdNSlbQ0hdKFtDSDNdKVtDSDNd

> <s_epik_cmdline>
J2VwaWtfcHl0aG9uJywgJy1waCcsICc3LjAnLCAnLXRuJywgJzgnLCAnLW1hJywgJzIwMCcsICctaW1hZScsICc8aW5maWxlLm1hZT4nLCAnLW9tYWUnLCAnPG91dGZpbGUubWFlPic=

> <r_epik_Ionization_Penalty>
  2.1294

> <r_epik_Ionization_Penalty_Charging>
  0.0000

> <r_epik_Ionization_Penalty_Neutral>
  2.1294

> <r_epik_State_Penalty>
  2.2676

> <r_epik_Charging_Adjusted_Penalty>
2.26762

> <i_epik_Tot_Q>
0

> <i_epik_Tot_abs_Q>
0

> <s_lp_Force_Field>
OPLS_2005

> <r_lp_Energy>
63.2316

> <b_lp_Chiralities_Consistent>
1

> <s_lp_Variant>
BACE_7.smi:1-2

> <chiral flag>
1

> <version>
0

> <r_i_glide_lipo>
-0.803458

> <r_i_glide_hbond>
-0.676623

> <r_i_glide_metal>
-0

> <r_i_glide_rewards>
-9.07933e-06

> <r_i_glide_erotb>
0.249819

> <r_i_glide_esite>
-0.00445028

> <chiral flag>
1

> <s_i_glide_gridfile>
second_dock_grid_2

> <i_i_glide_lignum>
15

> <i_i_glide_rotatable_bonds>
10

> <r_i_docking_score>
1.54518

> <r_i_glide_ligand_efficiency>
0.0321912

> <r_i_glide_ligand_efficiency_sa>
0.116991

> <r_i_glide_ligand_efficiency_ln>
0.317207

> <r_glide_XP_GScore>
-0.722423

> <r_i_glide_gscore>
-0.722423

> <r_i_glide_evdw>
-46.3369

> <r_i_glide_ecoul>
-5.40894

> <r_i_glide_energy>
-51.7459

> <r_i_glide_einternal>
4.40786

> <r_i_glide_emodel>
-71.7135

> <r_glide_XP_HBond>
-1.2054

> <i_i_glide_confnum>
1

> <i_i_glide_posenum>
13

> <r_i_glide_eff_state_penalty>
2.2676

> <i_glide_XP_PoseRank>
2

$$$$
BACE_7.smi:1
                    3D
 Structure written by MMmdl.
 98102  0  0  1  0            999 V2000
   25.8992   43.2297  -12.1011 C   0  0  0  0  0  0
   26.3621   42.6476  -10.7589 C   0  0  2  0  0  0
   27.7878   42.0588  -10.8620 C   0  0  0  0  0  0
   28.9006   43.1277  -10.8040 C   0  0  0  0  0  0
   29.1581   43.6584   -9.3804 C   0  0  0  0  0  0
   29.7848   45.0626   -9.3447 C   0  0  0  0  0  0
   29.9346   45.6388   -7.9208 C   0  0  0  0  0  0
   28.6316   45.7705   -7.2271 N   0  0  0  0  0  0
   27.8438   46.8398   -7.5273 C   0  0  0  0  0  0
   28.2622   47.8546   -8.0857 O   0  0  0  0  0  0
   26.3672   46.7134   -7.3130 C   0  0  0  0  0  0
   25.6645   47.6139   -6.4928 C   0  0  0  0  0  0
   24.2675   47.4844   -6.3170 C   0  0  0  0  0  0
   23.5766   46.4391   -6.9841 C   0  0  0  0  0  0
   24.2753   45.5358   -7.8202 C   0  0  0  0  0  0
   25.6593   45.7133   -8.0066 C   0  0  0  0  0  0
   23.5668   44.4382   -8.5658 C   0  0  0  0  0  0
   22.4358   44.6050   -9.0183 O   0  0  0  0  0  0
   24.2741   43.3047   -8.7073 N   0  0  0  0  0  0
   24.0188   42.2399   -9.6813 C   0  0  1  0  0  0
   25.3497   41.6245  -10.1823 C   0  0  0  0  0  0
   22.9850   41.2173   -9.1411 C   0  0  1  0  0  0
   22.1545   40.5921  -10.2746 C   0  0  0  0  0  0
   20.8838   40.1127   -9.7503 N   0  0  0  0  0  0
   19.9907   39.5443  -10.7477 C   0  0  0  0  0  0
   18.7611   38.9650  -10.0855 C   0  0  0  0  0  0
   18.8652   37.7482   -9.3855 C   0  0  0  0  0  0
   17.7350   37.1976   -8.7640 C   0  0  0  0  0  0
   16.5001   37.8636   -8.8302 C   0  0  0  0  0  0
   16.3760   39.0923   -9.5198 C   0  0  0  0  0  0
   17.5260   39.6393  -10.1367 C   0  0  0  0  0  0
   15.0426   39.8418   -9.5982 C   0  0  0  0  0  0
   13.8616   39.0603   -8.9931 C   0  0  0  0  0  0
   14.6924   40.2448  -11.0365 C   0  0  0  0  0  0
   23.6109   40.1531   -8.4395 O   0  0  0  0  0  0
   23.5611   48.4304   -5.4539 C   0  0  0  0  0  0
   24.0704   49.4458   -4.7489 N   0  0  0  0  0  0
   22.9936   50.0159   -4.0884 C   0  0  0  0  0  0
   21.8645   49.3329   -4.4581 C   0  0  0  0  0  0
   22.2081   48.3219   -5.3163 O   0  0  0  0  0  0
   28.4771   44.9096   -6.0217 C   0  0  2  0  0  0
   27.1957   44.0510   -5.9221 C   0  0  0  0  0  0
   28.7866   45.6742   -4.7435 C   0  0  0  0  0  0
   27.7778   46.3225   -3.9977 C   0  0  0  0  0  0
   28.1081   47.0557   -2.8435 C   0  0  0  0  0  0
   29.4486   47.1386   -2.4244 C   0  0  0  0  0  0
   30.4586   46.4848   -3.1576 C   0  0  0  0  0  0
   30.1290   45.7640   -4.3175 C   0  0  0  0  0  0
   26.4222   43.4770  -10.0649 H   0  0  0  0  0  0
   23.5556   42.7334  -10.5373 H   0  0  0  0  0  0
   22.3094   41.7311   -8.4545 H   0  0  0  0  0  0
   29.2521   44.1488   -6.0775 H   0  0  0  0  0  0
   25.7987   42.4414  -12.8393 H   0  0  0  0  0  0
   26.6055   43.9571  -12.4945 H   0  0  0  0  0  0
   24.9385   43.7307  -12.0164 H   0  0  0  0  0  0
   27.9500   41.3522  -10.0480 H   0  0  0  0  0  0
   27.8774   41.4760  -11.7793 H   0  0  0  0  0  0
   29.8297   42.7059  -11.1902 H   0  0  0  0  0  0
   28.6491   43.9490  -11.4727 H   0  0  0  0  0  0
   28.2218   43.6775   -8.8251 H   0  0  0  0  0  0
   29.8057   42.9624   -8.8467 H   0  0  0  0  0  0
   30.7646   45.0281   -9.8222 H   0  0  0  0  0  0
   29.1854   45.7451   -9.9477 H   0  0  0  0  0  0
   30.6365   45.0175   -7.3652 H   0  0  0  0  0  0
   30.4299   46.6098   -7.9740 H   0  0  0  0  0  0
   26.2058   48.3998   -5.9829 H   0  0  0  0  0  0
   22.5102   46.3253   -6.8526 H   0  0  0  0  0  0
   26.2121   45.0665   -8.6680 H   0  0  0  0  0  0
   25.1545   43.2483   -8.2200 H   0  0  0  0  0  0
   25.1462   40.8526  -10.9256 H   0  0  0  0  0  0
   25.8147   41.1011   -9.3498 H   0  0  0  0  0  0
   21.9511   41.3381  -11.0448 H   0  0  0  0  0  0
   22.7061   39.7899  -10.7648 H   0  0  0  0  0  0
   21.0468   39.4520   -8.9962 H   0  0  0  0  0  0
   19.6985   40.3019  -11.4747 H   0  0  0  0  0  0
   20.4902   38.7485  -11.2988 H   0  0  0  0  0  0
   19.8182   37.2456   -9.3154 H   0  0  0  0  0  0
   17.8104   36.2698   -8.2146 H   0  0  0  0  0  0
   15.6682   37.4086   -8.3111 H   0  0  0  0  0  0
   17.4710   40.5898  -10.6456 H   0  0  0  0  0  0
   15.1600   40.7570   -9.0177 H   0  0  0  0  0  0
   13.9390   38.9890   -7.9056 H   0  0  0  0  0  0
   13.8074   38.0511   -9.3916 H   0  0  0  0  0  0
   12.9065   39.5261   -9.2400 H   0  0  0  0  0  0
   15.4612   40.8655  -11.4957 H   0  0  0  0  0  0
   13.7605   40.8101  -11.0670 H   0  0  0  0  0  0
   14.5631   39.3504  -11.6410 H   0  0  0  0  0  0
   24.0616   39.5867   -9.0584 H   0  0  0  0  0  0
   23.1101   50.8540   -3.4143 H   0  0  0  0  0  0
   20.8201   49.4248   -4.2017 H   0  0  0  0  0  0
   27.2707   43.3552   -5.0861 H   0  0  0  0  0  0
   27.0416   43.4487   -6.8164 H   0  0  0  0  0  0
   26.2914   44.6283   -5.7322 H   0  0  0  0  0  0
   26.7419   46.2673   -4.2981 H   0  0  0  0  0  0
   27.3382   47.5600   -2.2794 H   0  0  0  0  0  0
   29.7063   47.7059   -1.5422 H   0  0  0  0  0  0
   31.4901   46.5501   -2.8415 H   0  0  0  0  0  0
   30.9196   45.2969   -4.8819 H   0  0  0  0  0  0
  1  2  1  0  0  0
  1 53  1  0  0  0
  1 54  1  0  0  0
  1 55  1  0  0  0
  2 49  1  0  0  0
  2 21  1  0  0  0
  2  3  1  0  0  0
  3  4  1  0  0  0
  3 56  1  0  0  0
  3 57  1  0  0  0
  4  5  1  0  0  0
  4 58  1  0  0  0
  4 59  1  0  0  0
  5  6  1  0  0  0
  5 60  1  0  0  0
  5 61  1  0  0  0
  6  7  1  0  0  0
  6 62  1  0  0  0
  6 63  1  0  0  0
  7  8  1  0  0  0
  7 64  1  0  0  0
  7 65  1  0  0  0
  8  9  1  0  0  0
  8 41  1  0  0  0
  9 10  2  0  0  0
  9 11  1  0  0  0
 11 16  1  0  0  0
 11 12  2  0  0  0
 12 13  1  0  0  0
 12 66  1  0  0  0
 13 14  2  0  0  0
 13 36  1  0  0  0
 14 15  1  0  0  0
 14 67  1  0  0  0
 15 16  2  0  0  0
 15 17  1  0  0  0
 16 68  1  0  0  0
 17 18  2  0  0  0
 17 19  1  0  0  0
 19 20  1  0  0  0
 19 69  1  0  0  0
 20 50  1  0  0  0
 20 21  1  0  0  0
 20 22  1  0  0  0
 21 70  1  0  0  0
 21 71  1  0  0  0
 22 51  1  0  0  0
 22 23  1  0  0  0
 22 35  1  0  0  0
 23 24  1  0  0  0
 23 72  1  0  0  0
 23 73  1  0  0  0
 24 25  1  0  0  0
 24 74  1  0  0  0
 25 26  1  0  0  0
 25 75  1  0  0  0
 25 76  1  0  0  0
 26 31  1  0  0  0
 26 27  2  0  0  0
 27 28  1  0  0  0
 27 77  1  0  0  0
 28 29  2  0  0  0
 28 78  1  0  0  0
 29 30  1  0  0  0
 29 79  1  0  0  0
 30 31  2  0  0  0
 30 32  1  0  0  0
 31 80  1  0  0  0
 32 33  1  0  0  0
 32 34  1  0  0  0
 32 81  1  0  0  0
 33 82  1  0  0  0
 33 83  1  0  0  0
 33 84  1  0  0  0
 34 85  1  0  0  0
 34 86  1  0  0  0
 34 87  1  0  0  0
 35 88  1  0  0  0
 36 40  1  0  0  0
 36 37  2  0  0  0
 37 38  1  0  0  0
 38 39  2  0  0  0
 38 89  1  0  0  0
 39 40  1  0  0  0
 39 90  1  0  0  0
 41 52  1  0  0  0
 41 42  1  0  0  0
 41 43  1  0  0  0
 42 91  1  0  0  0
 42 92  1  0  0  0
 42 93  1  0  0  0
 43 48  1  0  0  0
 43 44  2  0  0  0
 44 45  1  0  0  0
 44 94  1  0  0  0
 45 46  2  0  0  0
 45 95  1  0  0  0
 46 47  1  0  0  0
 46 96  1  0  0  0
 47 48  2  0  0  0
 47 97  1  0  0  0
 48 98  1  0  0  0
M  END
> <s_m_source_file>
BACE_7.smi

> <i_m_source_file_index>
1

> <i_lp_mmshare_version>
42013

> <i_f3d_flags>
0

> <s_epik_input>
W2NIXTFbY0hdW2NIXVtjSF1bY0hdYzFbQ0BASF0oW0NIM10pTihDMj1PKVtDSDJdW0NIMl1bQ0gyXVtDSDJdW0NIMl1bQ0BASF0oW0NIM10pW0NIMl1bQ0BIXShbTkhdQyg9TyljKFtjSF0zKVtjSF1jKFtjSF1jMjMpLWM0bltjSF1bY0hdbzQpW0NASF0oW09IXSlbQ0gyXVtOSF1bQ0gyXWM1W2NIXVtjSF1bY0hdYyhbY0hdNSlbQ0hdKFtDSDNdKVtDSDNd

> <s_epik_cmdline>
J2VwaWtfcHl0aG9uJywgJy1waCcsICc3LjAnLCAnLXRuJywgJzgnLCAnLW1hJywgJzIwMCcsICctaW1hZScsICc8aW5maWxlLm1hZT4nLCAnLW9tYWUnLCAnPG91dGZpbGUubWFlPic=

> <r_epik_Ionization_Penalty>
  2.1294

> <r_epik_Ionization_Penalty_Charging>
  0.0000

> <r_epik_Ionization_Penalty_Neutral>
  2.1294

> <r_epik_State_Penalty>
  2.2676

> <r_epik_Charging_Adjusted_Penalty>
2.26762

> <i_epik_Tot_Q>
0

> <i_epik_Tot_abs_Q>
0

> <s_lp_Force_Field>
OPLS_2005

> <r_lp_Energy>
63.2316

> <b_lp_Chiralities_Consistent>
1

> <s_lp_Variant>
BACE_7.smi:1-2

> <chiral flag>
1

> <version>
0

> <r_i_glide_lipo>
-0.803458

> <r_i_glide_hbond>
-0.676623

> <r_i_glide_metal>
-0

> <r_i_glide_rewards>
-9.07933e-06

> <r_i_glide_erotb>
0.249819

> <r_i_glide_esite>
-0.00445028

> <chiral flag>
1

> <s_i_glide_gridfile>
second_dock_grid_2

> <i_i_glide_lignum>
15

> <i_i_glide_rotatable_bonds>
10

> <r_i_docking_score>
1.57011

> <r_i_glide_ligand_efficiency>
0.0327107

> <r_i_glide_ligand_efficiency_sa>
0.118879

> <r_i_glide_ligand_efficiency_ln>
0.322326

> <r_glide_XP_GScore>
-0.697487

> <r_i_glide_gscore>
-0.697487

> <r_i_glide_evdw>
-46.2632

> <r_i_glide_ecoul>
-5.13962

> <r_i_glide_energy>
-51.4028

> <r_i_glide_einternal>
4.37936

> <r_i_glide_emodel>
-71.8581

> <r_glide_XP_HBond>
-1.2054

> <i_i_glide_confnum>
1

> <i_i_glide_posenum>
4

> <r_i_glide_eff_state_penalty>
2.2676

> <i_glide_XP_PoseRank>
3

$$$$
BACE_8.smi:1
                    3D
 Structure written by MMmdl.
 78 80  0  0  1  0            999 V2000
   19.5282   45.8798   -7.1267 C   0  0  0  0  0  0
   19.4197   46.3736   -8.5822 C   0  0  2  0  0  0
   19.7082   47.8913   -8.6832 C   0  0  0  0  0  0
   21.1743   48.2819   -8.4214 C   0  0  0  0  0  0
   21.9917   47.7322   -9.4415 O   0  0  0  0  0  0
   23.3831   47.8622   -9.1885 C   0  0  0  0  0  0
   24.1898   47.2597  -10.3517 C   0  0  0  0  0  0
   24.1643   45.7202  -10.4313 C   0  0  0  0  0  0
   22.7685   45.1550  -10.7190 C   0  0  0  0  0  0
   22.7675   43.7128  -10.8961 N   0  0  0  0  0  0
   21.5807   43.0410  -11.2040 C   0  0  0  0  0  0
   20.3187   43.6763  -11.2418 C   0  0  0  0  0  0
   19.1886   42.9191  -11.6223 C   0  0  0  0  0  0
   19.3672   41.5609  -11.9384 C   0  0  0  0  0  0
   20.6561   41.0141  -11.8435 C   0  0  0  0  0  0
   21.7349   41.7362  -11.4881 N   0  0  0  0  0  0
   20.8601   39.3500  -12.1917 Cl  0  0  0  0  0  0
   17.8369   43.5413  -11.7980 C   0  0  0  0  0  0
   17.2144   43.3501  -12.8401 O   0  0  0  0  0  0
   17.3024   44.2698  -10.8053 N   0  0  0  0  0  0
   17.7790   44.4897   -9.4398 C   0  0  1  0  0  0
   18.0756   46.0157   -9.2749 C   0  0  0  0  0  0
   16.7002   43.9118   -8.4793 C   0  0  1  0  0  0
   16.8515   42.3963   -8.2268 C   0  0  0  0  0  0
   15.6431   41.7487   -7.6400 N   0  3  0  0  0  0
   15.7989   40.3568   -7.1256 C   0  0  0  0  0  0
   16.8254   39.5270   -7.8916 C   0  0  0  0  0  0
   16.4296   38.6247   -8.8993 C   0  0  0  0  0  0
   17.4079   37.9318   -9.6398 C   0  0  0  0  0  0
   18.7795   38.1625   -9.4112 C   0  0  0  0  0  0
   19.1839   39.0640   -8.4049 C   0  0  0  0  0  0
   18.1995   39.6920   -7.6211 C   0  0  0  0  0  0
   20.6552   39.4013   -8.1904 C   0  0  0  0  0  0
   21.1829   38.8215   -6.8723 C   0  0  0  0  0  0
   20.9019   40.9198   -8.2300 C   0  0  0  0  0  0
   16.8597   44.5394   -7.2400 O   0  0  0  0  0  0
   20.1975   45.8626   -9.1402 H   0  0  0  0  0  0
   18.7022   43.9449   -9.2489 H   0  0  0  0  0  0
   15.7004   44.1454   -8.8493 H   0  0  0  0  0  0
   18.7642   46.3303   -6.4928 H   0  0  0  0  0  0
   20.4979   46.1117   -6.6895 H   0  0  0  0  0  0
   19.4262   44.7962   -7.0671 H   0  0  0  0  0  0
   19.4443   48.2511   -9.6782 H   0  0  0  0  0  0
   19.0606   48.4286   -7.9904 H   0  0  0  0  0  0
   21.2758   49.3675   -8.4314 H   0  0  0  0  0  0
   21.4992   47.9446   -7.4380 H   0  0  0  0  0  0
   23.6293   48.9204   -9.0844 H   0  0  0  0  0  0
   23.6495   47.3724   -8.2511 H   0  0  0  0  0  0
   23.8499   47.6886  -11.2947 H   0  0  0  0  0  0
   25.2292   47.5715  -10.2408 H   0  0  0  0  0  0
   24.8476   45.4033  -11.2201 H   0  0  0  0  0  0
   24.5494   45.2980   -9.5025 H   0  0  0  0  0  0
   22.1204   45.3754   -9.8775 H   0  0  0  0  0  0
   22.3441   45.6305  -11.6040 H   0  0  0  0  0  0
   23.6403   43.2083  -10.9619 H   0  0  0  0  0  0
   20.2130   44.7323  -11.0498 H   0  0  0  0  0  0
   18.5360   40.9432  -12.2477 H   0  0  0  0  0  0
   16.4094   44.6841  -11.0204 H   0  0  0  0  0  0
   17.2478   46.5240   -8.7781 H   0  0  0  0  0  0
   18.1118   46.4692  -10.2667 H   0  0  0  0  0  0
   17.0801   41.8946   -9.1683 H   0  0  0  0  0  0
   17.7110   42.2550   -7.5724 H   0  0  0  0  0  0
   15.3036   42.2976   -6.8547 H   0  0  0  0  0  0
   16.0600   40.3854   -6.0683 H   0  0  0  0  0  0
   14.8263   39.8633   -7.1589 H   0  0  0  0  0  0
   15.3822   38.4628   -9.1093 H   0  0  0  0  0  0
   17.1051   37.2399  -10.4112 H   0  0  0  0  0  0
   19.5161   37.6555  -10.0178 H   0  0  0  0  0  0
   18.5103   40.3636   -6.8401 H   0  0  0  0  0  0
   21.2194   38.9501   -9.0098 H   0  0  0  0  0  0
   21.0276   37.7484   -6.8395 H   0  0  0  0  0  0
   20.6732   39.2539   -6.0100 H   0  0  0  0  0  0
   22.2523   39.0069   -6.7574 H   0  0  0  0  0  0
   20.4428   41.3704   -9.1074 H   0  0  0  0  0  0
   21.9684   41.1441   -8.2600 H   0  0  0  0  0  0
   20.4856   41.4231   -7.3564 H   0  0  0  0  0  0
   16.2299   44.1895   -6.6166 H   0  0  0  0  0  0
   14.9224   41.7241   -8.3462 H   0  0  0  0  0  0
  1  2  1  0  0  0
  1 40  1  0  0  0
  1 41  1  0  0  0
  1 42  1  0  0  0
  2 37  1  0  0  0
  2 22  1  0  0  0
  2  3  1  0  0  0
  3  4  1  0  0  0
  3 43  1  0  0  0
  3 44  1  0  0  0
  4  5  1  0  0  0
  4 45  1  0  0  0
  4 46  1  0  0  0
  5  6  1  0  0  0
  6  7  1  0  0  0
  6 47  1  0  0  0
  6 48  1  0  0  0
  7  8  1  0  0  0
  7 49  1  0  0  0
  7 50  1  0  0  0
  8  9  1  0  0  0
  8 51  1  0  0  0
  8 52  1  0  0  0
  9 10  1  0  0  0
  9 53  1  0  0  0
  9 54  1  0  0  0
 10 11  1  0  0  0
 10 55  1  0  0  0
 11 16  1  0  0  0
 11 12  2  0  0  0
 12 13  1  0  0  0
 12 56  1  0  0  0
 13 14  2  0  0  0
 13 18  1  0  0  0
 14 15  1  0  0  0
 14 57  1  0  0  0
 15 16  2  0  0  0
 15 17  1  0  0  0
 18 19  2  0  0  0
 18 20  1  0  0  0
 20 21  1  0  0  0
 20 58  1  0  0  0
 21 38  1  0  0  0
 21 22  1  0  0  0
 21 23  1  0  0  0
 22 59  1  0  0  0
 22 60  1  0  0  0
 23 39  1  0  0  0
 23 24  1  0  0  0
 23 36  1  0  0  0
 24 25  1  0  0  0
 24 61  1  0  0  0
 24 62  1  0  0  0
 25 26  1  0  0  0
 25 63  1  0  0  0
 25 78  1  0  0  0
 26 27  1  0  0  0
 26 64  1  0  0  0
 26 65  1  0  0  0
 27 32  1  0  0  0
 27 28  2  0  0  0
 28 29  1  0  0  0
 28 66  1  0  0  0
 29 30  2  0  0  0
 29 67  1  0  0  0
 30 31  1  0  0  0
 30 68  1  0  0  0
 31 32  2  0  0  0
 31 33  1  0  0  0
 32 69  1  0  0  0
 33 34  1  0  0  0
 33 35  1  0  0  0
 33 70  1  0  0  0
 34 71  1  0  0  0
 34 72  1  0  0  0
 34 73  1  0  0  0
 35 74  1  0  0  0
 35 75  1  0  0  0
 35 76  1  0  0  0
 36 77  1  0  0  0
M  CHG  1  25   1
M  END
> <s_m_source_file>
BACE_8.smi

> <i_m_source_file_index>
1

> <i_lp_mmshare_version>
42013

> <i_f3d_flags>
0

> <s_epik_input>
W05IXTFbQ0gyXVtDSDJdW0NIMl1bQ0gyXU9bQ0gyXVtDSDJdW0NAQEhdKFtDSDNdKVtDSDJdW0NASF0oW05IXUMoPU8pYyhbY0hdYzEyKVtjSF1jKG4yKUNsKVtDQEhdKFtPSF0pW0NIMl1bTkhdW0NIMl1jM1tjSF1bY0hdW2NIXWMoW2NIXTMpW0NIXShbQ0gzXSlbQ0gzXQ==

> <s_epik_cmdline>
J2VwaWtfcHl0aG9uJywgJy1waCcsICc3LjAnLCAnLXRuJywgJzgnLCAnLW1hJywgJzIwMCcsICctaW1hZScsICc8aW5maWxlLm1hZT4nLCAnLW9tYWUnLCAnPG91dGZpbGUubWFlPic=

> <r_lp_tautomer_probability>
1

> <r_epik_Ionization_Penalty>
  0.0176

> <r_epik_Ionization_Penalty_Charging>
  0.0176

> <r_epik_Ionization_Penalty_Neutral>
  0.0000

> <r_epik_State_Penalty>
  0.0139

> <r_epik_Charging_Adjusted_Penalty>
0.0314671

> <i_epik_Tot_Q>
1

> <i_epik_Tot_abs_Q>
1

> <s_lp_Force_Field>
OPLS_2005

> <r_lp_Energy>
27.9011

> <b_lp_Chiralities_Consistent>
1

> <s_lp_Variant>
BACE_8.smi:1-1

> <chiral flag>
1

> <version>
0

> <r_i_glide_lipo>
-0.615437

> <r_i_glide_hbond>
-0.474467

> <r_i_glide_metal>
-0

> <r_i_glide_rewards>
0

> <r_i_glide_erotb>
0.382514

> <r_i_glide_esite>
-0.0838565

> <chiral flag>
1

> <s_i_glide_gridfile>
second_dock_grid_2

> <i_i_glide_lignum>
16

> <i_i_glide_rotatable_bonds>
7

> <r_i_docking_score>
-5.21502

> <r_i_glide_ligand_efficiency>
-0.144862

> <r_i_glide_ligand_efficiency_sa>
-0.478323

> <r_i_glide_ligand_efficiency_ln>
-1.13778

> <r_glide_XP_GScore>
-5.22892

> <r_i_glide_gscore>
-5.22892

> <r_i_glide_evdw>
-31.1967

> <r_i_glide_ecoul>
-17.644

> <r_i_glide_energy>
-48.8407

> <r_i_glide_einternal>
4.09698

> <r_i_glide_emodel>
-65.4334

> <r_glide_XP_HBond>
-1.33

> <i_i_glide_confnum>
1

> <i_i_glide_posenum>
6

> <r_i_glide_eff_state_penalty>
0.0139

> <i_glide_XP_PoseRank>
1

$$$$
BACE_8.smi:1
                    3D
 Structure written by MMmdl.
 78 80  0  0  1  0            999 V2000
   19.3739   41.9503   -9.4728 C   0  0  0  0  0  0
   19.6392   42.2052  -10.9688 C   0  0  2  0  0  0
   18.6102   41.4723  -11.8626 C   0  0  0  0  0  0
   17.1540   41.9327  -11.6760 C   0  0  0  0  0  0
   17.0164   43.2806  -12.1064 O   0  0  0  0  0  0
   15.8268   43.8988  -11.6368 C   0  0  0  0  0  0
   15.8005   45.3681  -12.0916 C   0  0  0  0  0  0
   16.6809   46.3148  -11.2559 C   0  0  0  0  0  0
   18.1722   45.9521  -11.2858 C   0  0  0  0  0  0
   18.9867   46.9304  -10.5859 N   0  0  0  0  0  0
   20.3608   46.7244  -10.4146 C   0  0  0  0  0  0
   21.0878   45.7366  -11.1176 C   0  0  0  0  0  0
   22.4776   45.6319  -10.8971 C   0  0  0  0  0  0
   23.0806   46.5255   -9.9879 C   0  0  0  0  0  0
   22.2715   47.4654   -9.3250 C   0  0  0  0  0  0
   20.9435   47.5658   -9.5344 N   0  0  0  0  0  0
   23.0038   48.5560   -8.2031 Cl  0  0  0  0  0  0
   23.3213   44.6638  -11.6721 C   0  0  0  0  0  0
   24.2350   45.0854  -12.3770 O   0  0  0  0  0  0
   23.0598   43.3477  -11.5987 N   0  0  0  0  0  0
   22.2217   42.6068  -10.6475 C   0  0  1  0  0  0
   21.0859   41.8738  -11.4179 C   0  0  0  0  0  0
   23.1509   41.7186   -9.7536 C   0  0  1  0  0  0
   22.5208   40.6009   -8.8954 C   0  0  0  0  0  0
   22.2026   39.3983   -9.6972 N   0  3  0  0  0  0
   21.7187   38.2195   -8.9590 C   0  0  0  0  0  0
   20.3848   38.4502   -8.2788 C   0  0  0  0  0  0
   20.3688   38.9013   -6.9452 C   0  0  0  0  0  0
   19.1492   39.0151   -6.2624 C   0  0  0  0  0  0
   17.9419   38.6902   -6.8969 C   0  0  0  0  0  0
   17.9428   38.2449   -8.2320 C   0  0  0  0  0  0
   19.1680   38.1404   -8.9298 C   0  0  0  0  0  0
   16.6224   37.8551   -8.8777 C   0  0  0  0  0  0
   16.6177   36.3837   -9.3036 C   0  0  0  0  0  0
   16.2526   38.8039  -10.0258 C   0  0  0  0  0  0
   24.2696   41.1828  -10.4396 O   0  0  0  0  0  0
   19.5085   43.2682  -11.1394 H   0  0  0  0  0  0
   21.7525   43.3218   -9.9735 H   0  0  0  0  0  0
   23.6002   42.4119   -9.0410 H   0  0  0  0  0  0
   19.4347   40.8910   -9.2319 H   0  0  0  0  0  0
   18.3825   42.2876   -9.1727 H   0  0  0  0  0  0
   20.0650   42.4916   -8.8309 H   0  0  0  0  0  0
   18.8744   41.6080  -12.9114 H   0  0  0  0  0  0
   18.6703   40.3982  -11.6769 H   0  0  0  0  0  0
   16.4910   41.2931  -12.2569 H   0  0  0  0  0  0
   16.8449   41.8233  -10.6380 H   0  0  0  0  0  0
   14.9611   43.3695  -12.0366 H   0  0  0  0  0  0
   15.7617   43.8441  -10.5491 H   0  0  0  0  0  0
   16.0832   45.4308  -13.1428 H   0  0  0  0  0  0
   14.7733   45.7263  -12.0360 H   0  0  0  0  0  0
   16.5483   47.3320  -11.6313 H   0  0  0  0  0  0
   16.3306   46.3245  -10.2229 H   0  0  0  0  0  0
   18.3129   44.9890  -10.7980 H   0  0  0  0  0  0
   18.5149   45.8644  -12.3194 H   0  0  0  0  0  0
   18.5369   47.6379  -10.0225 H   0  0  0  0  0  0
   20.6121   45.0914  -11.8419 H   0  0  0  0  0  0
   24.1458   46.4955   -9.8080 H   0  0  0  0  0  0
   23.6533   42.7775  -12.1841 H   0  0  0  0  0  0
   21.2352   40.8029  -11.4601 H   0  0  0  0  0  0
   21.1556   42.1502  -12.4651 H   0  0  0  0  0  0
   23.2395   40.3051   -8.1306 H   0  0  0  0  0  0
   21.6508   40.9705   -8.3616 H   0  0  0  0  0  0
   21.5274   39.6387  -10.4096 H   0  0  0  0  0  0
   21.6434   37.3630   -9.6332 H   0  0  0  0  0  0
   22.4598   37.9572   -8.2109 H   0  0  0  0  0  0
   21.2886   39.1289   -6.4295 H   0  0  0  0  0  0
   19.1367   39.3510   -5.2385 H   0  0  0  0  0  0
   17.0165   38.7691   -6.3433 H   0  0  0  0  0  0
   19.1771   37.7807   -9.9493 H   0  0  0  0  0  0
   15.8414   37.9574   -8.1216 H   0  0  0  0  0  0
   16.7957   35.7379   -8.4412 H   0  0  0  0  0  0
   17.3945   36.1808  -10.0397 H   0  0  0  0  0  0
   15.6606   36.1058   -9.7440 H   0  0  0  0  0  0
   16.1682   39.8240   -9.6538 H   0  0  0  0  0  0
   15.2894   38.5353  -10.4608 H   0  0  0  0  0  0
   17.0029   38.7908  -10.8138 H   0  0  0  0  0  0
   24.0570   40.9567  -11.3402 H   0  0  0  0  0  0
   23.0769   39.1258  -10.1333 H   0  0  0  0  0  0
  1  2  1  0  0  0
  1 40  1  0  0  0
  1 41  1  0  0  0
  1 42  1  0  0  0
  2 37  1  0  0  0
  2 22  1  0  0  0
  2  3  1  0  0  0
  3  4  1  0  0  0
  3 43  1  0  0  0
  3 44  1  0  0  0
  4  5  1  0  0  0
  4 45  1  0  0  0
  4 46  1  0  0  0
  5  6  1  0  0  0
  6  7  1  0  0  0
  6 47  1  0  0  0
  6 48  1  0  0  0
  7  8  1  0  0  0
  7 49  1  0  0  0
  7 50  1  0  0  0
  8  9  1  0  0  0
  8 51  1  0  0  0
  8 52  1  0  0  0
  9 10  1  0  0  0
  9 53  1  0  0  0
  9 54  1  0  0  0
 10 11  1  0  0  0
 10 55  1  0  0  0
 11 16  1  0  0  0
 11 12  2  0  0  0
 12 13  1  0  0  0
 12 56  1  0  0  0
 13 14  2  0  0  0
 13 18  1  0  0  0
 14 15  1  0  0  0
 14 57  1  0  0  0
 15 16  2  0  0  0
 15 17  1  0  0  0
 18 19  2  0  0  0
 18 20  1  0  0  0
 20 21  1  0  0  0
 20 58  1  0  0  0
 21 38  1  0  0  0
 21 22  1  0  0  0
 21 23  1  0  0  0
 22 59  1  0  0  0
 22 60  1  0  0  0
 23 39  1  0  0  0
 23 24  1  0  0  0
 23 36  1  0  0  0
 24 25  1  0  0  0
 24 61  1  0  0  0
 24 62  1  0  0  0
 25 26  1  0  0  0
 25 63  1  0  0  0
 25 78  1  0  0  0
 26 27  1  0  0  0
 26 64  1  0  0  0
 26 65  1  0  0  0
 27 32  1  0  0  0
 27 28  2  0  0  0
 28 29  1  0  0  0
 28 66  1  0  0  0
 29 30  2  0  0  0
 29 67  1  0  0  0
 30 31  1  0  0  0
 30 68  1  0  0  0
 31 32  2  0  0  0
 31 33  1  0  0  0
 32 69  1  0  0  0
 33 34  1  0  0  0
 33 35  1  0  0  0
 33 70  1  0  0  0
 34 71  1  0  0  0
 34 72  1  0  0  0
 34 73  1  0  0  0
 35 74  1  0  0  0
 35 75  1  0  0  0
 35 76  1  0  0  0
 36 77  1  0  0  0
M  CHG  1  25   1
M  END
> <s_m_source_file>
BACE_8.smi

> <i_m_source_file_index>
1

> <i_lp_mmshare_version>
42013

> <i_f3d_flags>
0

> <s_epik_input>
W05IXTFbQ0gyXVtDSDJdW0NIMl1bQ0gyXU9bQ0gyXVtDSDJdW0NAQEhdKFtDSDNdKVtDSDJdW0NASF0oW05IXUMoPU8pYyhbY0hdYzEyKVtjSF1jKG4yKUNsKVtDQEhdKFtPSF0pW0NIMl1bTkhdW0NIMl1jM1tjSF1bY0hdW2NIXWMoW2NIXTMpW0NIXShbQ0gzXSlbQ0gzXQ==

> <s_epik_cmdline>
J2VwaWtfcHl0aG9uJywgJy1waCcsICc3LjAnLCAnLXRuJywgJzgnLCAnLW1hJywgJzIwMCcsICctaW1hZScsICc8aW5maWxlLm1hZT4nLCAnLW9tYWUnLCAnPG91dGZpbGUubWFlPic=

> <r_lp_tautomer_probability>
1

> <r_epik_Ionization_Penalty>
  0.0176

> <r_epik_Ionization_Penalty_Charging>
  0.0176

> <r_epik_Ionization_Penalty_Neutral>
  0.0000

> <r_epik_State_Penalty>
  0.0139

> <r_epik_Charging_Adjusted_Penalty>
0.0314671

> <i_epik_Tot_Q>
1

> <i_epik_Tot_abs_Q>
1

> <s_lp_Force_Field>
OPLS_2005

> <r_lp_Energy>
27.9011

> <b_lp_Chiralities_Consistent>
1

> <s_lp_Variant>
BACE_8.smi:1-1

> <chiral flag>
1

> <version>
0

> <r_i_glide_lipo>
-0.615437

> <r_i_glide_hbond>
-0.474467

> <r_i_glide_metal>
-0

> <r_i_glide_rewards>
0

> <r_i_glide_erotb>
0.382514

> <r_i_glide_esite>
-0.0838565

> <chiral flag>
1

> <s_i_glide_gridfile>
second_dock_grid_2

> <i_i_glide_lignum>
16

> <i_i_glide_rotatable_bonds>
7

> <r_i_docking_score>
-1.33117

> <r_i_glide_ligand_efficiency>
-0.036977

> <r_i_glide_ligand_efficiency_sa>
-0.122095

> <r_i_glide_ligand_efficiency_ln>
-0.290426

> <r_glide_XP_GScore>
-1.34507

> <r_i_glide_gscore>
-1.34507

> <r_i_glide_evdw>
-31.0717

> <r_i_glide_ecoul>
-10.2748

> <r_i_glide_energy>
-41.3465

> <r_i_glide_einternal>
0.808005

> <r_i_glide_emodel>
-59.4843

> <r_glide_XP_HBond>
-1.33

> <i_i_glide_confnum>
1

> <i_i_glide_posenum>
9

> <r_i_glide_eff_state_penalty>
0.0139

> <i_glide_XP_PoseRank>
2

$$$$
BACE_8.smi:1
                    3D
 Structure written by MMmdl.
 78 80  0  0  1  0            999 V2000
   20.2141   38.5595   -7.2219 C   0  0  0  0  0  0
   19.5863   38.9717   -8.5698 C   0  0  2  0  0  0
   18.7317   37.8413   -9.1795 C   0  0  0  0  0  0
   17.4375   37.5401   -8.4107 C   0  0  0  0  0  0
   16.6070   38.6858   -8.4731 O   0  0  0  0  0  0
   15.5670   38.6547   -7.5111 C   0  0  0  0  0  0
   14.6442   39.8575   -7.6969 C   0  0  0  0  0  0
   15.2360   41.1989   -7.2400 C   0  0  0  0  0  0
   16.4811   41.6514   -8.0089 C   0  0  0  0  0  0
   16.8573   43.0045   -7.6401 N   0  0  0  0  0  0
   18.1347   43.4835   -7.9402 C   0  0  0  0  0  0
   18.9330   42.9223   -8.9612 C   0  0  0  0  0  0
   20.1993   43.4871   -9.2221 C   0  0  0  0  0  0
   20.6082   44.5972   -8.4551 C   0  0  0  0  0  0
   19.7479   45.0761   -7.4473 C   0  0  0  0  0  0
   18.5370   44.5363   -7.2011 N   0  0  0  0  0  0
   20.2425   46.4229   -6.4878 Cl  0  0  0  0  0  0
   21.0612   42.9619  -10.3352 C   0  0  0  0  0  0
   21.4254   43.7079  -11.2401 O   0  0  0  0  0  0
   21.4150   41.6639  -10.3297 N   0  0  0  0  0  0
   21.4223   40.7233   -9.1993 C   0  0  1  0  0  0
   20.6265   39.4555   -9.6029 C   0  0  0  0  0  0
   22.8772   40.3968   -8.7153 C   0  0  1  0  0  0
   23.9691   41.4454   -9.0366 C   0  0  0  0  0  0
   24.4241   41.3510  -10.4399 N   0  3  0  0  0  0
   24.8938   42.6184  -11.0314 C   0  0  0  0  0  0
   26.3327   42.8965  -10.6639 C   0  0  0  0  0  0
   26.6449   43.7476   -9.5863 C   0  0  0  0  0  0
   27.9905   44.0131   -9.2764 C   0  0  0  0  0  0
   29.0219   43.4414  -10.0465 C   0  0  0  0  0  0
   28.7179   42.5842  -11.1317 C   0  0  0  0  0  0
   27.3656   42.3106  -11.4219 C   0  0  0  0  0  0
   29.7983   41.9371  -12.0002 C   0  0  0  0  0  0
   31.2191   42.1076  -11.4493 C   0  0  0  0  0  0
   29.7341   42.4271  -13.4550 C   0  0  0  0  0  0
   22.8603   40.2798   -7.3101 O   0  0  0  0  0  0
   18.9224   39.8080   -8.3760 H   0  0  0  0  0  0
   20.9019   41.1955   -8.3649 H   0  0  0  0  0  0
   23.2038   39.4345   -9.1032 H   0  0  0  0  0  0
   21.0599   37.8844   -7.3571 H   0  0  0  0  0  0
   19.4986   38.0675   -6.5624 H   0  0  0  0  0  0
   20.5516   39.4349   -6.6702 H   0  0  0  0  0  0
   18.4554   38.0849  -10.2047 H   0  0  0  0  0  0
   19.3430   36.9470   -9.2415 H   0  0  0  0  0  0
   16.9156   36.6929   -8.8560 H   0  0  0  0  0  0
   17.6603   37.2650   -7.3801 H   0  0  0  0  0  0
   14.9777   37.7499   -7.6392 H   0  0  0  0  0  0
   15.9770   38.6473   -6.5000 H   0  0  0  0  0  0
   14.3108   39.9159   -8.7339 H   0  0  0  0  0  0
   13.7531   39.6677   -7.0982 H   0  0  0  0  0  0
   14.4627   41.9586   -7.3373 H   0  0  0  0  0  0
   15.4657   41.1447   -6.1734 H   0  0  0  0  0  0
   17.3016   40.9841   -7.7638 H   0  0  0  0  0  0
   16.3084   41.5991   -9.0836 H   0  0  0  0  0  0
   16.3958   43.3537   -6.8047 H   0  0  0  0  0  0
   18.5838   42.0871   -9.5488 H   0  0  0  0  0  0
   21.5622   45.0726   -8.6303 H   0  0  0  0  0  0
   21.8016   41.3231  -11.1966 H   0  0  0  0  0  0
   21.2984   38.6347   -9.8603 H   0  0  0  0  0  0
   20.0839   39.6618  -10.5269 H   0  0  0  0  0  0
   23.6029   42.4434   -8.7962 H   0  0  0  0  0  0
   24.8568   41.2871   -8.4232 H   0  0  0  0  0  0
   25.1552   40.6542  -10.5052 H   0  0  0  0  0  0
   24.8259   42.5501  -12.1177 H   0  0  0  0  0  0
   24.2474   43.4499  -10.7454 H   0  0  0  0  0  0
   25.8612   44.2026   -8.9981 H   0  0  0  0  0  0
   28.2354   44.6675   -8.4541 H   0  0  0  0  0  0
   30.0416   43.6816   -9.7851 H   0  0  0  0  0  0
   27.1212   41.6550  -12.2446 H   0  0  0  0  0  0
   29.5837   40.8666  -12.0061 H   0  0  0  0  0  0
   31.2605   41.7504  -10.4235 H   0  0  0  0  0  0
   31.5346   43.1509  -11.4598 H   0  0  0  0  0  0
   31.9387   41.5410  -12.0405 H   0  0  0  0  0  0
   28.7778   42.1942  -13.9174 H   0  0  0  0  0  0
   30.5030   41.9488  -14.0635 H   0  0  0  0  0  0
   29.8846   43.5057  -13.5184 H   0  0  0  0  0  0
   22.2557   39.5925   -7.0684 H   0  0  0  0  0  0
   23.6583   41.0334  -11.0120 H   0  0  0  0  0  0
  1  2  1  0  0  0
  1 40  1  0  0  0
  1 41  1  0  0  0
  1 42  1  0  0  0
  2 37  1  0  0  0
  2 22  1  0  0  0
  2  3  1  0  0  0
  3  4  1  0  0  0
  3 43  1  0  0  0
  3 44  1  0  0  0
  4  5  1  0  0  0
  4 45  1  0  0  0
  4 46  1  0  0  0
  5  6  1  0  0  0
  6  7  1  0  0  0
  6 47  1  0  0  0
  6 48  1  0  0  0
  7  8  1  0  0  0
  7 49  1  0  0  0
  7 50  1  0  0  0
  8  9  1  0  0  0
  8 51  1  0  0  0
  8 52  1  0  0  0
  9 10  1  0  0  0
  9 53  1  0  0  0
  9 54  1  0  0  0
 10 11  1  0  0  0
 10 55  1  0  0  0
 11 16  1  0  0  0
 11 12  2  0  0  0
 12 13  1  0  0  0
 12 56  1  0  0  0
 13 14  2  0  0  0
 13 18  1  0  0  0
 14 15  1  0  0  0
 14 57  1  0  0  0
 15 16  2  0  0  0
 15 17  1  0  0  0
 18 19  2  0  0  0
 18 20  1  0  0  0
 20 21  1  0  0  0
 20 58  1  0  0  0
 21 38  1  0  0  0
 21 22  1  0  0  0
 21 23  1  0  0  0
 22 59  1  0  0  0
 22 60  1  0  0  0
 23 39  1  0  0  0
 23 24  1  0  0  0
 23 36  1  0  0  0
 24 25  1  0  0  0
 24 61  1  0  0  0
 24 62  1  0  0  0
 25 26  1  0  0  0
 25 63  1  0  0  0
 25 78  1  0  0  0
 26 27  1  0  0  0
 26 64  1  0  0  0
 26 65  1  0  0  0
 27 32  1  0  0  0
 27 28  2  0  0  0
 28 29  1  0  0  0
 28 66  1  0  0  0
 29 30  2  0  0  0
 29 67  1  0  0  0
 30 31  1  0  0  0
 30 68  1  0  0  0
 31 32  2  0  0  0
 31 33  1  0  0  0
 32 69  1  0  0  0
 33 34  1  0  0  0
 33 35  1  0  0  0
 33 70  1  0  0  0
 34 71  1  0  0  0
 34 72  1  0  0  0
 34 73  1  0  0  0
 35 74  1  0  0  0
 35 75  1  0  0  0
 35 76  1  0  0  0
 36 77  1  0  0  0
M  CHG  1  25   1
M  END
> <s_m_source_file>
BACE_8.smi

> <i_m_source_file_index>
1

> <i_lp_mmshare_version>
42013

> <i_f3d_flags>
0

> <s_epik_input>
W05IXTFbQ0gyXVtDSDJdW0NIMl1bQ0gyXU9bQ0gyXVtDSDJdW0NAQEhdKFtDSDNdKVtDSDJdW0NASF0oW05IXUMoPU8pYyhbY0hdYzEyKVtjSF1jKG4yKUNsKVtDQEhdKFtPSF0pW0NIMl1bTkhdW0NIMl1jM1tjSF1bY0hdW2NIXWMoW2NIXTMpW0NIXShbQ0gzXSlbQ0gzXQ==

> <s_epik_cmdline>
J2VwaWtfcHl0aG9uJywgJy1waCcsICc3LjAnLCAnLXRuJywgJzgnLCAnLW1hJywgJzIwMCcsICctaW1hZScsICc8aW5maWxlLm1hZT4nLCAnLW9tYWUnLCAnPG91dGZpbGUubWFlPic=

> <r_lp_tautomer_probability>
1

> <r_epik_Ionization_Penalty>
  0.0176

> <r_epik_Ionization_Penalty_Charging>
  0.0176

> <r_epik_Ionization_Penalty_Neutral>
  0.0000

> <r_epik_State_Penalty>
  0.0139

> <r_epik_Charging_Adjusted_Penalty>
0.0314671

> <i_epik_Tot_Q>
1

> <i_epik_Tot_abs_Q>
1

> <s_lp_Force_Field>
OPLS_2005

> <r_lp_Energy>
27.9011

> <b_lp_Chiralities_Consistent>
1

> <s_lp_Variant>
BACE_8.smi:1-1

> <chiral flag>
1

> <version>
0

> <r_i_glide_lipo>
-0.615437

> <r_i_glide_hbond>
-0.474467

> <r_i_glide_metal>
-0

> <r_i_glide_rewards>
0

> <r_i_glide_erotb>
0.382514

> <r_i_glide_esite>
-0.0838565

> <chiral flag>
1

> <s_i_glide_gridfile>
second_dock_grid_2

> <i_i_glide_lignum>
16

> <i_i_glide_rotatable_bonds>
7

> <r_i_docking_score>
0.0376952

> <r_i_glide_ligand_efficiency>
0.00104709

> <r_i_glide_ligand_efficiency_sa>
0.00345741

> <r_i_glide_ligand_efficiency_ln>
0.00822407

> <r_glide_XP_GScore>
0.0237952

> <r_i_glide_gscore>
0.0237952

> <r_i_glide_evdw>
-38.9152

> <r_i_glide_ecoul>
-11.718

> <r_i_glide_energy>
-50.6332

> <r_i_glide_einternal>
8.7623

> <r_i_glide_emodel>
-59.581

> <r_glide_XP_HBond>
-1.33

> <i_i_glide_confnum>
1

> <i_i_glide_posenum>
3

> <r_i_glide_eff_state_penalty>
0.0139

> <i_glide_XP_PoseRank>
3

$$$$
