BACE_14.smi:1
                    3D
 Structure written by MMmdl.
 86 90  0  0  1  0            999 V2000
   21.6479   39.2445   -6.4468 C   0  0  0  0  0  0
   20.9120   40.1145   -7.4702 C   0  0  0  0  0  0
   21.8735   40.6539   -8.5432 C   0  0  0  0  0  0
   19.7224   39.3742   -8.0722 C   0  0  0  0  0  0
   19.9135   38.4005   -9.0734 C   0  0  0  0  0  0
   18.8047   37.7495   -9.6394 C   0  0  0  0  0  0
   17.5032   38.0814   -9.2252 C   0  0  0  0  0  0
   17.2758   39.0616   -8.2345 C   0  0  0  0  0  0
   18.4113   39.6770   -7.6427 C   0  0  0  0  0  0
   15.8470   39.4459   -7.8680 C   0  0  0  0  0  0
   14.8636   38.3632   -7.5270 C   0  0  0  0  0  0
   14.6505   39.1856   -8.7718 C   0  0  0  0  0  0
   15.6769   40.6424   -7.0020 N   0  3  0  0  0  0
   15.8210   41.9987   -7.6079 C   0  0  0  0  0  0
   16.4699   42.1166   -9.0216 C   0  0  2  0  0  0
   17.2594   43.4283   -9.2556 C   0  0  2  0  0  0
   17.9221   43.4402  -10.6616 C   0  0  0  0  0  0
   19.0570   44.4369  -10.8428 C   0  0  0  0  0  0
   18.7814   45.7516  -11.2655 C   0  0  0  0  0  0
   19.8329   46.6728  -11.4186 C   0  0  0  0  0  0
   21.1603   46.2889  -11.1442 C   0  0  0  0  0  0
   21.4518   44.9671  -10.7183 C   0  0  0  0  0  0
   20.3903   44.0520  -10.5832 C   0  0  0  0  0  0
   22.7160   44.4996  -10.4180 O   0  0  0  0  0  0
   23.8312   45.3820  -10.4867 C   0  0  0  0  0  0
   23.9103   46.2872   -9.2417 C   0  0  0  0  0  0
   24.2996   45.5142   -7.9675 C   0  0  0  0  0  0
   24.2058   46.3630   -6.6836 C   0  0  0  0  0  0
   22.8376   46.7685   -6.3680 N   0  0  0  0  0  0
   21.9097   45.7411   -6.1435 C   0  0  0  0  0  0
   20.6807   45.7762   -6.8293 C   0  0  0  0  0  0
   19.7669   44.7089   -6.7092 C   0  0  0  0  0  0
   20.0622   43.6351   -5.8453 C   0  0  0  0  0  0
   21.2772   43.6025   -5.1213 C   0  0  0  0  0  0
   22.2025   44.6577   -5.2878 C   0  0  0  0  0  0
   21.5740   42.4551   -4.2170 C   0  0  0  0  0  0
   20.8599   41.4577   -4.1240 O   0  0  0  0  0  0
   22.8308   42.5301   -3.3558 C   0  0  0  0  0  0
   18.5073   44.7253   -7.5180 C   0  0  0  0  0  0
   17.8135   45.7399   -7.5881 O   0  0  0  0  0  0
   18.2765   43.5996   -8.2116 N   0  0  0  0  0  0
   15.4347   42.0378   -9.9880 O   0  0  0  0  0  0
   17.1689   41.3158   -9.2283 H   0  0  0  0  0  0
   16.5628   44.2673   -9.2035 H   0  0  0  0  0  0
   22.4788   39.7904   -5.9987 H   0  0  0  0  0  0
   22.0438   38.3379   -6.9067 H   0  0  0  0  0  0
   20.9744   38.9521   -5.6430 H   0  0  0  0  0  0
   20.5220   40.9830   -6.9404 H   0  0  0  0  0  0
   22.6332   41.2933   -8.0915 H   0  0  0  0  0  0
   21.3425   41.2469   -9.2869 H   0  0  0  0  0  0
   22.3924   39.8480   -9.0648 H   0  0  0  0  0  0
   20.9066   38.1382   -9.4099 H   0  0  0  0  0  0
   18.9408   37.0010  -10.4075 H   0  0  0  0  0  0
   16.6813   37.5631   -9.6909 H   0  0  0  0  0  0
   18.2922   40.4210   -6.8704 H   0  0  0  0  0  0
   15.2550   37.3552   -7.6401 H   0  0  0  0  0  0
   14.1740   38.5212   -6.6979 H   0  0  0  0  0  0
   13.8015   39.8610   -8.7442 H   0  0  0  0  0  0
   14.8013   38.6882   -9.7251 H   0  0  0  0  0  0
   16.3669   40.5712   -6.2647 H   0  0  0  0  0  0
   16.4156   42.5461   -6.8751 H   0  0  0  0  0  0
   14.8424   42.4791   -7.6324 H   0  0  0  0  0  0
   18.3244   42.4541  -10.8874 H   0  0  0  0  0  0
   17.1659   43.6259  -11.4234 H   0  0  0  0  0  0
   17.7643   46.0591  -11.4641 H   0  0  0  0  0  0
   19.6218   47.6801  -11.7416 H   0  0  0  0  0  0
   21.9339   47.0306  -11.2677 H   0  0  0  0  0  0
   20.6041   43.0457  -10.2545 H   0  0  0  0  0  0
   24.7339   44.7734  -10.5447 H   0  0  0  0  0  0
   23.8195   45.9641  -11.4075 H   0  0  0  0  0  0
   24.6477   47.0730   -9.4151 H   0  0  0  0  0  0
   22.9582   46.7940   -9.0959 H   0  0  0  0  0  0
   23.6839   44.6198   -7.8750 H   0  0  0  0  0  0
   25.3234   45.1530   -8.0774 H   0  0  0  0  0  0
   24.6379   45.8195   -5.8447 H   0  0  0  0  0  0
   24.8111   47.2627   -6.7956 H   0  0  0  0  0  0
   22.5024   47.5210   -6.9516 H   0  0  0  0  0  0
   20.4580   46.5943   -7.4989 H   0  0  0  0  0  0
   19.3519   42.8261   -5.7392 H   0  0  0  0  0  0
   23.1449   44.6488   -4.7608 H   0  0  0  0  0  0
   22.8351   43.4432   -2.7592 H   0  0  0  0  0  0
   23.7240   42.5073   -3.9796 H   0  0  0  0  0  0
   22.8589   41.6788   -2.6775 H   0  0  0  0  0  0
   18.9425   42.8483   -8.1019 H   0  0  0  0  0  0
   15.0048   41.1975   -9.9109 H   0  0  0  0  0  0
   14.7744   40.6023   -6.5407 H   0  0  0  0  0  0
  1  2  1  0  0  0
  1 45  1  0  0  0
  1 46  1  0  0  0
  1 47  1  0  0  0
  2  3  1  0  0  0
  2  4  1  0  0  0
  2 48  1  0  0  0
  3 49  1  0  0  0
  3 50  1  0  0  0
  3 51  1  0  0  0
  4  9  1  0  0  0
  4  5  2  0  0  0
  5  6  1  0  0  0
  5 52  1  0  0  0
  6  7  2  0  0  0
  6 53  1  0  0  0
  7  8  1  0  0  0
  7 54  1  0  0  0
  8  9  2  0  0  0
  8 10  1  0  0  0
  9 55  1  0  0  0
 10 12  1  0  0  0
 10 11  1  0  0  0
 10 13  1  0  0  0
 11 12  1  0  0  0
 11 56  1  0  0  0
 11 57  1  0  0  0
 12 58  1  0  0  0
 12 59  1  0  0  0
 13 14  1  0  0  0
 13 60  1  0  0  0
 13 86  1  0  0  0
 14 15  1  0  0  0
 14 61  1  0  0  0
 14 62  1  0  0  0
 15 43  1  0  0  0
 15 16  1  0  0  0
 15 42  1  0  0  0
 16 44  1  0  0  0
 16 41  1  0  0  0
 16 17  1  0  0  0
 17 18  1  0  0  0
 17 63  1  0  0  0
 17 64  1  0  0  0
 18 23  1  0  0  0
 18 19  2  0  0  0
 19 20  1  0  0  0
 19 65  1  0  0  0
 20 21  2  0  0  0
 20 66  1  0  0  0
 21 22  1  0  0  0
 21 67  1  0  0  0
 22 23  2  0  0  0
 22 24  1  0  0  0
 23 68  1  0  0  0
 24 25  1  0  0  0
 25 26  1  0  0  0
 25 69  1  0  0  0
 25 70  1  0  0  0
 26 27  1  0  0  0
 26 71  1  0  0  0
 26 72  1  0  0  0
 27 28  1  0  0  0
 27 73  1  0  0  0
 27 74  1  0  0  0
 28 29  1  0  0  0
 28 75  1  0  0  0
 28 76  1  0  0  0
 29 30  1  0  0  0
 29 77  1  0  0  0
 30 35  1  0  0  0
 30 31  2  0  0  0
 31 32  1  0  0  0
 31 78  1  0  0  0
 32 33  2  0  0  0
 32 39  1  0  0  0
 33 34  1  0  0  0
 33 79  1  0  0  0
 34 35  2  0  0  0
 34 36  1  0  0  0
 35 80  1  0  0  0
 36 37  2  0  0  0
 36 38  1  0  0  0
 38 81  1  0  0  0
 38 82  1  0  0  0
 38 83  1  0  0  0
 39 40  2  0  0  0
 39 41  1  0  0  0
 41 84  1  0  0  0
 42 85  1  0  0  0
M  CHG  1  13   1
M  END
> <s_m_source_file>
BACE_14.smi

> <i_m_source_file_index>
1

> <i_lp_mmshare_version>
42013

> <i_f3d_flags>
0

> <s_epik_input>
W0NIM11bQ0hdKFtDSDNdKWMxW2NIXVtjSF1bY0hdYyhbY0hdMSlDMihbQ0gyXVtDSDJdMilbTkhdW0NIMl1bQ0BASF0oW09IXSlbQ0BIXShbQ0gyXTMpW05IXUMoPU8pYyhbY0hdYyhbY0hdNClDKD1PKVtDSDNdKVtjSF1jNFtOSF1bQ0gyXVtDSDJdW0NIMl1bQ0gyXU9jKFtjSF01KVtjSF1bY0hdW2NIXWMzNQ==

> <s_epik_cmdline>
J2VwaWtfcHl0aG9uJywgJy1waCcsICc3LjAnLCAnLXRuJywgJzgnLCAnLW1hJywgJzIwMCcsICctaW1hZScsICc8aW5maWxlLm1hZT4nLCAnLW9tYWUnLCAnPG91dGZpbGUubWFlPic=

> <r_lp_tautomer_probability>
0.99995

> <r_epik_Ionization_Penalty>
  0.5137

> <r_epik_Ionization_Penalty_Charging>
  0.5137

> <r_epik_Ionization_Penalty_Neutral>
  0.0000

> <r_epik_State_Penalty>
  0.5212

> <r_epik_Charging_Adjusted_Penalty>
1.03485

> <i_epik_Tot_Q>
1

> <i_epik_Tot_abs_Q>
1

> <s_lp_Force_Field>
OPLS_2005

> <r_lp_Energy>
46.5551

> <b_lp_Chiralities_Consistent>
1

> <s_lp_Variant>
BACE_14.smi:1-2

> <chiral flag>
1

> <version>
0

> <r_i_glide_lipo>
-0.49017

> <r_i_glide_hbond>
-0.608

> <r_i_glide_metal>
-0

> <r_i_glide_rewards>
0

> <r_i_glide_erotb>
0.229446

> <r_i_glide_esite>
-0.0798175

> <chiral flag>
1

> <s_i_glide_gridfile>
second_dock_grid_2

> <i_i_glide_lignum>
29

> <i_i_glide_rotatable_bonds>
8

> <r_i_docking_score>
-5.13205

> <r_i_glide_ligand_efficiency>
-0.122192

> <r_i_glide_ligand_efficiency_sa>
-0.424741

> <r_i_glide_ligand_efficiency_ln>
-1.08324

> <r_glide_XP_GScore>
-5.65325

> <r_i_glide_gscore>
-5.65325

> <r_i_glide_evdw>
-39.2886

> <r_i_glide_ecoul>
-13.7454

> <r_i_glide_energy>
-53.034

> <r_i_glide_einternal>
2.22775

> <r_i_glide_emodel>
-75.1688

> <r_glide_XP_HBond>
-1.23713

> <i_i_glide_confnum>
1

> <i_i_glide_posenum>
130

> <r_i_glide_eff_state_penalty>
0.5212

> <i_glide_XP_PoseRank>
1

$$$$
BACE_14.smi:1
                    3D
 Structure written by MMmdl.
 86 90  0  0  1  0            999 V2000
   21.9346   39.5962   -6.7319 C   0  0  0  0  0  0
   20.9383   40.5158   -7.4601 C   0  0  0  0  0  0
   21.6530   41.5148   -8.3875 C   0  0  0  0  0  0
   19.8575   39.7239   -8.1940 C   0  0  0  0  0  0
   20.1836   38.8878   -9.2855 C   0  0  0  0  0  0
   19.1763   38.1644   -9.9510 C   0  0  0  0  0  0
   17.8366   38.2704   -9.5322 C   0  0  0  0  0  0
   17.4892   39.1005   -8.4440 C   0  0  0  0  0  0
   18.5085   39.8221   -7.7829 C   0  0  0  0  0  0
   16.0429   39.2240   -7.9863 C   0  0  0  0  0  0
   15.1936   37.9757   -8.0080 C   0  0  0  0  0  0
   14.9632   39.0635   -9.0296 C   0  0  0  0  0  0
   15.8055   40.1908   -6.9034 N   0  3  0  0  0  0
   15.8499   41.6198   -7.2897 C   0  0  0  0  0  0
   16.4565   41.8000   -8.7007 C   0  0  2  0  0  0
   17.3471   43.0594   -8.9109 C   0  0  2  0  0  0
   17.9958   43.0719  -10.3228 C   0  0  0  0  0  0
   18.9901   44.2074  -10.5322 C   0  0  0  0  0  0
   18.5266   45.5155  -10.7760 C   0  0  0  0  0  0
   19.4460   46.5707  -10.9174 C   0  0  0  0  0  0
   20.8295   46.3264  -10.8176 C   0  0  0  0  0  0
   21.3121   45.0145  -10.5825 C   0  0  0  0  0  0
   20.3791   43.9653  -10.4492 C   0  0  0  0  0  0
   22.6457   44.6755  -10.4729 O   0  0  0  0  0  0
   23.6382   45.7011  -10.4574 C   0  0  0  0  0  0
   23.7257   46.3782   -9.0774 C   0  0  0  0  0  0
   24.2593   45.4334   -7.9843 C   0  0  0  0  0  0
   24.2850   46.0629   -6.5769 C   0  0  0  0  0  0
   22.9512   46.3816   -6.0726 N   0  0  0  0  0  0
   22.0821   45.2977   -5.9004 C   0  0  0  0  0  0
   20.8190   45.3349   -6.5209 C   0  0  0  0  0  0
   19.9471   44.2284   -6.4428 C   0  0  0  0  0  0
   20.3246   43.0955   -5.6872 C   0  0  0  0  0  0
   21.5751   43.0659   -5.0399 C   0  0  0  0  0  0
   22.4558   44.1591   -5.1534 C   0  0  0  0  0  0
   21.9677   41.8927   -4.2591 C   0  0  0  0  0  0
   23.1387   41.5825   -4.0402 O   0  0  0  0  0  0
   20.8641   41.0011   -3.6884 C   0  0  0  0  0  0
   18.6439   44.2705   -7.1790 C   0  0  0  0  0  0
   17.9808   45.2937   -7.2206 O   0  0  0  0  0  0
   18.3886   43.1609   -7.8800 N   0  0  0  0  0  0
   15.4196   41.8146   -9.6639 O   0  0  0  0  0  0
   17.0553   40.9184   -8.9338 H   0  0  0  0  0  0
   16.6925   43.9323   -8.8730 H   0  0  0  0  0  0
   22.6565   40.1779   -6.1578 H   0  0  0  0  0  0
   22.4974   38.9711   -7.4257 H   0  0  0  0  0  0
   21.4202   38.9367   -6.0321 H   0  0  0  0  0  0
   20.4443   41.1086   -6.6891 H   0  0  0  0  0  0
   22.3716   42.1188   -7.8326 H   0  0  0  0  0  0
   20.9411   42.2005   -8.8483 H   0  0  0  0  0  0
   22.1976   41.0132   -9.1878 H   0  0  0  0  0  0
   21.2061   38.7940   -9.6207 H   0  0  0  0  0  0
   19.4317   37.5265  -10.7844 H   0  0  0  0  0  0
   17.0748   37.7079  -10.0521 H   0  0  0  0  0  0
   18.2462   40.4576   -6.9493 H   0  0  0  0  0  0
   15.6614   37.0526   -8.3502 H   0  0  0  0  0  0
   14.4497   37.8575   -7.2200 H   0  0  0  0  0  0
   14.0653   39.6726   -8.9247 H   0  0  0  0  0  0
   15.2770   38.8677  -10.0549 H   0  0  0  0  0  0
   16.5119   40.0407   -6.1972 H   0  0  0  0  0  0
   16.4584   42.1526   -6.5591 H   0  0  0  0  0  0
   14.8449   42.0418   -7.2425 H   0  0  0  0  0  0
   18.5052   42.1241  -10.4965 H   0  0  0  0  0  0
   17.2175   43.1326  -11.0835 H   0  0  0  0  0  0
   17.4676   45.7173  -10.8400 H   0  0  0  0  0  0
   19.0893   47.5743  -11.0962 H   0  0  0  0  0  0
   21.4954   47.1699  -10.9241 H   0  0  0  0  0  0
   20.7391   42.9649  -10.2599 H   0  0  0  0  0  0
   24.5968   45.2365  -10.6883 H   0  0  0  0  0  0
   23.4807   46.4278  -11.2544 H   0  0  0  0  0  0
   24.3486   47.2703   -9.1434 H   0  0  0  0  0  0
   22.7332   46.7251   -8.7898 H   0  0  0  0  0  0
   23.6782   44.5112   -7.9751 H   0  0  0  0  0  0
   25.2736   45.1336   -8.2477 H   0  0  0  0  0  0
   24.7636   45.3750   -5.8799 H   0  0  0  0  0  0
   24.9073   46.9577   -6.5826 H   0  0  0  0  0  0
   22.5344   47.1859   -6.5193 H   0  0  0  0  0  0
   20.5266   46.1936   -7.1071 H   0  0  0  0  0  0
   19.6621   42.2470   -5.6000 H   0  0  0  0  0  0
   23.4148   44.1120   -4.6588 H   0  0  0  0  0  0
   20.2282   40.6152   -4.4856 H   0  0  0  0  0  0
   20.2477   41.5556   -2.9804 H   0  0  0  0  0  0
   21.2975   40.1500   -3.1624 H   0  0  0  0  0  0
   19.0469   42.4008   -7.7855 H   0  0  0  0  0  0
   14.8102   41.1221   -9.4588 H   0  0  0  0  0  0
   14.9021   39.9980   -6.4951 H   0  0  0  0  0  0
  1  2  1  0  0  0
  1 45  1  0  0  0
  1 46  1  0  0  0
  1 47  1  0  0  0
  2  3  1  0  0  0
  2  4  1  0  0  0
  2 48  1  0  0  0
  3 49  1  0  0  0
  3 50  1  0  0  0
  3 51  1  0  0  0
  4  9  1  0  0  0
  4  5  2  0  0  0
  5  6  1  0  0  0
  5 52  1  0  0  0
  6  7  2  0  0  0
  6 53  1  0  0  0
  7  8  1  0  0  0
  7 54  1  0  0  0
  8  9  2  0  0  0
  8 10  1  0  0  0
  9 55  1  0  0  0
 10 12  1  0  0  0
 10 11  1  0  0  0
 10 13  1  0  0  0
 11 12  1  0  0  0
 11 56  1  0  0  0
 11 57  1  0  0  0
 12 58  1  0  0  0
 12 59  1  0  0  0
 13 14  1  0  0  0
 13 60  1  0  0  0
 13 86  1  0  0  0
 14 15  1  0  0  0
 14 61  1  0  0  0
 14 62  1  0  0  0
 15 43  1  0  0  0
 15 16  1  0  0  0
 15 42  1  0  0  0
 16 44  1  0  0  0
 16 41  1  0  0  0
 16 17  1  0  0  0
 17 18  1  0  0  0
 17 63  1  0  0  0
 17 64  1  0  0  0
 18 23  1  0  0  0
 18 19  2  0  0  0
 19 20  1  0  0  0
 19 65  1  0  0  0
 20 21  2  0  0  0
 20 66  1  0  0  0
 21 22  1  0  0  0
 21 67  1  0  0  0
 22 23  2  0  0  0
 22 24  1  0  0  0
 23 68  1  0  0  0
 24 25  1  0  0  0
 25 26  1  0  0  0
 25 69  1  0  0  0
 25 70  1  0  0  0
 26 27  1  0  0  0
 26 71  1  0  0  0
 26 72  1  0  0  0
 27 28  1  0  0  0
 27 73  1  0  0  0
 27 74  1  0  0  0
 28 29  1  0  0  0
 28 75  1  0  0  0
 28 76  1  0  0  0
 29 30  1  0  0  0
 29 77  1  0  0  0
 30 35  1  0  0  0
 30 31  2  0  0  0
 31 32  1  0  0  0
 31 78  1  0  0  0
 32 33  2  0  0  0
 32 39  1  0  0  0
 33 34  1  0  0  0
 33 79  1  0  0  0
 34 35  2  0  0  0
 34 36  1  0  0  0
 35 80  1  0  0  0
 36 37  2  0  0  0
 36 38  1  0  0  0
 38 81  1  0  0  0
 38 82  1  0  0  0
 38 83  1  0  0  0
 39 40  2  0  0  0
 39 41  1  0  0  0
 41 84  1  0  0  0
 42 85  1  0  0  0
M  CHG  1  13   1
M  END
> <s_m_source_file>
BACE_14.smi

> <i_m_source_file_index>
1

> <i_lp_mmshare_version>
42013

> <i_f3d_flags>
0

> <s_epik_input>
W0NIM11bQ0hdKFtDSDNdKWMxW2NIXVtjSF1bY0hdYyhbY0hdMSlDMihbQ0gyXVtDSDJdMilbTkhdW0NIMl1bQ0BASF0oW09IXSlbQ0BIXShbQ0gyXTMpW05IXUMoPU8pYyhbY0hdYyhbY0hdNClDKD1PKVtDSDNdKVtjSF1jNFtOSF1bQ0gyXVtDSDJdW0NIMl1bQ0gyXU9jKFtjSF01KVtjSF1bY0hdW2NIXWMzNQ==

> <s_epik_cmdline>
J2VwaWtfcHl0aG9uJywgJy1waCcsICc3LjAnLCAnLXRuJywgJzgnLCAnLW1hJywgJzIwMCcsICctaW1hZScsICc8aW5maWxlLm1hZT4nLCAnLW9tYWUnLCAnPG91dGZpbGUubWFlPic=

> <r_lp_tautomer_probability>
0.99995

> <r_epik_Ionization_Penalty>
  0.5137

> <r_epik_Ionization_Penalty_Charging>
  0.5137

> <r_epik_Ionization_Penalty_Neutral>
  0.0000

> <r_epik_State_Penalty>
  0.5212

> <r_epik_Charging_Adjusted_Penalty>
1.03485

> <i_epik_Tot_Q>
1

> <i_epik_Tot_abs_Q>
1

> <s_lp_Force_Field>
OPLS_2005

> <r_lp_Energy>
46.5551

> <b_lp_Chiralities_Consistent>
1

> <s_lp_Variant>
BACE_14.smi:1-2

> <chiral flag>
1

> <version>
0

> <r_i_glide_lipo>
-0.49017

> <r_i_glide_hbond>
-0.608

> <r_i_glide_metal>
-0

> <r_i_glide_rewards>
0

> <r_i_glide_erotb>
0.229446

> <r_i_glide_esite>
-0.0798175

> <chiral flag>
1

> <s_i_glide_gridfile>
second_dock_grid_2

> <i_i_glide_lignum>
29

> <i_i_glide_rotatable_bonds>
8

> <r_i_docking_score>
-4.70284

> <r_i_glide_ligand_efficiency>
-0.111972

> <r_i_glide_ligand_efficiency_sa>
-0.389219

> <r_i_glide_ligand_efficiency_ln>
-0.992649

> <r_glide_XP_GScore>
-5.22404

> <r_i_glide_gscore>
-5.22404

> <r_i_glide_evdw>
-39.3643

> <r_i_glide_ecoul>
-15.5169

> <r_i_glide_energy>
-54.8813

> <r_i_glide_einternal>
2.35474

> <r_i_glide_emodel>
-78.1289

> <r_glide_XP_HBond>
-1.23713

> <i_i_glide_confnum>
1

> <i_i_glide_posenum>
131

> <r_i_glide_eff_state_penalty>
0.5212

> <i_glide_XP_PoseRank>
2

$$$$
BACE_14.smi:1
                    3D
 Structure written by MMmdl.
 86 90  0  0  1  0            999 V2000
   21.9836   39.7759  -10.2073 C   0  0  0  0  0  0
   20.4921   40.1264  -10.3879 C   0  0  0  0  0  0
   20.0380   39.6427  -11.7768 C   0  0  0  0  0  0
   19.5842   39.6011   -9.2646 C   0  0  0  0  0  0
   20.1178   39.0535   -8.0745 C   0  0  0  0  0  0
   19.2662   38.5521   -7.0744 C   0  0  0  0  0  0
   17.8726   38.5730   -7.2499 C   0  0  0  0  0  0
   17.3134   39.1350   -8.4159 C   0  0  0  0  0  0
   18.1758   39.6661   -9.4023 C   0  0  0  0  0  0
   15.8200   39.1557   -8.6007 C   0  0  0  0  0  0
   15.0654   37.9108   -8.9893 C   0  0  0  0  0  0
   15.1629   39.0555   -9.9640 C   0  0  0  0  0  0
   15.0761   39.9939   -7.6311 N   0  3  0  0  0  0
   15.5006   41.4112   -7.5631 C   0  0  0  0  0  0
   15.4081   42.1657   -8.9201 C   0  0  2  0  0  0
   16.2685   43.4551   -9.0225 C   0  0  2  0  0  0
   16.2444   44.0066  -10.4722 C   0  0  0  0  0  0
   17.2008   45.1581  -10.7311 C   0  0  0  0  0  0
   16.7867   46.4910  -10.5362 C   0  0  0  0  0  0
   17.6929   47.5453  -10.7535 C   0  0  0  0  0  0
   19.0213   47.2705  -11.1343 C   0  0  0  0  0  0
   19.4526   45.9325  -11.3153 C   0  0  0  0  0  0
   18.5221   44.8903  -11.1453 C   0  0  0  0  0  0
   20.7403   45.5682  -11.6397 O   0  0  0  0  0  0
   21.7624   46.5462  -11.5106 C   0  0  0  0  0  0
   23.1294   45.8529  -11.4335 C   0  0  0  0  0  0
   23.3124   44.9961  -10.1661 C   0  0  0  0  0  0
   22.8669   43.5341  -10.3398 C   0  0  0  0  0  0
   22.9477   42.7902   -9.0875 N   0  0  0  0  0  0
   21.9584   42.9023   -8.0987 C   0  0  0  0  0  0
   20.6436   43.3433   -8.3763 C   0  0  0  0  0  0
   19.6916   43.4511   -7.3431 C   0  0  0  0  0  0
   20.0604   43.1394   -6.0196 C   0  0  0  0  0  0
   21.3610   42.6685   -5.7233 C   0  0  0  0  0  0
   22.2954   42.5494   -6.7753 C   0  0  0  0  0  0
   21.7546   42.2894   -4.3361 C   0  0  0  0  0  0
   22.8668   41.8527   -4.0398 O   0  0  0  0  0  0
   20.7162   42.4559   -3.2277 C   0  0  0  0  0  0
   18.2998   43.9188   -7.6348 C   0  0  0  0  0  0
   17.8123   44.8564   -7.0060 O   0  0  0  0  0  0
   17.6498   43.2214   -8.5816 N   0  0  0  0  0  0
   14.0619   42.5466   -9.1534 O   0  0  0  0  0  0
   15.7250   41.5112   -9.7297 H   0  0  0  0  0  0
   15.8178   44.2091   -8.3710 H   0  0  0  0  0  0
   22.5790   40.1607  -11.0344 H   0  0  0  0  0  0
   22.1434   38.6981  -10.1641 H   0  0  0  0  0  0
   22.3972   40.2065   -9.2967 H   0  0  0  0  0  0
   20.4082   41.2119  -10.3676 H   0  0  0  0  0  0
   20.6958   40.0258  -12.5575 H   0  0  0  0  0  0
   19.0334   39.9785  -12.0311 H   0  0  0  0  0  0
   20.0568   38.5551  -11.8389 H   0  0  0  0  0  0
   21.1820   38.9941   -7.9027 H   0  0  0  0  0  0
   19.6848   38.1395   -6.1687 H   0  0  0  0  0  0
   17.2392   38.1549   -6.4799 H   0  0  0  0  0  0
   17.7430   40.1035  -10.2860 H   0  0  0  0  0  0
   15.6429   37.0122   -9.2047 H   0  0  0  0  0  0
   14.0774   37.7557   -8.5635 H   0  0  0  0  0  0
   14.2416   39.6036  -10.1541 H   0  0  0  0  0  0
   15.7954   38.9026  -10.8340 H   0  0  0  0  0  0
   15.1971   39.5919   -6.7089 H   0  0  0  0  0  0
   16.5065   41.4383   -7.1461 H   0  0  0  0  0  0
   14.8587   41.8916   -6.8404 H   0  0  0  0  0  0
   16.4922   43.2071  -11.1719 H   0  0  0  0  0  0
   15.2339   44.3266  -10.7372 H   0  0  0  0  0  0
   15.7775   46.7083  -10.2204 H   0  0  0  0  0  0
   17.3757   48.5678  -10.6122 H   0  0  0  0  0  0
   19.6936   48.1034  -11.2822 H   0  0  0  0  0  0
   18.8458   43.8703  -11.2850 H   0  0  0  0  0  0
   21.7317   47.2147  -12.3718 H   0  0  0  0  0  0
   21.6288   47.1500  -10.6113 H   0  0  0  0  0  0
   23.3045   45.2547  -12.3299 H   0  0  0  0  0  0
   23.8946   46.6301  -11.4353 H   0  0  0  0  0  0
   24.3664   45.0044   -9.8849 H   0  0  0  0  0  0
   22.7804   45.4577   -9.3324 H   0  0  0  0  0  0
   21.8696   43.4692  -10.7687 H   0  0  0  0  0  0
   23.5192   43.0432  -11.0658 H   0  0  0  0  0  0
   23.8627   42.4599   -8.8111 H   0  0  0  0  0  0
   20.3511   43.6116   -9.3778 H   0  0  0  0  0  0
   19.3172   43.2333   -5.2422 H   0  0  0  0  0  0
   23.2927   42.1929   -6.5659 H   0  0  0  0  0  0
   19.8740   41.7832   -3.3926 H   0  0  0  0  0  0
   20.3484   43.4818   -3.1960 H   0  0  0  0  0  0
   21.1553   42.2227   -2.2575 H   0  0  0  0  0  0
   18.1553   42.4609   -9.0109 H   0  0  0  0  0  0
   13.4738   41.8093   -9.0372 H   0  0  0  0  0  0
   14.0886   39.9533   -7.8416 H   0  0  0  0  0  0
  1  2  1  0  0  0
  1 45  1  0  0  0
  1 46  1  0  0  0
  1 47  1  0  0  0
  2  3  1  0  0  0
  2  4  1  0  0  0
  2 48  1  0  0  0
  3 49  1  0  0  0
  3 50  1  0  0  0
  3 51  1  0  0  0
  4  9  1  0  0  0
  4  5  2  0  0  0
  5  6  1  0  0  0
  5 52  1  0  0  0
  6  7  2  0  0  0
  6 53  1  0  0  0
  7  8  1  0  0  0
  7 54  1  0  0  0
  8  9  2  0  0  0
  8 10  1  0  0  0
  9 55  1  0  0  0
 10 12  1  0  0  0
 10 11  1  0  0  0
 10 13  1  0  0  0
 11 12  1  0  0  0
 11 56  1  0  0  0
 11 57  1  0  0  0
 12 58  1  0  0  0
 12 59  1  0  0  0
 13 14  1  0  0  0
 13 60  1  0  0  0
 13 86  1  0  0  0
 14 15  1  0  0  0
 14 61  1  0  0  0
 14 62  1  0  0  0
 15 43  1  0  0  0
 15 16  1  0  0  0
 15 42  1  0  0  0
 16 44  1  0  0  0
 16 41  1  0  0  0
 16 17  1  0  0  0
 17 18  1  0  0  0
 17 63  1  0  0  0
 17 64  1  0  0  0
 18 23  1  0  0  0
 18 19  2  0  0  0
 19 20  1  0  0  0
 19 65  1  0  0  0
 20 21  2  0  0  0
 20 66  1  0  0  0
 21 22  1  0  0  0
 21 67  1  0  0  0
 22 23  2  0  0  0
 22 24  1  0  0  0
 23 68  1  0  0  0
 24 25  1  0  0  0
 25 26  1  0  0  0
 25 69  1  0  0  0
 25 70  1  0  0  0
 26 27  1  0  0  0
 26 71  1  0  0  0
 26 72  1  0  0  0
 27 28  1  0  0  0
 27 73  1  0  0  0
 27 74  1  0  0  0
 28 29  1  0  0  0
 28 75  1  0  0  0
 28 76  1  0  0  0
 29 30  1  0  0  0
 29 77  1  0  0  0
 30 35  1  0  0  0
 30 31  2  0  0  0
 31 32  1  0  0  0
 31 78  1  0  0  0
 32 33  2  0  0  0
 32 39  1  0  0  0
 33 34  1  0  0  0
 33 79  1  0  0  0
 34 35  2  0  0  0
 34 36  1  0  0  0
 35 80  1  0  0  0
 36 37  2  0  0  0
 36 38  1  0  0  0
 38 81  1  0  0  0
 38 82  1  0  0  0
 38 83  1  0  0  0
 39 40  2  0  0  0
 39 41  1  0  0  0
 41 84  1  0  0  0
 42 85  1  0  0  0
M  CHG  1  13   1
M  END
> <s_m_source_file>
BACE_14.smi

> <i_m_source_file_index>
1

> <i_lp_mmshare_version>
42013

> <i_f3d_flags>
0

> <s_epik_input>
W0NIM11bQ0hdKFtDSDNdKWMxW2NIXVtjSF1bY0hdYyhbY0hdMSlDMihbQ0gyXVtDSDJdMilbTkhdW0NIMl1bQ0BASF0oW09IXSlbQ0BIXShbQ0gyXTMpW05IXUMoPU8pYyhbY0hdYyhbY0hdNClDKD1PKVtDSDNdKVtjSF1jNFtOSF1bQ0gyXVtDSDJdW0NIMl1bQ0gyXU9jKFtjSF01KVtjSF1bY0hdW2NIXWMzNQ==

> <s_epik_cmdline>
J2VwaWtfcHl0aG9uJywgJy1waCcsICc3LjAnLCAnLXRuJywgJzgnLCAnLW1hJywgJzIwMCcsICctaW1hZScsICc8aW5maWxlLm1hZT4nLCAnLW9tYWUnLCAnPG91dGZpbGUubWFlPic=

> <r_lp_tautomer_probability>
0.99995

> <r_epik_Ionization_Penalty>
  0.5137

> <r_epik_Ionization_Penalty_Charging>
  0.5137

> <r_epik_Ionization_Penalty_Neutral>
  0.0000

> <r_epik_State_Penalty>
  0.5212

> <r_epik_Charging_Adjusted_Penalty>
1.03485

> <i_epik_Tot_Q>
1

> <i_epik_Tot_abs_Q>
1

> <s_lp_Force_Field>
OPLS_2005

> <r_lp_Energy>
46.5551

> <b_lp_Chiralities_Consistent>
1

> <s_lp_Variant>
BACE_14.smi:1-2

> <chiral flag>
1

> <version>
0

> <r_i_glide_lipo>
-0.49017

> <r_i_glide_hbond>
-0.608

> <r_i_glide_metal>
-0

> <r_i_glide_rewards>
0

> <r_i_glide_erotb>
0.229446

> <r_i_glide_esite>
-0.0798175

> <chiral flag>
1

> <s_i_glide_gridfile>
second_dock_grid_2

> <i_i_glide_lignum>
29

> <i_i_glide_rotatable_bonds>
8

> <r_i_docking_score>
-4.59756

> <r_i_glide_ligand_efficiency>
-0.109466

> <r_i_glide_ligand_efficiency_sa>
-0.380506

> <r_i_glide_ligand_efficiency_ln>
-0.970426

> <r_glide_XP_GScore>
-5.11876

> <r_i_glide_gscore>
-5.11876

> <r_i_glide_evdw>
-39.9896

> <r_i_glide_ecoul>
-15.2291

> <r_i_glide_energy>
-55.2187

> <r_i_glide_einternal>
12.4212

> <r_i_glide_emodel>
-72.8468

> <r_glide_XP_HBond>
-1.23713

> <i_i_glide_confnum>
1

> <i_i_glide_posenum>
62

> <r_i_glide_eff_state_penalty>
0.5212

> <i_glide_XP_PoseRank>
3

$$$$
BACE_14.smi:1
                    3D
 Structure written by MMmdl.
 86 90  0  0  1  0            999 V2000
   21.8562   38.9858   -7.7953 C   0  0  0  0  0  0
   20.9263   40.1984   -7.9783 C   0  0  0  0  0  0
   21.5923   41.3113   -8.8070 C   0  0  0  0  0  0
   19.5654   39.7975   -8.5449 C   0  0  0  0  0  0
   19.4600   39.1644   -9.8038 C   0  0  0  0  0  0
   18.1987   38.8008  -10.3118 C   0  0  0  0  0  0
   17.0340   39.0668   -9.5674 C   0  0  0  0  0  0
   17.1172   39.6988   -8.3074 C   0  0  0  0  0  0
   18.3885   40.0593   -7.8069 C   0  0  0  0  0  0
   15.8631   39.9935   -7.4970 C   0  0  0  0  0  0
   15.7592   39.3798   -6.1212 C   0  0  0  0  0  0
   14.9060   38.8519   -7.2497 C   0  0  0  0  0  0
   15.2891   41.3340   -7.6900 N   0  3  0  0  0  0
   16.2619   42.4451   -7.8017 C   0  0  0  0  0  0
   17.1375   42.2978   -9.0678 C   0  0  2  0  0  0
   18.3023   43.3192   -9.2213 C   0  0  2  0  0  0
   19.1414   43.0418  -10.4994 C   0  0  0  0  0  0
   20.2694   44.0384  -10.7333 C   0  0  0  0  0  0
   19.9871   45.3083  -11.2755 C   0  0  0  0  0  0
   21.0286   46.2310  -11.4843 C   0  0  0  0  0  0
   22.3547   45.8930  -11.1519 C   0  0  0  0  0  0
   22.6538   44.6217  -10.6033 C   0  0  0  0  0  0
   21.6019   43.7021  -10.4088 C   0  0  0  0  0  0
   23.9182   44.2034  -10.2443 O   0  0  0  0  0  0
   24.9823   45.1519  -10.1497 C   0  0  0  0  0  0
   24.8290   46.0713   -8.9224 C   0  0  0  0  0  0
   24.7187   45.2929   -7.6027 C   0  0  0  0  0  0
   24.3753   46.2032   -6.4080 C   0  0  0  0  0  0
   23.9268   45.4488   -5.2407 N   0  0  0  0  0  0
   22.7187   44.7335   -5.2734 C   0  0  0  0  0  0
   21.7232   44.9722   -6.2489 C   0  0  0  0  0  0
   20.5599   44.1781   -6.3060 C   0  0  0  0  0  0
   20.3604   43.1654   -5.3420 C   0  0  0  0  0  0
   21.3293   42.9462   -4.3435 C   0  0  0  0  0  0
   22.5042   43.7232   -4.3135 C   0  0  0  0  0  0
   21.1236   41.8993   -3.3425 C   0  0  0  0  0  0
   21.0143   40.7051   -3.6205 O   0  0  0  0  0  0
   21.0348   42.3113   -1.8726 C   0  0  0  0  0  0
   19.5579   44.4275   -7.3907 C   0  0  0  0  0  0
   19.2435   45.5645   -7.7019 O   0  0  0  0  0  0
   19.1751   43.3223   -8.0398 N   0  0  0  0  0  0
   16.3195   42.3695  -10.2206 O   0  0  0  0  0  0
   17.5635   41.2936   -9.0776 H   0  0  0  0  0  0
   17.8555   44.3052   -9.3630 H   0  0  0  0  0  0
   22.7956   39.2802   -7.3263 H   0  0  0  0  0  0
   22.1009   38.5102   -8.7454 H   0  0  0  0  0  0
   21.3966   38.2323   -7.1547 H   0  0  0  0  0  0
   20.7584   40.6123   -6.9832 H   0  0  0  0  0  0
   22.5286   41.6328   -8.3498 H   0  0  0  0  0  0
   20.9476   42.1883   -8.8758 H   0  0  0  0  0  0
   21.8200   40.9854   -9.8223 H   0  0  0  0  0  0
   20.3427   38.9523  -10.3890 H   0  0  0  0  0  0
   18.1244   38.3166  -11.2744 H   0  0  0  0  0  0
   16.0732   38.7805   -9.9699 H   0  0  0  0  0  0
   18.4557   40.5424   -6.8426 H   0  0  0  0  0  0
   16.5880   38.7584   -5.7817 H   0  0  0  0  0  0
   15.2645   39.9628   -5.3444 H   0  0  0  0  0  0
   13.8408   39.0821   -7.2274 H   0  0  0  0  0  0
   15.1643   37.8777   -7.6648 H   0  0  0  0  0  0
   14.6894   41.5280   -6.9008 H   0  0  0  0  0  0
   16.8958   42.4346   -6.9152 H   0  0  0  0  0  0
   15.7291   43.3972   -7.8069 H   0  0  0  0  0  0
   19.5585   42.0359  -10.4526 H   0  0  0  0  0  0
   18.4857   43.0482  -11.3701 H   0  0  0  0  0  0
   18.9736   45.5806  -11.5303 H   0  0  0  0  0  0
   20.8101   47.2035  -11.9001 H   0  0  0  0  0  0
   23.1236   46.6304  -11.3295 H   0  0  0  0  0  0
   21.8237   42.7310   -9.9915 H   0  0  0  0  0  0
   25.9094   44.5870  -10.0525 H   0  0  0  0  0  0
   25.0906   45.7254  -11.0703 H   0  0  0  0  0  0
   25.6759   46.7553   -8.8677 H   0  0  0  0  0  0
   23.9469   46.6989   -9.0497 H   0  0  0  0  0  0
   23.9751   44.5014   -7.6966 H   0  0  0  0  0  0
   25.6689   44.7876   -7.4295 H   0  0  0  0  0  0
   25.2551   46.7849   -6.1327 H   0  0  0  0  0  0
   23.6159   46.9358   -6.6815 H   0  0  0  0  0  0
   24.6225   45.1886   -4.5564 H   0  0  0  0  0  0
   21.8480   45.7395   -6.9986 H   0  0  0  0  0  0
   19.4666   42.5595   -5.3589 H   0  0  0  0  0  0
   23.2432   43.5245   -3.5514 H   0  0  0  0  0  0
   20.2202   43.0193   -1.7183 H   0  0  0  0  0  0
   21.9684   42.7677   -1.5428 H   0  0  0  0  0  0
   20.8462   41.4399   -1.2448 H   0  0  0  0  0  0
   19.5532   42.4438   -7.7154 H   0  0  0  0  0  0
   15.4205   42.4639   -9.9449 H   0  0  0  0  0  0
   14.7211   41.3213   -8.5250 H   0  0  0  0  0  0
  1  2  1  0  0  0
  1 45  1  0  0  0
  1 46  1  0  0  0
  1 47  1  0  0  0
  2  3  1  0  0  0
  2  4  1  0  0  0
  2 48  1  0  0  0
  3 49  1  0  0  0
  3 50  1  0  0  0
  3 51  1  0  0  0
  4  9  1  0  0  0
  4  5  2  0  0  0
  5  6  1  0  0  0
  5 52  1  0  0  0
  6  7  2  0  0  0
  6 53  1  0  0  0
  7  8  1  0  0  0
  7 54  1  0  0  0
  8  9  2  0  0  0
  8 10  1  0  0  0
  9 55  1  0  0  0
 10 12  1  0  0  0
 10 11  1  0  0  0
 10 13  1  0  0  0
 11 12  1  0  0  0
 11 56  1  0  0  0
 11 57  1  0  0  0
 12 58  1  0  0  0
 12 59  1  0  0  0
 13 14  1  0  0  0
 13 60  1  0  0  0
 13 86  1  0  0  0
 14 15  1  0  0  0
 14 61  1  0  0  0
 14 62  1  0  0  0
 15 43  1  0  0  0
 15 16  1  0  0  0
 15 42  1  0  0  0
 16 44  1  0  0  0
 16 41  1  0  0  0
 16 17  1  0  0  0
 17 18  1  0  0  0
 17 63  1  0  0  0
 17 64  1  0  0  0
 18 23  1  0  0  0
 18 19  2  0  0  0
 19 20  1  0  0  0
 19 65  1  0  0  0
 20 21  2  0  0  0
 20 66  1  0  0  0
 21 22  1  0  0  0
 21 67  1  0  0  0
 22 23  2  0  0  0
 22 24  1  0  0  0
 23 68  1  0  0  0
 24 25  1  0  0  0
 25 26  1  0  0  0
 25 69  1  0  0  0
 25 70  1  0  0  0
 26 27  1  0  0  0
 26 71  1  0  0  0
 26 72  1  0  0  0
 27 28  1  0  0  0
 27 73  1  0  0  0
 27 74  1  0  0  0
 28 29  1  0  0  0
 28 75  1  0  0  0
 28 76  1  0  0  0
 29 30  1  0  0  0
 29 77  1  0  0  0
 30 35  1  0  0  0
 30 31  2  0  0  0
 31 32  1  0  0  0
 31 78  1  0  0  0
 32 33  2  0  0  0
 32 39  1  0  0  0
 33 34  1  0  0  0
 33 79  1  0  0  0
 34 35  2  0  0  0
 34 36  1  0  0  0
 35 80  1  0  0  0
 36 37  2  0  0  0
 36 38  1  0  0  0
 38 81  1  0  0  0
 38 82  1  0  0  0
 38 83  1  0  0  0
 39 40  2  0  0  0
 39 41  1  0  0  0
 41 84  1  0  0  0
 42 85  1  0  0  0
M  CHG  1  13   1
M  END
> <s_m_source_file>
BACE_14.smi

> <i_m_source_file_index>
1

> <i_lp_mmshare_version>
42013

> <i_f3d_flags>
0

> <s_epik_input>
W0NIM11bQ0hdKFtDSDNdKWMxW2NIXVtjSF1bY0hdYyhbY0hdMSlDMihbQ0gyXVtDSDJdMilbTkhdW0NIMl1bQ0BASF0oW09IXSlbQ0BIXShbQ0gyXTMpW05IXUMoPU8pYyhbY0hdYyhbY0hdNClDKD1PKVtDSDNdKVtjSF1jNFtOSF1bQ0gyXVtDSDJdW0NIMl1bQ0gyXU9jKFtjSF01KVtjSF1bY0hdW2NIXWMzNQ==

> <s_epik_cmdline>
J2VwaWtfcHl0aG9uJywgJy1waCcsICc3LjAnLCAnLXRuJywgJzgnLCAnLW1hJywgJzIwMCcsICctaW1hZScsICc8aW5maWxlLm1hZT4nLCAnLW9tYWUnLCAnPG91dGZpbGUubWFlPic=

> <r_lp_tautomer_probability>
0.99995

> <r_epik_Ionization_Penalty>
  0.5137

> <r_epik_Ionization_Penalty_Charging>
  0.5137

> <r_epik_Ionization_Penalty_Neutral>
  0.0000

> <r_epik_State_Penalty>
  0.5212

> <r_epik_Charging_Adjusted_Penalty>
1.03485

> <i_epik_Tot_Q>
1

> <i_epik_Tot_abs_Q>
1

> <s_lp_Force_Field>
OPLS_2005

> <r_lp_Energy>
46.5551

> <b_lp_Chiralities_Consistent>
1

> <s_lp_Variant>
BACE_14.smi:1-2

> <chiral flag>
1

> <version>
0

> <r_i_glide_lipo>
-0.49017

> <r_i_glide_hbond>
-0.608

> <r_i_glide_metal>
-0

> <r_i_glide_rewards>
0

> <r_i_glide_erotb>
0.229446

> <r_i_glide_esite>
-0.0798175

> <chiral flag>
1

> <s_i_glide_gridfile>
second_dock_grid_2

> <i_i_glide_lignum>
29

> <i_i_glide_rotatable_bonds>
8

> <r_i_docking_score>
-3.67093

> <r_i_glide_ligand_efficiency>
-0.0874032

> <r_i_glide_ligand_efficiency_sa>
-0.303816

> <r_i_glide_ligand_efficiency_ln>
-0.774839

> <r_glide_XP_GScore>
-4.19213

> <r_i_glide_gscore>
-4.19213

> <r_i_glide_evdw>
-35.996

> <r_i_glide_ecoul>
-14.5192

> <r_i_glide_energy>
-50.5152

> <r_i_glide_einternal>
4.54185

> <r_i_glide_emodel>
-76.0479

> <r_glide_XP_HBond>
-1.23713

> <i_i_glide_confnum>
1

> <i_i_glide_posenum>
25

> <r_i_glide_eff_state_penalty>
0.5212

> <i_glide_XP_PoseRank>
4

$$$$
BACE_14.smi:1
                    3D
 Structure written by MMmdl.
 86 90  0  0  1  0            999 V2000
   22.0107   38.6961   -7.4165 C   0  0  0  0  0  0
   21.1567   39.9456   -7.6622 C   0  0  0  0  0  0
   21.9458   41.0455   -8.3874 C   0  0  0  0  0  0
   19.8577   39.6088   -8.3814 C   0  0  0  0  0  0
   19.8672   39.0041   -9.6532 C   0  0  0  0  0  0
   18.6522   38.6844  -10.2841 C   0  0  0  0  0  0
   17.4228   38.9732   -9.6635 C   0  0  0  0  0  0
   17.3964   39.5905   -8.3974 C   0  0  0  0  0  0
   18.6231   39.8882   -7.7638 C   0  0  0  0  0  0
   16.0951   39.9036   -7.7144 C   0  0  0  0  0  0
   15.8060   39.3502   -6.3554 C   0  0  0  0  0  0
   15.0273   38.8445   -7.5461 C   0  0  0  0  0  0
   15.5189   41.2606   -7.9030 N   0  3  0  0  0  0
   16.4548   42.4088   -7.9271 C   0  0  0  0  0  0
   17.0675   42.6501   -9.3296 C   0  0  2  0  0  0
   18.1494   43.7579   -9.3962 C   0  0  2  0  0  0
   18.9335   43.7001  -10.7332 C   0  0  0  0  0  0
   20.0626   44.7127  -10.8510 C   0  0  0  0  0  0
   19.7885   46.0419  -11.2303 C   0  0  0  0  0  0
   20.8388   46.9733  -11.3381 C   0  0  0  0  0  0
   22.1644   46.5857  -11.0589 C   0  0  0  0  0  0
   22.4535   45.2560  -10.6658 C   0  0  0  0  0  0
   21.3949   44.3281  -10.5871 C   0  0  0  0  0  0
   23.7131   44.7864  -10.3546 O   0  0  0  0  0  0
   24.7936   45.7025  -10.1802 C   0  0  0  0  0  0
   24.6694   46.5188   -8.8782 C   0  0  0  0  0  0
   24.5611   45.6415   -7.6216 C   0  0  0  0  0  0
   24.2269   46.4636   -6.3594 C   0  0  0  0  0  0
   23.7818   45.6383   -5.2399 N   0  0  0  0  0  0
   22.6105   44.8763   -5.3564 C   0  0  0  0  0  0
   21.5911   45.1874   -6.2861 C   0  0  0  0  0  0
   20.4802   44.3381   -6.4430 C   0  0  0  0  0  0
   20.3598   43.1947   -5.6272 C   0  0  0  0  0  0
   21.3236   42.9233   -4.6345 C   0  0  0  0  0  0
   22.4595   43.7516   -4.5216 C   0  0  0  0  0  0
   21.1585   41.7619   -3.7339 C   0  0  0  0  0  0
   20.8130   40.6413   -4.1011 O   0  0  0  0  0  0
   21.3921   42.0367   -2.2547 C   0  0  0  0  0  0
   19.4271   44.6724   -7.4530 C   0  0  0  0  0  0
   18.9834   45.8167   -7.5417 O   0  0  0  0  0  0
   19.0685   43.6605   -8.2599 N   0  0  0  0  0  0
   15.9966   42.9950  -10.1900 O   0  0  0  0  0  0
   17.5130   41.7374   -9.7187 H   0  0  0  0  0  0
   17.6366   44.7200   -9.3457 H   0  0  0  0  0  0
   22.8989   38.9509   -6.8412 H   0  0  0  0  0  0
   22.3379   38.2412   -8.3526 H   0  0  0  0  0  0
   21.4564   37.9488   -6.8476 H   0  0  0  0  0  0
   20.8936   40.3444   -6.6826 H   0  0  0  0  0  0
   22.8512   41.3058   -7.8379 H   0  0  0  0  0  0
   21.3483   41.9516   -8.4720 H   0  0  0  0  0  0
   22.2421   40.7375   -9.3902 H   0  0  0  0  0  0
   20.8023   38.7731  -10.1405 H   0  0  0  0  0  0
   18.6648   38.2020  -11.2460 H   0  0  0  0  0  0
   16.4996   38.7160  -10.1613 H   0  0  0  0  0  0
   18.6140   40.3389   -6.7879 H   0  0  0  0  0  0
   16.5610   38.6871   -5.9425 H   0  0  0  0  0  0
   15.2609   39.9547   -5.6352 H   0  0  0  0  0  0
   13.9782   39.1303   -7.5928 H   0  0  0  0  0  0
   15.2501   37.8279   -7.8663 H   0  0  0  0  0  0
   14.8899   41.4067   -7.1215 H   0  0  0  0  0  0
   17.2096   42.2577   -7.1581 H   0  0  0  0  0  0
   15.9046   43.3040   -7.6400 H   0  0  0  0  0  0
   19.3541   42.7027  -10.8719 H   0  0  0  0  0  0
   18.2525   43.8524  -11.5709 H   0  0  0  0  0  0
   18.7744   46.3513  -11.4375 H   0  0  0  0  0  0
   20.6273   47.9913  -11.6316 H   0  0  0  0  0  0
   22.9418   47.3283  -11.1494 H   0  0  0  0  0  0
   21.6166   43.3101  -10.3043 H   0  0  0  0  0  0
   25.7091   45.1129  -10.1385 H   0  0  0  0  0  0
   24.9051   46.3505  -11.0498 H   0  0  0  0  0  0
   25.5306   47.1803   -8.7840 H   0  0  0  0  0  0
   23.7971   47.1697   -8.9356 H   0  0  0  0  0  0
   23.7905   44.8923   -7.7982 H   0  0  0  0  0  0
   25.4856   45.0828   -7.4701 H   0  0  0  0  0  0
   25.1107   47.0204   -6.0480 H   0  0  0  0  0  0
   23.4654   47.2143   -6.5759 H   0  0  0  0  0  0
   24.4972   45.2900   -4.6086 H   0  0  0  0  0  0
   21.6694   46.0575   -6.9209 H   0  0  0  0  0  0
   19.5015   42.5495   -5.7314 H   0  0  0  0  0  0
   23.2261   43.5193   -3.7956 H   0  0  0  0  0  0
   20.9855   43.0104   -1.9797 H   0  0  0  0  0  0
   22.4576   42.0347   -2.0410 H   0  0  0  0  0  0
   20.9060   41.2778   -1.6435 H   0  0  0  0  0  0
   19.5240   42.7711   -8.1092 H   0  0  0  0  0  0
   16.3358   43.0687  -11.0708 H   0  0  0  0  0  0
   14.9797   41.2804   -8.7565 H   0  0  0  0  0  0
  1  2  1  0  0  0
  1 45  1  0  0  0
  1 46  1  0  0  0
  1 47  1  0  0  0
  2  3  1  0  0  0
  2  4  1  0  0  0
  2 48  1  0  0  0
  3 49  1  0  0  0
  3 50  1  0  0  0
  3 51  1  0  0  0
  4  9  1  0  0  0
  4  5  2  0  0  0
  5  6  1  0  0  0
  5 52  1  0  0  0
  6  7  2  0  0  0
  6 53  1  0  0  0
  7  8  1  0  0  0
  7 54  1  0  0  0
  8  9  2  0  0  0
  8 10  1  0  0  0
  9 55  1  0  0  0
 10 12  1  0  0  0
 10 11  1  0  0  0
 10 13  1  0  0  0
 11 12  1  0  0  0
 11 56  1  0  0  0
 11 57  1  0  0  0
 12 58  1  0  0  0
 12 59  1  0  0  0
 13 14  1  0  0  0
 13 60  1  0  0  0
 13 86  1  0  0  0
 14 15  1  0  0  0
 14 61  1  0  0  0
 14 62  1  0  0  0
 15 43  1  0  0  0
 15 16  1  0  0  0
 15 42  1  0  0  0
 16 44  1  0  0  0
 16 41  1  0  0  0
 16 17  1  0  0  0
 17 18  1  0  0  0
 17 63  1  0  0  0
 17 64  1  0  0  0
 18 23  1  0  0  0
 18 19  2  0  0  0
 19 20  1  0  0  0
 19 65  1  0  0  0
 20 21  2  0  0  0
 20 66  1  0  0  0
 21 22  1  0  0  0
 21 67  1  0  0  0
 22 23  2  0  0  0
 22 24  1  0  0  0
 23 68  1  0  0  0
 24 25  1  0  0  0
 25 26  1  0  0  0
 25 69  1  0  0  0
 25 70  1  0  0  0
 26 27  1  0  0  0
 26 71  1  0  0  0
 26 72  1  0  0  0
 27 28  1  0  0  0
 27 73  1  0  0  0
 27 74  1  0  0  0
 28 29  1  0  0  0
 28 75  1  0  0  0
 28 76  1  0  0  0
 29 30  1  0  0  0
 29 77  1  0  0  0
 30 35  1  0  0  0
 30 31  2  0  0  0
 31 32  1  0  0  0
 31 78  1  0  0  0
 32 33  2  0  0  0
 32 39  1  0  0  0
 33 34  1  0  0  0
 33 79  1  0  0  0
 34 35  2  0  0  0
 34 36  1  0  0  0
 35 80  1  0  0  0
 36 37  2  0  0  0
 36 38  1  0  0  0
 38 81  1  0  0  0
 38 82  1  0  0  0
 38 83  1  0  0  0
 39 40  2  0  0  0
 39 41  1  0  0  0
 41 84  1  0  0  0
 42 85  1  0  0  0
M  CHG  1  13   1
M  END
> <s_m_source_file>
BACE_14.smi

> <i_m_source_file_index>
1

> <i_lp_mmshare_version>
42013

> <i_f3d_flags>
0

> <s_epik_input>
W0NIM11bQ0hdKFtDSDNdKWMxW2NIXVtjSF1bY0hdYyhbY0hdMSlDMihbQ0gyXVtDSDJdMilbTkhdW0NIMl1bQ0BASF0oW09IXSlbQ0BIXShbQ0gyXTMpW05IXUMoPU8pYyhbY0hdYyhbY0hdNClDKD1PKVtDSDNdKVtjSF1jNFtOSF1bQ0gyXVtDSDJdW0NIMl1bQ0gyXU9jKFtjSF01KVtjSF1bY0hdW2NIXWMzNQ==

> <s_epik_cmdline>
J2VwaWtfcHl0aG9uJywgJy1waCcsICc3LjAnLCAnLXRuJywgJzgnLCAnLW1hJywgJzIwMCcsICctaW1hZScsICc8aW5maWxlLm1hZT4nLCAnLW9tYWUnLCAnPG91dGZpbGUubWFlPic=

> <r_lp_tautomer_probability>
0.99995

> <r_epik_Ionization_Penalty>
  0.5137

> <r_epik_Ionization_Penalty_Charging>
  0.5137

> <r_epik_Ionization_Penalty_Neutral>
  0.0000

> <r_epik_State_Penalty>
  0.5212

> <r_epik_Charging_Adjusted_Penalty>
1.03485

> <i_epik_Tot_Q>
1

> <i_epik_Tot_abs_Q>
1

> <s_lp_Force_Field>
OPLS_2005

> <r_lp_Energy>
46.5551

> <b_lp_Chiralities_Consistent>
1

> <s_lp_Variant>
BACE_14.smi:1-2

> <chiral flag>
1

> <version>
0

> <r_i_glide_lipo>
-0.49017

> <r_i_glide_hbond>
-0.608

> <r_i_glide_metal>
-0

> <r_i_glide_rewards>
0

> <r_i_glide_erotb>
0.229446

> <r_i_glide_esite>
-0.0798175

> <chiral flag>
1

> <s_i_glide_gridfile>
second_dock_grid_2

> <i_i_glide_lignum>
29

> <i_i_glide_rotatable_bonds>
8

> <r_i_docking_score>
-3.21384

> <r_i_glide_ligand_efficiency>
-0.0765199

> <r_i_glide_ligand_efficiency_sa>
-0.265985

> <r_i_glide_ligand_efficiency_ln>
-0.678358

> <r_glide_XP_GScore>
-3.73504

> <r_i_glide_gscore>
-3.73504

> <r_i_glide_evdw>
-38.7049

> <r_i_glide_ecoul>
-10.7967

> <r_i_glide_energy>
-49.5016

> <r_i_glide_einternal>
4.12785

> <r_i_glide_emodel>
-74.5947

> <r_glide_XP_HBond>
-1.23713

> <i_i_glide_confnum>
1

> <i_i_glide_posenum>
32

> <r_i_glide_eff_state_penalty>
0.5212

> <i_glide_XP_PoseRank>
5

$$$$
BACE_14.smi:1
                    3D
 Structure written by MMmdl.
 86 90  0  0  1  0            999 V2000
   21.9432   38.7173   -7.4737 C   0  0  0  0  0  0
   21.1180   39.9834   -7.7245 C   0  0  0  0  0  0
   21.9399   41.0693   -8.4359 C   0  0  0  0  0  0
   19.8183   39.6771   -8.4573 C   0  0  0  0  0  0
   19.8219   39.2102   -9.7875 C   0  0  0  0  0  0
   18.6040   38.9463  -10.4414 C   0  0  0  0  0  0
   17.3774   39.1584   -9.7831 C   0  0  0  0  0  0
   17.3580   39.6418   -8.4584 C   0  0  0  0  0  0
   18.5861   39.8645   -7.8004 C   0  0  0  0  0  0
   16.0642   39.9368   -7.7507 C   0  0  0  0  0  0
   15.7921   39.3507   -6.3993 C   0  0  0  0  0  0
   14.9887   38.8889   -7.5925 C   0  0  0  0  0  0
   15.4974   41.3024   -7.8953 N   0  3  0  0  0  0
   16.4410   42.4443   -7.9229 C   0  0  0  0  0  0
   17.0502   42.7049   -9.3226 C   0  0  2  0  0  0
   18.1156   43.8286   -9.3726 C   0  0  2  0  0  0
   18.8984   43.8120  -10.7116 C   0  0  0  0  0  0
   20.0033   44.8529  -10.8079 C   0  0  0  0  0  0
   19.6877   46.1881  -11.1255 C   0  0  0  0  0  0
   20.7095   47.1517  -11.2109 C   0  0  0  0  0  0
   22.0489   46.7883  -10.9738 C   0  0  0  0  0  0
   22.3815   45.4510  -10.6423 C   0  0  0  0  0  0
   21.3497   44.4923  -10.5798 C   0  0  0  0  0  0
   23.6585   45.0035  -10.3730 O   0  0  0  0  0  0
   24.7168   45.9415  -10.1782 C   0  0  0  0  0  0
   24.5929   46.6997   -8.8411 C   0  0  0  0  0  0
   24.5210   45.7707   -7.6208 C   0  0  0  0  0  0
   24.1839   46.5324   -6.3233 C   0  0  0  0  0  0
   23.7700   45.6476   -5.2396 N   0  0  0  0  0  0
   22.5999   44.8823   -5.3550 C   0  0  0  0  0  0
   21.5696   45.2052   -6.2673 C   0  0  0  0  0  0
   20.4581   44.3540   -6.4226 C   0  0  0  0  0  0
   20.3526   43.1967   -5.6253 C   0  0  0  0  0  0
   21.3258   42.9154   -4.6449 C   0  0  0  0  0  0
   22.4598   43.7456   -4.5332 C   0  0  0  0  0  0
   21.1673   41.7446   -3.7537 C   0  0  0  0  0  0
   20.8290   40.6251   -4.1321 O   0  0  0  0  0  0
   21.3918   42.0125   -2.2709 C   0  0  0  0  0  0
   19.3915   44.7050   -7.4110 C   0  0  0  0  0  0
   18.9287   45.8452   -7.4601 O   0  0  0  0  0  0
   19.0452   43.7132   -8.2458 N   0  0  0  0  0  0
   15.9770   43.0466  -10.1790 O   0  0  0  0  0  0
   17.5130   41.8079   -9.7197 H   0  0  0  0  0  0
   17.5934   44.7845   -9.2932 H   0  0  0  0  0  0
   22.8365   38.9500   -6.8947 H   0  0  0  0  0  0
   22.2585   38.2508   -8.4076 H   0  0  0  0  0  0
   21.3691   37.9860   -6.9033 H   0  0  0  0  0  0
   20.8526   40.3832   -6.7475 H   0  0  0  0  0  0
   22.8349   41.3199   -7.8658 H   0  0  0  0  0  0
   21.3605   41.9846   -8.5443 H   0  0  0  0  0  0
   22.2600   40.7506   -9.4276 H   0  0  0  0  0  0
   20.7546   39.0480  -10.3065 H   0  0  0  0  0  0
   18.6098   38.5851  -11.4590 H   0  0  0  0  0  0
   16.4530   38.9610  -10.3053 H   0  0  0  0  0  0
   18.5815   40.1925   -6.7739 H   0  0  0  0  0  0
   16.5347   38.6542   -6.0218 H   0  0  0  0  0  0
   15.2721   39.9382   -5.6433 H   0  0  0  0  0  0
   13.9416   39.1894   -7.6149 H   0  0  0  0  0  0
   15.1921   37.8809   -7.9485 H   0  0  0  0  0  0
   14.8953   41.4384   -7.0901 H   0  0  0  0  0  0
   17.1979   42.2868   -7.1564 H   0  0  0  0  0  0
   15.8899   43.3405   -7.6404 H   0  0  0  0  0  0
   19.3418   42.8274  -10.8683 H   0  0  0  0  0  0
   18.2138   43.9660  -11.5461 H   0  0  0  0  0  0
   18.6623   46.4777  -11.3043 H   0  0  0  0  0  0
   20.4659   48.1753  -11.4563 H   0  0  0  0  0  0
   22.8024   47.5562  -11.0471 H   0  0  0  0  0  0
   21.5994   43.4704  -10.3368 H   0  0  0  0  0  0
   25.6501   45.3770  -10.1756 H   0  0  0  0  0  0
   24.7944   46.6263  -11.0219 H   0  0  0  0  0  0
   25.4428   47.3732   -8.7299 H   0  0  0  0  0  0
   23.7084   47.3343   -8.8590 H   0  0  0  0  0  0
   23.7649   45.0113   -7.8180 H   0  0  0  0  0  0
   25.4586   45.2300   -7.4998 H   0  0  0  0  0  0
   25.0584   47.0939   -5.9945 H   0  0  0  0  0  0
   23.4035   47.2732   -6.4984 H   0  0  0  0  0  0
   24.4913   45.3010   -4.6140 H   0  0  0  0  0  0
   21.6379   46.0839   -6.8915 H   0  0  0  0  0  0
   19.4965   42.5502   -5.7293 H   0  0  0  0  0  0
   23.2349   43.5063   -3.8175 H   0  0  0  0  0  0
   21.0278   43.0064   -2.0100 H   0  0  0  0  0  0
   22.4535   41.9656   -2.0468 H   0  0  0  0  0  0
   20.8634   41.2815   -1.6577 H   0  0  0  0  0  0
   19.5116   42.8271   -8.1215 H   0  0  0  0  0  0
   16.3019   43.0624  -11.0684 H   0  0  0  0  0  0
   14.9292   41.3448   -8.7291 H   0  0  0  0  0  0
  1  2  1  0  0  0
  1 45  1  0  0  0
  1 46  1  0  0  0
  1 47  1  0  0  0
  2  3  1  0  0  0
  2  4  1  0  0  0
  2 48  1  0  0  0
  3 49  1  0  0  0
  3 50  1  0  0  0
  3 51  1  0  0  0
  4  9  1  0  0  0
  4  5  2  0  0  0
  5  6  1  0  0  0
  5 52  1  0  0  0
  6  7  2  0  0  0
  6 53  1  0  0  0
  7  8  1  0  0  0
  7 54  1  0  0  0
  8  9  2  0  0  0
  8 10  1  0  0  0
  9 55  1  0  0  0
 10 12  1  0  0  0
 10 11  1  0  0  0
 10 13  1  0  0  0
 11 12  1  0  0  0
 11 56  1  0  0  0
 11 57  1  0  0  0
 12 58  1  0  0  0
 12 59  1  0  0  0
 13 14  1  0  0  0
 13 60  1  0  0  0
 13 86  1  0  0  0
 14 15  1  0  0  0
 14 61  1  0  0  0
 14 62  1  0  0  0
 15 43  1  0  0  0
 15 16  1  0  0  0
 15 42  1  0  0  0
 16 44  1  0  0  0
 16 41  1  0  0  0
 16 17  1  0  0  0
 17 18  1  0  0  0
 17 63  1  0  0  0
 17 64  1  0  0  0
 18 23  1  0  0  0
 18 19  2  0  0  0
 19 20  1  0  0  0
 19 65  1  0  0  0
 20 21  2  0  0  0
 20 66  1  0  0  0
 21 22  1  0  0  0
 21 67  1  0  0  0
 22 23  2  0  0  0
 22 24  1  0  0  0
 23 68  1  0  0  0
 24 25  1  0  0  0
 25 26  1  0  0  0
 25 69  1  0  0  0
 25 70  1  0  0  0
 26 27  1  0  0  0
 26 71  1  0  0  0
 26 72  1  0  0  0
 27 28  1  0  0  0
 27 73  1  0  0  0
 27 74  1  0  0  0
 28 29  1  0  0  0
 28 75  1  0  0  0
 28 76  1  0  0  0
 29 30  1  0  0  0
 29 77  1  0  0  0
 30 35  1  0  0  0
 30 31  2  0  0  0
 31 32  1  0  0  0
 31 78  1  0  0  0
 32 33  2  0  0  0
 32 39  1  0  0  0
 33 34  1  0  0  0
 33 79  1  0  0  0
 34 35  2  0  0  0
 34 36  1  0  0  0
 35 80  1  0  0  0
 36 37  2  0  0  0
 36 38  1  0  0  0
 38 81  1  0  0  0
 38 82  1  0  0  0
 38 83  1  0  0  0
 39 40  2  0  0  0
 39 41  1  0  0  0
 41 84  1  0  0  0
 42 85  1  0  0  0
M  CHG  1  13   1
M  END
> <s_m_source_file>
BACE_14.smi

> <i_m_source_file_index>
1

> <i_lp_mmshare_version>
42013

> <i_f3d_flags>
0

> <s_epik_input>
W0NIM11bQ0hdKFtDSDNdKWMxW2NIXVtjSF1bY0hdYyhbY0hdMSlDMihbQ0gyXVtDSDJdMilbTkhdW0NIMl1bQ0BASF0oW09IXSlbQ0BIXShbQ0gyXTMpW05IXUMoPU8pYyhbY0hdYyhbY0hdNClDKD1PKVtDSDNdKVtjSF1jNFtOSF1bQ0gyXVtDSDJdW0NIMl1bQ0gyXU9jKFtjSF01KVtjSF1bY0hdW2NIXWMzNQ==

> <s_epik_cmdline>
J2VwaWtfcHl0aG9uJywgJy1waCcsICc3LjAnLCAnLXRuJywgJzgnLCAnLW1hJywgJzIwMCcsICctaW1hZScsICc8aW5maWxlLm1hZT4nLCAnLW9tYWUnLCAnPG91dGZpbGUubWFlPic=

> <r_lp_tautomer_probability>
0.99995

> <r_epik_Ionization_Penalty>
  0.5137

> <r_epik_Ionization_Penalty_Charging>
  0.5137

> <r_epik_Ionization_Penalty_Neutral>
  0.0000

> <r_epik_State_Penalty>
  0.5212

> <r_epik_Charging_Adjusted_Penalty>
1.03485

> <i_epik_Tot_Q>
1

> <i_epik_Tot_abs_Q>
1

> <s_lp_Force_Field>
OPLS_2005

> <r_lp_Energy>
46.5551

> <b_lp_Chiralities_Consistent>
1

> <s_lp_Variant>
BACE_14.smi:1-2

> <chiral flag>
1

> <version>
0

> <r_i_glide_lipo>
-0.49017

> <r_i_glide_hbond>
-0.608

> <r_i_glide_metal>
-0

> <r_i_glide_rewards>
0

> <r_i_glide_erotb>
0.229446

> <r_i_glide_esite>
-0.0798175

> <chiral flag>
1

> <s_i_glide_gridfile>
second_dock_grid_2

> <i_i_glide_lignum>
29

> <i_i_glide_rotatable_bonds>
8

> <r_i_docking_score>
-3.20768

> <r_i_glide_ligand_efficiency>
-0.0763734

> <r_i_glide_ligand_efficiency_sa>
-0.265476

> <r_i_glide_ligand_efficiency_ln>
-0.677059

> <r_glide_XP_GScore>
-3.72888

> <r_i_glide_gscore>
-3.72888

> <r_i_glide_evdw>
-39.0333

> <r_i_glide_ecoul>
-10.9209

> <r_i_glide_energy>
-49.9543

> <r_i_glide_einternal>
3.92227

> <r_i_glide_emodel>
-76.1593

> <r_glide_XP_HBond>
-1.23713

> <i_i_glide_confnum>
1

> <i_i_glide_posenum>
13

> <r_i_glide_eff_state_penalty>
0.5212

> <i_glide_XP_PoseRank>
6

$$$$
BACE_14.smi:1
                    3D
 Structure written by MMmdl.
 86 90  0  0  1  0            999 V2000
   21.6935   38.4348   -8.7012 C   0  0  0  0  0  0
   20.9072   39.6463   -8.1802 C   0  0  0  0  0  0
   21.6778   40.9620   -8.3760 C   0  0  0  0  0  0
   19.5367   39.6988   -8.8288 C   0  0  0  0  0  0
   19.4053   39.5274  -10.2193 C   0  0  0  0  0  0
   18.1290   39.4332  -10.7918 C   0  0  0  0  0  0
   16.9772   39.5136   -9.9886 C   0  0  0  0  0  0
   17.0983   39.7731   -8.6054 C   0  0  0  0  0  0
   18.3849   39.8501   -8.0322 C   0  0  0  0  0  0
   15.8870   39.9905   -7.7521 C   0  0  0  0  0  0
   15.7490   39.3478   -6.4011 C   0  0  0  0  0  0
   14.8757   38.8854   -7.5431 C   0  0  0  0  0  0
   15.2624   41.3403   -7.8060 N   0  3  0  0  0  0
   16.1539   42.5323   -7.8843 C   0  0  0  0  0  0
   16.7615   42.8400   -9.2787 C   0  0  2  0  0  0
   17.8342   43.9635   -9.2969 C   0  0  2  0  0  0
   18.5803   43.9860  -10.6575 C   0  0  0  0  0  0
   19.6966   45.0089  -10.7655 C   0  0  0  0  0  0
   19.3968   46.3455  -11.0923 C   0  0  0  0  0  0
   20.4338   47.2858  -11.2236 C   0  0  0  0  0  0
   21.7726   46.9003  -11.0126 C   0  0  0  0  0  0
   22.0858   45.5633  -10.6663 C   0  0  0  0  0  0
   21.0380   44.6250  -10.5572 C   0  0  0  0  0  0
   23.3616   45.0969  -10.4262 O   0  0  0  0  0  0
   24.4450   46.0145  -10.2963 C   0  0  0  0  0  0
   24.3809   46.8037   -8.9731 C   0  0  0  0  0  0
   24.3214   45.8973   -7.7334 C   0  0  0  0  0  0
   24.0040   46.6795   -6.4441 C   0  0  0  0  0  0
   23.6296   45.8112   -5.3324 N   0  0  0  0  0  0
   22.4853   45.0056   -5.4387 C   0  0  0  0  0  0
   21.3970   45.3289   -6.2846 C   0  0  0  0  0  0
   20.3127   44.4395   -6.4317 C   0  0  0  0  0  0
   20.2932   43.2470   -5.6808 C   0  0  0  0  0  0
   21.3340   42.9508   -4.7750 C   0  0  0  0  0  0
   22.4415   43.8189   -4.6817 C   0  0  0  0  0  0
   21.2803   41.7212   -3.9547 C   0  0  0  0  0  0
   20.8559   40.6425   -4.3606 O   0  0  0  0  0  0
   21.7523   41.8566   -2.5091 C   0  0  0  0  0  0
   19.1816   44.7857   -7.3557 C   0  0  0  0  0  0
   18.7024   45.9203   -7.3573 O   0  0  0  0  0  0
   18.7967   43.8098   -8.1967 N   0  0  0  0  0  0
   15.7061   43.2172  -10.1451 O   0  0  0  0  0  0
   17.2369   41.9763   -9.7151 H   0  0  0  0  0  0
   17.3155   44.9184   -9.1804 H   0  0  0  0  0  0
   22.4747   38.1630   -8.0046 H   0  0  0  0  0  0
   22.1465   38.6251   -9.6751 H   0  0  0  0  0  0
   21.0519   37.5616   -8.8126 H   0  0  0  0  0  0
   20.7550   39.4961   -7.1100 H   0  0  0  0  0  0
   22.6433   40.9301   -7.8721 H   0  0  0  0  0  0
   21.1240   41.8060   -7.9747 H   0  0  0  0  0  0
   21.8593   41.1643   -9.4309 H   0  0  0  0  0  0
   20.2782   39.4293  -10.8466 H   0  0  0  0  0  0
   18.0601   39.2809  -11.8568 H   0  0  0  0  0  0
   16.0010   39.4252  -10.4456 H   0  0  0  0  0  0
   18.4879   40.0084   -6.9672 H   0  0  0  0  0  0
   16.5400   38.6768   -6.0734 H   0  0  0  0  0  0
   15.2589   39.9027   -5.6052 H   0  0  0  0  0  0
   13.8191   39.1332   -7.4667 H   0  0  0  0  0  0
   15.0949   37.8975   -7.9443 H   0  0  0  0  0  0
   14.7525   41.4280   -6.9333 H   0  0  0  0  0  0
   16.9087   42.4371   -7.1050 H   0  0  0  0  0  0
   15.5523   43.4067   -7.6395 H   0  0  0  0  0  0
   19.0059   43.0006  -10.8681 H   0  0  0  0  0  0
   17.8684   44.1756  -11.4643 H   0  0  0  0  0  0
   18.3743   46.6517  -11.2483 H   0  0  0  0  0  0
   20.2020   48.3077  -11.4841 H   0  0  0  0  0  0
   22.5418   47.6475  -11.1181 H   0  0  0  0  0  0
   21.2739   43.6032  -10.2948 H   0  0  0  0  0  0
   25.3635   45.4274  -10.3170 H   0  0  0  0  0  0
   24.5065   46.6787  -11.1590 H   0  0  0  0  0  0
   25.2472   47.4606   -8.8969 H   0  0  0  0  0  0
   23.5089   47.4556   -8.9821 H   0  0  0  0  0  0
   23.5554   45.1435   -7.9045 H   0  0  0  0  0  0
   25.2563   45.3496   -7.6169 H   0  0  0  0  0  0
   24.8804   47.2571   -6.1483 H   0  0  0  0  0  0
   23.2137   47.4088   -6.6134 H   0  0  0  0  0  0
   24.3861   45.4532   -4.7613 H   0  0  0  0  0  0
   21.4024   46.2436   -6.8573 H   0  0  0  0  0  0
   19.4523   42.5784   -5.7719 H   0  0  0  0  0  0
   23.2704   43.5743   -4.0302 H   0  0  0  0  0  0
   21.5884   42.8677   -2.1392 H   0  0  0  0  0  0
   22.8134   41.6330   -2.4418 H   0  0  0  0  0  0
   21.2101   41.1704   -1.8610 H   0  0  0  0  0  0
   19.2727   42.9222   -8.1171 H   0  0  0  0  0  0
   15.2500   42.4420  -10.4365 H   0  0  0  0  0  0
   14.5918   41.3571   -8.5587 H   0  0  0  0  0  0
  1  2  1  0  0  0
  1 45  1  0  0  0
  1 46  1  0  0  0
  1 47  1  0  0  0
  2  3  1  0  0  0
  2  4  1  0  0  0
  2 48  1  0  0  0
  3 49  1  0  0  0
  3 50  1  0  0  0
  3 51  1  0  0  0
  4  9  1  0  0  0
  4  5  2  0  0  0
  5  6  1  0  0  0
  5 52  1  0  0  0
  6  7  2  0  0  0
  6 53  1  0  0  0
  7  8  1  0  0  0
  7 54  1  0  0  0
  8  9  2  0  0  0
  8 10  1  0  0  0
  9 55  1  0  0  0
 10 12  1  0  0  0
 10 11  1  0  0  0
 10 13  1  0  0  0
 11 12  1  0  0  0
 11 56  1  0  0  0
 11 57  1  0  0  0
 12 58  1  0  0  0
 12 59  1  0  0  0
 13 14  1  0  0  0
 13 60  1  0  0  0
 13 86  1  0  0  0
 14 15  1  0  0  0
 14 61  1  0  0  0
 14 62  1  0  0  0
 15 43  1  0  0  0
 15 16  1  0  0  0
 15 42  1  0  0  0
 16 44  1  0  0  0
 16 41  1  0  0  0
 16 17  1  0  0  0
 17 18  1  0  0  0
 17 63  1  0  0  0
 17 64  1  0  0  0
 18 23  1  0  0  0
 18 19  2  0  0  0
 19 20  1  0  0  0
 19 65  1  0  0  0
 20 21  2  0  0  0
 20 66  1  0  0  0
 21 22  1  0  0  0
 21 67  1  0  0  0
 22 23  2  0  0  0
 22 24  1  0  0  0
 23 68  1  0  0  0
 24 25  1  0  0  0
 25 26  1  0  0  0
 25 69  1  0  0  0
 25 70  1  0  0  0
 26 27  1  0  0  0
 26 71  1  0  0  0
 26 72  1  0  0  0
 27 28  1  0  0  0
 27 73  1  0  0  0
 27 74  1  0  0  0
 28 29  1  0  0  0
 28 75  1  0  0  0
 28 76  1  0  0  0
 29 30  1  0  0  0
 29 77  1  0  0  0
 30 35  1  0  0  0
 30 31  2  0  0  0
 31 32  1  0  0  0
 31 78  1  0  0  0
 32 33  2  0  0  0
 32 39  1  0  0  0
 33 34  1  0  0  0
 33 79  1  0  0  0
 34 35  2  0  0  0
 34 36  1  0  0  0
 35 80  1  0  0  0
 36 37  2  0  0  0
 36 38  1  0  0  0
 38 81  1  0  0  0
 38 82  1  0  0  0
 38 83  1  0  0  0
 39 40  2  0  0  0
 39 41  1  0  0  0
 41 84  1  0  0  0
 42 85  1  0  0  0
M  CHG  1  13   1
M  END
> <s_m_source_file>
BACE_14.smi

> <i_m_source_file_index>
1

> <i_lp_mmshare_version>
42013

> <i_f3d_flags>
0

> <s_epik_input>
W0NIM11bQ0hdKFtDSDNdKWMxW2NIXVtjSF1bY0hdYyhbY0hdMSlDMihbQ0gyXVtDSDJdMilbTkhdW0NIMl1bQ0BASF0oW09IXSlbQ0BIXShbQ0gyXTMpW05IXUMoPU8pYyhbY0hdYyhbY0hdNClDKD1PKVtDSDNdKVtjSF1jNFtOSF1bQ0gyXVtDSDJdW0NIMl1bQ0gyXU9jKFtjSF01KVtjSF1bY0hdW2NIXWMzNQ==

> <s_epik_cmdline>
J2VwaWtfcHl0aG9uJywgJy1waCcsICc3LjAnLCAnLXRuJywgJzgnLCAnLW1hJywgJzIwMCcsICctaW1hZScsICc8aW5maWxlLm1hZT4nLCAnLW9tYWUnLCAnPG91dGZpbGUubWFlPic=

> <r_lp_tautomer_probability>
0.99995

> <r_epik_Ionization_Penalty>
  0.5137

> <r_epik_Ionization_Penalty_Charging>
  0.5137

> <r_epik_Ionization_Penalty_Neutral>
  0.0000

> <r_epik_State_Penalty>
  0.5212

> <r_epik_Charging_Adjusted_Penalty>
1.03485

> <i_epik_Tot_Q>
1

> <i_epik_Tot_abs_Q>
1

> <s_lp_Force_Field>
OPLS_2005

> <r_lp_Energy>
46.5551

> <b_lp_Chiralities_Consistent>
1

> <s_lp_Variant>
BACE_14.smi:1-2

> <chiral flag>
1

> <version>
0

> <r_i_glide_lipo>
-0.49017

> <r_i_glide_hbond>
-0.608

> <r_i_glide_metal>
-0

> <r_i_glide_rewards>
0

> <r_i_glide_erotb>
0.229446

> <r_i_glide_esite>
-0.0798175

> <chiral flag>
1

> <s_i_glide_gridfile>
second_dock_grid_2

> <i_i_glide_lignum>
29

> <i_i_glide_rotatable_bonds>
8

> <r_i_docking_score>
-3.02579

> <r_i_glide_ligand_efficiency>
-0.0720427

> <r_i_glide_ligand_efficiency_sa>
-0.250422

> <r_i_glide_ligand_efficiency_ln>
-0.638667

> <r_glide_XP_GScore>
-3.54699

> <r_i_glide_gscore>
-3.54699

> <r_i_glide_evdw>
-37.4458

> <r_i_glide_ecoul>
-12.3147

> <r_i_glide_energy>
-49.7606

> <r_i_glide_einternal>
5.71423

> <r_i_glide_emodel>
-75.4469

> <r_glide_XP_HBond>
-1.23713

> <i_i_glide_confnum>
1

> <i_i_glide_posenum>
59

> <r_i_glide_eff_state_penalty>
0.5212

> <i_glide_XP_PoseRank>
7

$$$$
BACE_14.smi:1
                    3D
 Structure written by MMmdl.
 86 90  0  0  1  0            999 V2000
   28.3011   46.2635   -8.6040 C   0  0  0  0  0  0
   28.3043   44.8054   -8.1246 C   0  0  0  0  0  0
   27.5540   44.6465   -6.7912 C   0  0  0  0  0  0
   27.7787   43.8660   -9.2056 C   0  0  0  0  0  0
   28.6771   43.0231   -9.8952 C   0  0  0  0  0  0
   28.2070   42.1521  -10.8976 C   0  0  0  0  0  0
   26.8396   42.1276  -11.2169 C   0  0  0  0  0  0
   25.9307   42.9713  -10.5430 C   0  0  0  0  0  0
   26.4082   43.8358   -9.5356 C   0  0  0  0  0  0
   24.4804   42.9411  -10.9055 C   0  0  0  0  0  0
   24.0143   43.3498  -12.2854 C   0  0  0  0  0  0
   23.6304   44.1860  -11.0879 C   0  0  0  0  0  0
   23.7602   41.7642  -10.3718 N   0  3  0  0  0  0
   23.2568   41.9247   -8.9877 C   0  0  0  0  0  0
   22.5095   40.6643   -8.4964 C   0  0  2  0  0  0
   21.5174   40.9179   -7.3228 C   0  0  2  0  0  0
   20.7513   39.6467   -6.8715 C   0  0  0  0  0  0
   19.6839   39.1662   -7.8480 C   0  0  0  0  0  0
   20.0387   38.3596   -8.9458 C   0  0  0  0  0  0
   19.0515   37.9403   -9.8556 C   0  0  0  0  0  0
   17.7029   38.2829   -9.6540 C   0  0  0  0  0  0
   17.3295   39.0880   -8.5533 C   0  0  0  0  0  0
   18.3295   39.5221   -7.6609 C   0  0  0  0  0  0
   16.0367   39.4886   -8.2941 O   0  0  0  0  0  0
   15.1054   39.5657   -9.3706 C   0  0  0  0  0  0
   15.5093   40.6655  -10.3732 C   0  0  0  0  0  0
   15.6052   42.0557   -9.7202 C   0  0  0  0  0  0
   16.3772   43.0635  -10.5884 C   0  0  0  0  0  0
   16.5017   44.3724   -9.9592 N   0  0  0  0  0  0
   17.4049   44.6289   -8.9134 C   0  0  0  0  0  0
   18.3193   43.6609   -8.4271 C   0  0  0  0  0  0
   19.1937   43.9681   -7.3567 C   0  0  0  0  0  0
   19.1334   45.2500   -6.7698 C   0  0  0  0  0  0
   18.2457   46.2350   -7.2575 C   0  0  0  0  0  0
   17.3841   45.9120   -8.3271 C   0  0  0  0  0  0
   18.1863   47.5632   -6.5920 C   0  0  0  0  0  0
   18.4578   47.7414   -5.4057 O   0  0  0  0  0  0
   17.7759   48.7617   -7.4437 C   0  0  0  0  0  0
   20.1539   42.9449   -6.8050 C   0  0  0  0  0  0
   20.5842   43.0533   -5.6566 O   0  0  0  0  0  0
   20.5611   41.9820   -7.6519 N   0  0  0  0  0  0
   23.4932   39.7502   -8.0388 O   0  0  0  0  0  0
   21.9679   40.2212   -9.3313 H   0  0  0  0  0  0
   22.1289   41.2393   -6.4769 H   0  0  0  0  0  0
   28.7374   46.9202   -7.8519 H   0  0  0  0  0  0
   27.2913   46.6172   -8.8086 H   0  0  0  0  0  0
   28.8861   46.3760   -9.5167 H   0  0  0  0  0  0
   29.3447   44.5344   -7.9340 H   0  0  0  0  0  0
   28.0116   45.2620   -6.0173 H   0  0  0  0  0  0
   27.5765   43.6152   -6.4412 H   0  0  0  0  0  0
   26.5097   44.9468   -6.8718 H   0  0  0  0  0  0
   29.7326   43.0369   -9.6594 H   0  0  0  0  0  0
   28.8953   41.5055  -11.4192 H   0  0  0  0  0  0
   26.4912   41.4554  -11.9876 H   0  0  0  0  0  0
   25.7184   44.4858   -9.0216 H   0  0  0  0  0  0
   24.7582   43.7759  -12.9599 H   0  0  0  0  0  0
   23.2195   42.7877  -12.7657 H   0  0  0  0  0  0
   22.5768   44.1666  -10.8187 H   0  0  0  0  0  0
   24.1174   45.1539  -10.9858 H   0  0  0  0  0  0
   24.3990   40.9820  -10.4007 H   0  0  0  0  0  0
   22.5868   42.7820   -8.9798 H   0  0  0  0  0  0
   24.0733   42.1755   -8.3105 H   0  0  0  0  0  0
   21.4430   38.8263   -6.6689 H   0  0  0  0  0  0
   20.2664   39.8531   -5.9167 H   0  0  0  0  0  0
   21.0654   38.0615   -9.0955 H   0  0  0  0  0  0
   19.3284   37.3505  -10.7151 H   0  0  0  0  0  0
   16.9748   37.9239  -10.3618 H   0  0  0  0  0  0
   18.0436   40.1512   -6.8341 H   0  0  0  0  0  0
   14.9760   38.6003   -9.8601 H   0  0  0  0  0  0
   14.1312   39.8076   -8.9450 H   0  0  0  0  0  0
   16.4638   40.4102  -10.8312 H   0  0  0  0  0  0
   14.7873   40.6930  -11.1886 H   0  0  0  0  0  0
   14.6010   42.4264   -9.5075 H   0  0  0  0  0  0
   16.0987   41.9683   -8.7514 H   0  0  0  0  0  0
   17.3670   42.6798  -10.8392 H   0  0  0  0  0  0
   15.8567   43.1952  -11.5373 H   0  0  0  0  0  0
   15.8229   45.0793  -10.2004 H   0  0  0  0  0  0
   18.3406   42.6722   -8.8575 H   0  0  0  0  0  0
   19.7831   45.4880   -5.9380 H   0  0  0  0  0  0
   16.6871   46.6502   -8.6959 H   0  0  0  0  0  0
   16.7137   48.7214   -7.6853 H   0  0  0  0  0  0
   18.3481   48.7832   -8.3738 H   0  0  0  0  0  0
   17.9704   49.6894   -6.9031 H   0  0  0  0  0  0
   20.1227   41.9455   -8.5578 H   0  0  0  0  0  0
   23.8558   39.2483   -8.7626 H   0  0  0  0  0  0
   22.9872   41.5592  -10.9899 H   0  0  0  0  0  0
  1  2  1  0  0  0
  1 45  1  0  0  0
  1 46  1  0  0  0
  1 47  1  0  0  0
  2  3  1  0  0  0
  2  4  1  0  0  0
  2 48  1  0  0  0
  3 49  1  0  0  0
  3 50  1  0  0  0
  3 51  1  0  0  0
  4  9  1  0  0  0
  4  5  2  0  0  0
  5  6  1  0  0  0
  5 52  1  0  0  0
  6  7  2  0  0  0
  6 53  1  0  0  0
  7  8  1  0  0  0
  7 54  1  0  0  0
  8  9  2  0  0  0
  8 10  1  0  0  0
  9 55  1  0  0  0
 10 12  1  0  0  0
 10 11  1  0  0  0
 10 13  1  0  0  0
 11 12  1  0  0  0
 11 56  1  0  0  0
 11 57  1  0  0  0
 12 58  1  0  0  0
 12 59  1  0  0  0
 13 14  1  0  0  0
 13 60  1  0  0  0
 13 86  1  0  0  0
 14 15  1  0  0  0
 14 61  1  0  0  0
 14 62  1  0  0  0
 15 43  1  0  0  0
 15 16  1  0  0  0
 15 42  1  0  0  0
 16 44  1  0  0  0
 16 41  1  0  0  0
 16 17  1  0  0  0
 17 18  1  0  0  0
 17 63  1  0  0  0
 17 64  1  0  0  0
 18 23  1  0  0  0
 18 19  2  0  0  0
 19 20  1  0  0  0
 19 65  1  0  0  0
 20 21  2  0  0  0
 20 66  1  0  0  0
 21 22  1  0  0  0
 21 67  1  0  0  0
 22 23  2  0  0  0
 22 24  1  0  0  0
 23 68  1  0  0  0
 24 25  1  0  0  0
 25 26  1  0  0  0
 25 69  1  0  0  0
 25 70  1  0  0  0
 26 27  1  0  0  0
 26 71  1  0  0  0
 26 72  1  0  0  0
 27 28  1  0  0  0
 27 73  1  0  0  0
 27 74  1  0  0  0
 28 29  1  0  0  0
 28 75  1  0  0  0
 28 76  1  0  0  0
 29 30  1  0  0  0
 29 77  1  0  0  0
 30 35  1  0  0  0
 30 31  2  0  0  0
 31 32  1  0  0  0
 31 78  1  0  0  0
 32 33  2  0  0  0
 32 39  1  0  0  0
 33 34  1  0  0  0
 33 79  1  0  0  0
 34 35  2  0  0  0
 34 36  1  0  0  0
 35 80  1  0  0  0
 36 37  2  0  0  0
 36 38  1  0  0  0
 38 81  1  0  0  0
 38 82  1  0  0  0
 38 83  1  0  0  0
 39 40  2  0  0  0
 39 41  1  0  0  0
 41 84  1  0  0  0
 42 85  1  0  0  0
M  CHG  1  13   1
M  END
> <s_m_source_file>
BACE_14.smi

> <i_m_source_file_index>
1

> <i_lp_mmshare_version>
42013

> <i_f3d_flags>
0

> <s_epik_input>
W0NIM11bQ0hdKFtDSDNdKWMxW2NIXVtjSF1bY0hdYyhbY0hdMSlDMihbQ0gyXVtDSDJdMilbTkhdW0NIMl1bQ0BASF0oW09IXSlbQ0BIXShbQ0gyXTMpW05IXUMoPU8pYyhbY0hdYyhbY0hdNClDKD1PKVtDSDNdKVtjSF1jNFtOSF1bQ0gyXVtDSDJdW0NIMl1bQ0gyXU9jKFtjSF01KVtjSF1bY0hdW2NIXWMzNQ==

> <s_epik_cmdline>
J2VwaWtfcHl0aG9uJywgJy1waCcsICc3LjAnLCAnLXRuJywgJzgnLCAnLW1hJywgJzIwMCcsICctaW1hZScsICc8aW5maWxlLm1hZT4nLCAnLW9tYWUnLCAnPG91dGZpbGUubWFlPic=

> <r_lp_tautomer_probability>
0.99995

> <r_epik_Ionization_Penalty>
  0.5137

> <r_epik_Ionization_Penalty_Charging>
  0.5137

> <r_epik_Ionization_Penalty_Neutral>
  0.0000

> <r_epik_State_Penalty>
  0.5212

> <r_epik_Charging_Adjusted_Penalty>
1.03485

> <i_epik_Tot_Q>
1

> <i_epik_Tot_abs_Q>
1

> <s_lp_Force_Field>
OPLS_2005

> <r_lp_Energy>
46.5551

> <b_lp_Chiralities_Consistent>
1

> <s_lp_Variant>
BACE_14.smi:1-2

> <chiral flag>
1

> <version>
0

> <r_i_glide_lipo>
-0.49017

> <r_i_glide_hbond>
-0.608

> <r_i_glide_metal>
-0

> <r_i_glide_rewards>
0

> <r_i_glide_erotb>
0.229446

> <r_i_glide_esite>
-0.0798175

> <chiral flag>
1

> <s_i_glide_gridfile>
second_dock_grid_2

> <i_i_glide_lignum>
29

> <i_i_glide_rotatable_bonds>
8

> <r_i_docking_score>
-1.95439

> <r_i_glide_ligand_efficiency>
-0.0465332

> <r_i_glide_ligand_efficiency_sa>
-0.161751

> <r_i_glide_ligand_efficiency_ln>
-0.412522

> <r_glide_XP_GScore>
-2.47559

> <r_i_glide_gscore>
-2.47559

> <r_i_glide_evdw>
-44.8994

> <r_i_glide_ecoul>
-9.66498

> <r_i_glide_energy>
-54.5644

> <r_i_glide_einternal>
2.72304

> <r_i_glide_emodel>
-78.3496

> <r_glide_XP_HBond>
-1.23713

> <i_i_glide_confnum>
1

> <i_i_glide_posenum>
67

> <r_i_glide_eff_state_penalty>
0.5212

> <i_glide_XP_PoseRank>
8

$$$$
BACE_15.smi:1
                    3D
 Structure written by MMmdl.
 83 86  0  0  1  0            999 V2000
   20.4175   38.5472   -7.2046 C   0  0  0  0  0  0
   19.7223   38.2349   -8.5393 C   0  0  0  0  0  0
   20.1605   39.2218   -9.6333 C   0  0  0  0  0  0
   18.1998   38.1706   -8.4465 C   0  0  0  0  0  0
   17.4823   37.3489   -9.3382 C   0  0  0  0  0  0
   16.0746   37.3632   -9.3517 C   0  0  0  0  0  0
   15.3663   38.2134   -8.4795 C   0  0  0  0  0  0
   16.0734   39.0203   -7.5684 C   0  0  0  0  0  0
   17.4829   38.9631   -7.5257 C   0  0  0  0  0  0
   15.3336   39.9868   -6.6620 C   0  0  0  0  0  0
   15.2601   41.3499   -7.2478 N   0  3  0  0  0  0
   16.5510   41.9425   -7.7004 C   0  0  0  0  0  0
   16.4786   43.3408   -8.3731 C   0  0  2  0  0  0
   17.3459   44.4467   -7.7003 C   0  0  2  0  0  0
   17.6034   45.6830   -8.6008 C   0  0  0  0  0  0
   18.5889   46.6755   -7.9920 C   0  0  0  0  0  0
   18.1993   47.4741   -6.8971 C   0  0  0  0  0  0
   19.1291   48.3321   -6.2817 C   0  0  0  0  0  0
   20.4521   48.3885   -6.7504 C   0  0  0  0  0  0
   20.8636   47.5982   -7.8430 C   0  0  0  0  0  0
   19.9140   46.7575   -8.4788 C   0  0  0  0  0  0
   22.1908   47.6968   -8.2015 O   0  0  0  0  0  0
   22.7263   46.8208   -9.1872 C   0  0  0  0  0  0
   24.2416   46.7269   -8.9487 C   0  0  0  0  0  0
   24.5881   45.9169   -7.6844 C   0  0  0  0  0  0
   24.7849   44.4098   -7.9469 C   0  0  0  0  0  0
   24.5470   43.6566   -6.7607 O   0  0  0  0  0  0
   23.2477   43.3788   -6.3824 C   0  0  0  0  0  0
   23.0404   42.9621   -5.0502 C   0  0  0  0  0  0
   21.7461   42.6768   -4.5719 C   0  0  0  0  0  0
   20.6459   42.7919   -5.4436 C   0  0  0  0  0  0
   20.8252   43.2208   -6.7759 C   0  0  0  0  0  0
   22.1269   43.4860   -7.2442 C   0  0  0  0  0  0
   19.6447   43.4045   -7.6830 C   0  0  0  0  0  0
   19.6990   43.1566   -8.8873 O   0  0  0  0  0  0
   18.5832   43.9620   -7.0821 N   0  0  0  0  0  0
   21.5318   42.2328   -3.1349 C   0  0  0  0  0  0
   20.2242   42.5495   -2.6762 O   0  0  0  0  0  0
   19.9672   42.1113   -1.3560 C   0  0  0  0  0  0
   15.1405   43.8002   -8.4393 O   0  0  0  0  0  0
   16.8199   43.2166   -9.4030 H   0  0  0  0  0  0
   16.7812   44.8010   -6.8407 H   0  0  0  0  0  0
   20.0977   37.8427   -6.4398 H   0  0  0  0  0  0
   20.2072   39.5591   -6.8493 H   0  0  0  0  0  0
   21.5026   38.4591   -7.2978 H   0  0  0  0  0  0
   20.0608   37.2436   -8.8408 H   0  0  0  0  0  0
   19.7431   38.9471  -10.6014 H   0  0  0  0  0  0
   21.2481   39.2424   -9.7342 H   0  0  0  0  0  0
   19.8296   40.2363   -9.4025 H   0  0  0  0  0  0
   18.0120   36.7225  -10.0398 H   0  0  0  0  0  0
   15.5330   36.7330  -10.0402 H   0  0  0  0  0  0
   14.2855   38.2360   -8.5085 H   0  0  0  0  0  0
   18.0065   39.6011   -6.8240 H   0  0  0  0  0  0
   14.3195   39.6244   -6.4839 H   0  0  0  0  0  0
   15.8096   40.0233   -5.6835 H   0  0  0  0  0  0
   14.6211   41.3319   -8.0265 H   0  0  0  0  0  0
   17.2108   41.9388   -6.8458 H   0  0  0  0  0  0
   17.0079   41.2969   -8.4466 H   0  0  0  0  0  0
   17.9866   45.3595   -9.5695 H   0  0  0  0  0  0
   16.6638   46.1956   -8.8054 H   0  0  0  0  0  0
   17.1925   47.4151   -6.5164 H   0  0  0  0  0  0
   18.8332   48.9373   -5.4372 H   0  0  0  0  0  0
   21.1654   49.0321   -6.2588 H   0  0  0  0  0  0
   20.1918   46.1395   -9.3203 H   0  0  0  0  0  0
   22.3030   45.8202   -9.1425 H   0  0  0  0  0  0
   22.5171   47.2260  -10.1762 H   0  0  0  0  0  0
   24.7346   46.2870   -9.8179 H   0  0  0  0  0  0
   24.6431   47.7373   -8.8574 H   0  0  0  0  0  0
   25.5046   46.3085   -7.2379 H   0  0  0  0  0  0
   23.8124   46.0719   -6.9332 H   0  0  0  0  0  0
   24.2042   44.0508   -8.7952 H   0  0  0  0  0  0
   25.8222   44.2404   -8.2400 H   0  0  0  0  0  0
   23.8914   42.8788   -4.3879 H   0  0  0  0  0  0
   19.6606   42.5542   -5.0763 H   0  0  0  0  0  0
   22.2300   43.7845   -8.2757 H   0  0  0  0  0  0
   18.6829   44.1289   -6.0925 H   0  0  0  0  0  0
   21.7021   41.1562   -3.0763 H   0  0  0  0  0  0
   22.2715   42.7185   -2.4965 H   0  0  0  0  0  0
   18.9565   42.4011   -1.0676 H   0  0  0  0  0  0
   20.6616   42.5664   -0.6495 H   0  0  0  0  0  0
   20.0380   41.0256   -1.2775 H   0  0  0  0  0  0
   14.8610   43.9709   -7.5514 H   0  0  0  0  0  0
   14.8685   41.9394   -6.5136 H   0  0  0  0  0  0
  1  2  1  0  0  0
  1 43  1  0  0  0
  1 44  1  0  0  0
  1 45  1  0  0  0
  2  3  1  0  0  0
  2  4  1  0  0  0
  2 46  1  0  0  0
  3 47  1  0  0  0
  3 48  1  0  0  0
  3 49  1  0  0  0
  4  9  1  0  0  0
  4  5  2  0  0  0
  5  6  1  0  0  0
  5 50  1  0  0  0
  6  7  2  0  0  0
  6 51  1  0  0  0
  7  8  1  0  0  0
  7 52  1  0  0  0
  8  9  2  0  0  0
  8 10  1  0  0  0
  9 53  1  0  0  0
 10 11  1  0  0  0
 10 54  1  0  0  0
 10 55  1  0  0  0
 11 12  1  0  0  0
 11 56  1  0  0  0
 11 83  1  0  0  0
 12 13  1  0  0  0
 12 57  1  0  0  0
 12 58  1  0  0  0
 13 41  1  0  0  0
 13 14  1  0  0  0
 13 40  1  0  0  0
 14 42  1  0  0  0
 14 36  1  0  0  0
 14 15  1  0  0  0
 15 16  1  0  0  0
 15 59  1  0  0  0
 15 60  1  0  0  0
 16 21  1  0  0  0
 16 17  2  0  0  0
 17 18  1  0  0  0
 17 61  1  0  0  0
 18 19  2  0  0  0
 18 62  1  0  0  0
 19 20  1  0  0  0
 19 63  1  0  0  0
 20 21  2  0  0  0
 20 22  1  0  0  0
 21 64  1  0  0  0
 22 23  1  0  0  0
 23 24  1  0  0  0
 23 65  1  0  0  0
 23 66  1  0  0  0
 24 25  1  0  0  0
 24 67  1  0  0  0
 24 68  1  0  0  0
 25 26  1  0  0  0
 25 69  1  0  0  0
 25 70  1  0  0  0
 26 27  1  0  0  0
 26 71  1  0  0  0
 26 72  1  0  0  0
 27 28  1  0  0  0
 28 33  1  0  0  0
 28 29  2  0  0  0
 29 30  1  0  0  0
 29 73  1  0  0  0
 30 31  2  0  0  0
 30 37  1  0  0  0
 31 32  1  0  0  0
 31 74  1  0  0  0
 32 33  2  0  0  0
 32 34  1  0  0  0
 33 75  1  0  0  0
 34 35  2  0  0  0
 34 36  1  0  0  0
 36 76  1  0  0  0
 37 38  1  0  0  0
 37 77  1  0  0  0
 37 78  1  0  0  0
 38 39  1  0  0  0
 39 79  1  0  0  0
 39 80  1  0  0  0
 39 81  1  0  0  0
 40 82  1  0  0  0
M  CHG  1  11   1
M  END
> <s_m_source_file>
BACE_15.smi

> <i_m_source_file_index>
1

> <i_lp_mmshare_version>
42013

> <i_f3d_flags>
0

> <s_epik_input>
W0NIM11bQ0hdKFtDSDNdKWMxW2NIXVtjSF1bY0hdYyhbY0hdMSlbQ0gyXVtOSF1bQ0gyXVtDQEBIXShbT0hdKVtDQEhdKFtDSDJdMilbTkhdQyg9TyljKFtjSF0zKVtjSF1jKFtDSDJdT1tDSDNdKVtjSF1jM09bQ0gyXVtDSDJdW0NIMl1bQ0gyXU9jKFtjSF00KVtjSF1bY0hdW2NIXWMyNA==

> <s_epik_cmdline>
J2VwaWtfcHl0aG9uJywgJy1waCcsICc3LjAnLCAnLXRuJywgJzgnLCAnLW1hJywgJzIwMCcsICctaW1hZScsICc8aW5maWxlLm1hZT4nLCAnLW9tYWUnLCAnPG91dGZpbGUubWFlPic=

> <r_lp_tautomer_probability>
1

> <r_epik_Ionization_Penalty>
  0.0191

> <r_epik_Ionization_Penalty_Charging>
  0.0191

> <r_epik_Ionization_Penalty_Neutral>
  0.0000

> <r_epik_State_Penalty>
  0.0153

> <r_epik_Charging_Adjusted_Penalty>
0.0343718

> <i_epik_Tot_Q>
1

> <i_epik_Tot_abs_Q>
1

> <s_lp_Force_Field>
OPLS_2005

> <r_lp_Energy>
33.7913

> <b_lp_Chiralities_Consistent>
1

> <s_lp_Variant>
BACE_15.smi:1-1

> <chiral flag>
1

> <version>
0

> <r_i_glide_lipo>
-0.820015

> <r_i_glide_hbond>
-0.772492

> <r_i_glide_metal>
-0

> <r_i_glide_rewards>
0

> <r_i_glide_erotb>
0.414375

> <r_i_glide_esite>
-0.00639835

> <chiral flag>
1

> <s_i_glide_gridfile>
second_dock_grid_2

> <i_i_glide_lignum>
30

> <i_i_glide_rotatable_bonds>
9

> <r_i_docking_score>
-5.70614

> <r_i_glide_ligand_efficiency>
-0.142653

> <r_i_glide_ligand_efficiency_sa>
-0.487868

> <r_i_glide_ligand_efficiency_ln>
-1.21695

> <r_glide_XP_GScore>
-5.72144

> <r_i_glide_gscore>
-5.72144

> <r_i_glide_evdw>
-43.5474

> <r_i_glide_ecoul>
-10.9152

> <r_i_glide_energy>
-54.4626

> <r_i_glide_einternal>
4.93218

> <r_i_glide_emodel>
-75.9664

> <r_glide_XP_HBond>
-1.01671

> <i_i_glide_confnum>
1

> <i_i_glide_posenum>
2

> <r_i_glide_eff_state_penalty>
0.0153

> <i_glide_XP_PoseRank>
1

$$$$
BACE_15.smi:1
                    3D
 Structure written by MMmdl.
 83 86  0  0  1  0            999 V2000
   20.1146   38.3587   -7.6174 C   0  0  0  0  0  0
   19.2989   37.9976   -8.8702 C   0  0  0  0  0  0
   19.7896   38.8114  -10.0781 C   0  0  0  0  0  0
   17.7875   38.1312   -8.7012 C   0  0  0  0  0  0
   16.9271   37.5246   -9.6399 C   0  0  0  0  0  0
   15.5347   37.7108   -9.5806 C   0  0  0  0  0  0
   14.9819   38.5362   -8.5905 C   0  0  0  0  0  0
   15.8267   39.1249   -7.6367 C   0  0  0  0  0  0
   17.2182   38.8959   -7.6634 C   0  0  0  0  0  0
   15.2550   40.1059   -6.6471 C   0  0  0  0  0  0
   15.2622   41.4618   -7.2400 N   0  3  0  0  0  0
   16.5905   41.9615   -7.6853 C   0  0  0  0  0  0
   16.6216   43.3773   -8.3215 C   0  0  2  0  0  0
   17.5143   44.4205   -7.5906 C   0  0  2  0  0  0
   17.7855   45.6844   -8.4479 C   0  0  0  0  0  0
   18.7288   46.6824   -7.7919 C   0  0  0  0  0  0
   18.2787   47.4645   -6.7089 C   0  0  0  0  0  0
   19.1593   48.3508   -6.0683 C   0  0  0  0  0  0
   20.4906   48.4622   -6.5078 C   0  0  0  0  0  0
   20.9578   47.6977   -7.5965 C   0  0  0  0  0  0
   20.0609   46.8142   -8.2463 C   0  0  0  0  0  0
   22.2835   47.8729   -7.9341 O   0  0  0  0  0  0
   22.8683   47.0868   -8.9647 C   0  0  0  0  0  0
   24.3752   47.0166   -8.6772 C   0  0  0  0  0  0
   24.6915   46.1400   -7.4507 C   0  0  0  0  0  0
   24.9176   44.6583   -7.7984 C   0  0  0  0  0  0
   24.7082   43.8396   -6.6502 O   0  0  0  0  0  0
   23.4247   43.4619   -6.3062 C   0  0  0  0  0  0
   23.2582   42.8666   -5.0388 C   0  0  0  0  0  0
   21.9975   42.3861   -4.6185 C   0  0  0  0  0  0
   20.8824   42.5391   -5.4661 C   0  0  0  0  0  0
   21.0135   43.1745   -6.7201 C   0  0  0  0  0  0
   22.2861   43.6120   -7.1395 C   0  0  0  0  0  0
   19.8236   43.3904   -7.6126 C   0  0  0  0  0  0
   19.8911   43.2311   -8.8307 O   0  0  0  0  0  0
   18.7449   43.8842   -6.9865 N   0  0  0  0  0  0
   21.8534   41.6819   -3.2777 C   0  0  0  0  0  0
   21.4811   42.5444   -2.2109 O   0  0  0  0  0  0
   20.0949   42.8490   -2.1678 C   0  0  0  0  0  0
   15.3107   43.9049   -8.4398 O   0  0  0  0  0  0
   17.0039   43.2695   -9.3381 H   0  0  0  0  0  0
   16.9492   44.7420   -6.7213 H   0  0  0  0  0  0
   19.7926   37.7792   -6.7532 H   0  0  0  0  0  0
   20.0314   39.4160   -7.3651 H   0  0  0  0  0  0
   21.1713   38.1496   -7.7748 H   0  0  0  0  0  0
   19.4886   36.9501   -9.0911 H   0  0  0  0  0  0
   19.2936   38.5030  -10.9975 H   0  0  0  0  0  0
   20.8603   38.6769  -10.2309 H   0  0  0  0  0  0
   19.6050   39.8777   -9.9409 H   0  0  0  0  0  0
   17.3515   36.9408  -10.4392 H   0  0  0  0  0  0
   14.8744   37.2442  -10.3017 H   0  0  0  0  0  0
   13.9150   38.7155   -8.5701 H   0  0  0  0  0  0
   17.8383   39.3833   -6.9259 H   0  0  0  0  0  0
   14.2289   39.8198   -6.4143 H   0  0  0  0  0  0
   15.8059   40.0891   -5.7087 H   0  0  0  0  0  0
   14.6324   41.4679   -8.0307 H   0  0  0  0  0  0
   17.2678   41.8884   -6.8455 H   0  0  0  0  0  0
   16.9933   41.3026   -8.4530 H   0  0  0  0  0  0
   18.2001   45.3945   -9.4136 H   0  0  0  0  0  0
   16.8484   46.1922   -8.6735 H   0  0  0  0  0  0
   17.2598   47.3803   -6.3663 H   0  0  0  0  0  0
   18.8245   48.9481   -5.2367 H   0  0  0  0  0  0
   21.1645   49.1388   -6.0032 H   0  0  0  0  0  0
   20.3734   46.2100   -9.0842 H   0  0  0  0  0  0
   22.4771   46.0737   -9.0180 H   0  0  0  0  0  0
   22.6825   47.5665   -9.9261 H   0  0  0  0  0  0
   24.9104   46.6419   -9.5498 H   0  0  0  0  0  0
   24.7461   48.0283   -8.5080 H   0  0  0  0  0  0
   25.5868   46.5133   -6.9534 H   0  0  0  0  0  0
   23.8926   46.2371   -6.7137 H   0  0  0  0  0  0
   24.3342   44.3335   -8.6608 H   0  0  0  0  0  0
   25.9547   44.5302   -8.1078 H   0  0  0  0  0  0
   24.1184   42.7503   -4.3958 H   0  0  0  0  0  0
   19.9279   42.1506   -5.1513 H   0  0  0  0  0  0
   22.3574   44.0639   -8.1143 H   0  0  0  0  0  0
   18.8300   43.9740   -5.9876 H   0  0  0  0  0  0
   21.1556   40.8487   -3.3614 H   0  0  0  0  0  0
   22.8148   41.2376   -3.0235 H   0  0  0  0  0  0
   19.8934   43.5229   -1.3346 H   0  0  0  0  0  0
   19.4936   41.9500   -2.0340 H   0  0  0  0  0  0
   19.7700   43.3537   -3.0735 H   0  0  0  0  0  0
   15.0019   44.0867   -7.5629 H   0  0  0  0  0  0
   14.8994   42.0858   -6.5208 H   0  0  0  0  0  0
  1  2  1  0  0  0
  1 43  1  0  0  0
  1 44  1  0  0  0
  1 45  1  0  0  0
  2  3  1  0  0  0
  2  4  1  0  0  0
  2 46  1  0  0  0
  3 47  1  0  0  0
  3 48  1  0  0  0
  3 49  1  0  0  0
  4  9  1  0  0  0
  4  5  2  0  0  0
  5  6  1  0  0  0
  5 50  1  0  0  0
  6  7  2  0  0  0
  6 51  1  0  0  0
  7  8  1  0  0  0
  7 52  1  0  0  0
  8  9  2  0  0  0
  8 10  1  0  0  0
  9 53  1  0  0  0
 10 11  1  0  0  0
 10 54  1  0  0  0
 10 55  1  0  0  0
 11 12  1  0  0  0
 11 56  1  0  0  0
 11 83  1  0  0  0
 12 13  1  0  0  0
 12 57  1  0  0  0
 12 58  1  0  0  0
 13 41  1  0  0  0
 13 14  1  0  0  0
 13 40  1  0  0  0
 14 42  1  0  0  0
 14 36  1  0  0  0
 14 15  1  0  0  0
 15 16  1  0  0  0
 15 59  1  0  0  0
 15 60  1  0  0  0
 16 21  1  0  0  0
 16 17  2  0  0  0
 17 18  1  0  0  0
 17 61  1  0  0  0
 18 19  2  0  0  0
 18 62  1  0  0  0
 19 20  1  0  0  0
 19 63  1  0  0  0
 20 21  2  0  0  0
 20 22  1  0  0  0
 21 64  1  0  0  0
 22 23  1  0  0  0
 23 24  1  0  0  0
 23 65  1  0  0  0
 23 66  1  0  0  0
 24 25  1  0  0  0
 24 67  1  0  0  0
 24 68  1  0  0  0
 25 26  1  0  0  0
 25 69  1  0  0  0
 25 70  1  0  0  0
 26 27  1  0  0  0
 26 71  1  0  0  0
 26 72  1  0  0  0
 27 28  1  0  0  0
 28 33  1  0  0  0
 28 29  2  0  0  0
 29 30  1  0  0  0
 29 73  1  0  0  0
 30 31  2  0  0  0
 30 37  1  0  0  0
 31 32  1  0  0  0
 31 74  1  0  0  0
 32 33  2  0  0  0
 32 34  1  0  0  0
 33 75  1  0  0  0
 34 35  2  0  0  0
 34 36  1  0  0  0
 36 76  1  0  0  0
 37 38  1  0  0  0
 37 77  1  0  0  0
 37 78  1  0  0  0
 38 39  1  0  0  0
 39 79  1  0  0  0
 39 80  1  0  0  0
 39 81  1  0  0  0
 40 82  1  0  0  0
M  CHG  1  11   1
M  END
> <s_m_source_file>
BACE_15.smi

> <i_m_source_file_index>
1

> <i_lp_mmshare_version>
42013

> <i_f3d_flags>
0

> <s_epik_input>
W0NIM11bQ0hdKFtDSDNdKWMxW2NIXVtjSF1bY0hdYyhbY0hdMSlbQ0gyXVtOSF1bQ0gyXVtDQEBIXShbT0hdKVtDQEhdKFtDSDJdMilbTkhdQyg9TyljKFtjSF0zKVtjSF1jKFtDSDJdT1tDSDNdKVtjSF1jM09bQ0gyXVtDSDJdW0NIMl1bQ0gyXU9jKFtjSF00KVtjSF1bY0hdW2NIXWMyNA==

> <s_epik_cmdline>
J2VwaWtfcHl0aG9uJywgJy1waCcsICc3LjAnLCAnLXRuJywgJzgnLCAnLW1hJywgJzIwMCcsICctaW1hZScsICc8aW5maWxlLm1hZT4nLCAnLW9tYWUnLCAnPG91dGZpbGUubWFlPic=

> <r_lp_tautomer_probability>
1

> <r_epik_Ionization_Penalty>
  0.0191

> <r_epik_Ionization_Penalty_Charging>
  0.0191

> <r_epik_Ionization_Penalty_Neutral>
  0.0000

> <r_epik_State_Penalty>
  0.0153

> <r_epik_Charging_Adjusted_Penalty>
0.0343718

> <i_epik_Tot_Q>
1

> <i_epik_Tot_abs_Q>
1

> <s_lp_Force_Field>
OPLS_2005

> <r_lp_Energy>
33.7913

> <b_lp_Chiralities_Consistent>
1

> <s_lp_Variant>
BACE_15.smi:1-1

> <chiral flag>
1

> <version>
0

> <r_i_glide_lipo>
-0.820015

> <r_i_glide_hbond>
-0.772492

> <r_i_glide_metal>
-0

> <r_i_glide_rewards>
0

> <r_i_glide_erotb>
0.414375

> <r_i_glide_esite>
-0.00639835

> <chiral flag>
1

> <s_i_glide_gridfile>
second_dock_grid_2

> <i_i_glide_lignum>
30

> <i_i_glide_rotatable_bonds>
9

> <r_i_docking_score>
-4.71691

> <r_i_glide_ligand_efficiency>
-0.117923

> <r_i_glide_ligand_efficiency_sa>
-0.40329

> <r_i_glide_ligand_efficiency_ln>
-1.00598

> <r_glide_XP_GScore>
-4.73221

> <r_i_glide_gscore>
-4.73221

> <r_i_glide_evdw>
-41.6494

> <r_i_glide_ecoul>
-12.7313

> <r_i_glide_energy>
-54.3806

> <r_i_glide_einternal>
5.31859

> <r_i_glide_emodel>
-74.8513

> <r_glide_XP_HBond>
-1.01671

> <i_i_glide_confnum>
1

> <i_i_glide_posenum>
31

> <r_i_glide_eff_state_penalty>
0.0153

> <i_glide_XP_PoseRank>
2

$$$$
BACE_15.smi:1
                    3D
 Structure written by MMmdl.
 83 86  0  0  1  0            999 V2000
   17.0185   36.1404   -9.2573 C   0  0  0  0  0  0
   16.9276   37.6201   -8.8755 C   0  0  0  0  0  0
   16.4426   38.5099  -10.0283 C   0  0  0  0  0  0
   18.2475   38.1243   -8.3133 C   0  0  0  0  0  0
   18.2955   38.5527   -6.9757 C   0  0  0  0  0  0
   19.5030   39.0144   -6.4358 C   0  0  0  0  0  0
   20.6721   39.0552   -7.2123 C   0  0  0  0  0  0
   20.6348   38.6527   -8.5605 C   0  0  0  0  0  0
   19.4207   38.1698   -9.1038 C   0  0  0  0  0  0
   21.8951   38.7678   -9.4021 C   0  0  0  0  0  0
   21.8904   40.0234  -10.1836 N   0  3  0  0  0  0
   21.2064   39.9239  -11.4891 C   0  0  0  0  0  0
   20.4799   41.2140  -11.9183 C   0  0  2  0  0  0
   19.2239   41.6064  -11.0807 C   0  0  2  0  0  0
   18.3152   42.6411  -11.8178 C   0  0  0  0  0  0
   17.2033   43.2408  -10.9712 C   0  0  0  0  0  0
   16.1309   42.4320  -10.5444 C   0  0  0  0  0  0
   15.1330   42.9685   -9.7124 C   0  0  0  0  0  0
   15.2015   44.3159   -9.3158 C   0  0  0  0  0  0
   16.2527   45.1515   -9.7503 C   0  0  0  0  0  0
   17.2473   44.6025  -10.5972 C   0  0  0  0  0  0
   16.2286   46.4540   -9.2996 O   0  0  0  0  0  0
   17.3398   47.3141   -9.5383 C   0  0  0  0  0  0
   17.4115   48.3082   -8.3683 C   0  0  0  0  0  0
   17.7264   47.6210   -7.0266 C   0  0  0  0  0  0
   19.2229   47.5700   -6.6917 C   0  0  0  0  0  0
   19.4728   46.5274   -5.7545 O   0  0  0  0  0  0
   19.7869   45.2629   -6.2144 C   0  0  0  0  0  0
   20.1080   44.2973   -5.2411 C   0  0  0  0  0  0
   20.5033   42.9989   -5.6045 C   0  0  0  0  0  0
   20.5310   42.6324   -6.9621 C   0  0  0  0  0  0
   20.1749   43.5665   -7.9544 C   0  0  0  0  0  0
   19.8206   44.8798   -7.5781 C   0  0  0  0  0  0
   20.2046   43.1944   -9.4041 C   0  0  0  0  0  0
   20.7105   43.9489  -10.2349 O   0  0  0  0  0  0
   19.5698   42.0525   -9.7223 N   0  0  0  0  0  0
   20.8732   41.9935   -4.5336 C   0  0  0  0  0  0
   22.2281   41.5735   -4.6458 O   0  0  0  0  0  0
   22.5067   40.4789   -3.7890 C   0  0  0  0  0  0
   20.0603   40.9514  -13.2398 O   0  0  0  0  0  0
   21.1895   42.0407  -11.9679 H   0  0  0  0  0  0
   18.6206   40.7098  -10.9388 H   0  0  0  0  0  0
   17.2492   35.5283   -8.3863 H   0  0  0  0  0  0
   17.8027   35.9756   -9.9927 H   0  0  0  0  0  0
   16.0729   35.7927   -9.6735 H   0  0  0  0  0  0
   16.1757   37.6870   -8.0839 H   0  0  0  0  0  0
   16.2811   39.5240   -9.6669 H   0  0  0  0  0  0
   15.4972   38.1518  -10.4387 H   0  0  0  0  0  0
   17.1683   38.5553  -10.8390 H   0  0  0  0  0  0
   17.4066   38.5256   -6.3596 H   0  0  0  0  0  0
   19.5169   39.3375   -5.4069 H   0  0  0  0  0  0
   21.5908   39.4150   -6.7694 H   0  0  0  0  0  0
   19.3773   37.8286  -10.1259 H   0  0  0  0  0  0
   22.7585   38.7788   -8.7364 H   0  0  0  0  0  0
   22.0163   37.8958  -10.0395 H   0  0  0  0  0  0
   21.4364   40.7325   -9.6267 H   0  0  0  0  0  0
   21.9726   39.6982  -12.2314 H   0  0  0  0  0  0
   20.5072   39.0889  -11.5088 H   0  0  0  0  0  0
   18.9301   43.4495  -12.2136 H   0  0  0  0  0  0
   17.8472   42.1761  -12.6843 H   0  0  0  0  0  0
   16.0799   41.3970  -10.8445 H   0  0  0  0  0  0
   14.3204   42.3457   -9.3654 H   0  0  0  0  0  0
   14.4402   44.7088   -8.6599 H   0  0  0  0  0  0
   18.0692   45.2007  -10.9581 H   0  0  0  0  0  0
   18.2929   46.7958   -9.6062 H   0  0  0  0  0  0
   17.1842   47.8405  -10.4806 H   0  0  0  0  0  0
   18.1556   49.0767   -8.5782 H   0  0  0  0  0  0
   16.4596   48.8321   -8.2929 H   0  0  0  0  0  0
   17.2121   48.1378   -6.2166 H   0  0  0  0  0  0
   17.3177   46.6121   -7.0323 H   0  0  0  0  0  0
   19.8496   47.4993   -7.5794 H   0  0  0  0  0  0
   19.5099   48.5135   -6.2263 H   0  0  0  0  0  0
   20.0629   44.5484   -4.1949 H   0  0  0  0  0  0
   20.8348   41.6358   -7.2332 H   0  0  0  0  0  0
   19.5677   45.5716   -8.3620 H   0  0  0  0  0  0
   19.1357   41.5481   -8.9614 H   0  0  0  0  0  0
   20.6895   42.4202   -3.5411 H   0  0  0  0  0  0
   20.1995   41.1406   -4.6258 H   0  0  0  0  0  0
   23.5822   40.3632   -3.6458 H   0  0  0  0  0  0
   22.1065   39.5511   -4.1985 H   0  0  0  0  0  0
   22.0602   40.6320   -2.8131 H   0  0  0  0  0  0
   19.4684   40.2109  -13.2384 H   0  0  0  0  0  0
   22.8468   40.3067  -10.3517 H   0  0  0  0  0  0
  1  2  1  0  0  0
  1 43  1  0  0  0
  1 44  1  0  0  0
  1 45  1  0  0  0
  2  3  1  0  0  0
  2  4  1  0  0  0
  2 46  1  0  0  0
  3 47  1  0  0  0
  3 48  1  0  0  0
  3 49  1  0  0  0
  4  9  1  0  0  0
  4  5  2  0  0  0
  5  6  1  0  0  0
  5 50  1  0  0  0
  6  7  2  0  0  0
  6 51  1  0  0  0
  7  8  1  0  0  0
  7 52  1  0  0  0
  8  9  2  0  0  0
  8 10  1  0  0  0
  9 53  1  0  0  0
 10 11  1  0  0  0
 10 54  1  0  0  0
 10 55  1  0  0  0
 11 12  1  0  0  0
 11 56  1  0  0  0
 11 83  1  0  0  0
 12 13  1  0  0  0
 12 57  1  0  0  0
 12 58  1  0  0  0
 13 41  1  0  0  0
 13 14  1  0  0  0
 13 40  1  0  0  0
 14 42  1  0  0  0
 14 36  1  0  0  0
 14 15  1  0  0  0
 15 16  1  0  0  0
 15 59  1  0  0  0
 15 60  1  0  0  0
 16 21  1  0  0  0
 16 17  2  0  0  0
 17 18  1  0  0  0
 17 61  1  0  0  0
 18 19  2  0  0  0
 18 62  1  0  0  0
 19 20  1  0  0  0
 19 63  1  0  0  0
 20 21  2  0  0  0
 20 22  1  0  0  0
 21 64  1  0  0  0
 22 23  1  0  0  0
 23 24  1  0  0  0
 23 65  1  0  0  0
 23 66  1  0  0  0
 24 25  1  0  0  0
 24 67  1  0  0  0
 24 68  1  0  0  0
 25 26  1  0  0  0
 25 69  1  0  0  0
 25 70  1  0  0  0
 26 27  1  0  0  0
 26 71  1  0  0  0
 26 72  1  0  0  0
 27 28  1  0  0  0
 28 33  1  0  0  0
 28 29  2  0  0  0
 29 30  1  0  0  0
 29 73  1  0  0  0
 30 31  2  0  0  0
 30 37  1  0  0  0
 31 32  1  0  0  0
 31 74  1  0  0  0
 32 33  2  0  0  0
 32 34  1  0  0  0
 33 75  1  0  0  0
 34 35  2  0  0  0
 34 36  1  0  0  0
 36 76  1  0  0  0
 37 38  1  0  0  0
 37 77  1  0  0  0
 37 78  1  0  0  0
 38 39  1  0  0  0
 39 79  1  0  0  0
 39 80  1  0  0  0
 39 81  1  0  0  0
 40 82  1  0  0  0
M  CHG  1  11   1
M  END
> <s_m_source_file>
BACE_15.smi

> <i_m_source_file_index>
1

> <i_lp_mmshare_version>
42013

> <i_f3d_flags>
0

> <s_epik_input>
W0NIM11bQ0hdKFtDSDNdKWMxW2NIXVtjSF1bY0hdYyhbY0hdMSlbQ0gyXVtOSF1bQ0gyXVtDQEBIXShbT0hdKVtDQEhdKFtDSDJdMilbTkhdQyg9TyljKFtjSF0zKVtjSF1jKFtDSDJdT1tDSDNdKVtjSF1jM09bQ0gyXVtDSDJdW0NIMl1bQ0gyXU9jKFtjSF00KVtjSF1bY0hdW2NIXWMyNA==

> <s_epik_cmdline>
J2VwaWtfcHl0aG9uJywgJy1waCcsICc3LjAnLCAnLXRuJywgJzgnLCAnLW1hJywgJzIwMCcsICctaW1hZScsICc8aW5maWxlLm1hZT4nLCAnLW9tYWUnLCAnPG91dGZpbGUubWFlPic=

> <r_lp_tautomer_probability>
1

> <r_epik_Ionization_Penalty>
  0.0191

> <r_epik_Ionization_Penalty_Charging>
  0.0191

> <r_epik_Ionization_Penalty_Neutral>
  0.0000

> <r_epik_State_Penalty>
  0.0153

> <r_epik_Charging_Adjusted_Penalty>
0.0343718

> <i_epik_Tot_Q>
1

> <i_epik_Tot_abs_Q>
1

> <s_lp_Force_Field>
OPLS_2005

> <r_lp_Energy>
33.7913

> <b_lp_Chiralities_Consistent>
1

> <s_lp_Variant>
BACE_15.smi:1-1

> <chiral flag>
1

> <version>
0

> <r_i_glide_lipo>
-0.820015

> <r_i_glide_hbond>
-0.772492

> <r_i_glide_metal>
-0

> <r_i_glide_rewards>
0

> <r_i_glide_erotb>
0.414375

> <r_i_glide_esite>
-0.00639835

> <chiral flag>
1

> <s_i_glide_gridfile>
second_dock_grid_2

> <i_i_glide_lignum>
30

> <i_i_glide_rotatable_bonds>
9

> <r_i_docking_score>
-4.49203

> <r_i_glide_ligand_efficiency>
-0.112301

> <r_i_glide_ligand_efficiency_sa>
-0.384063

> <r_i_glide_ligand_efficiency_ln>
-0.958018

> <r_glide_XP_GScore>
-4.50733

> <r_i_glide_gscore>
-4.50733

> <r_i_glide_evdw>
-45.1372

> <r_i_glide_ecoul>
-8.72843

> <r_i_glide_energy>
-53.8656

> <r_i_glide_einternal>
5.22527

> <r_i_glide_emodel>
-78.9598

> <r_glide_XP_HBond>
-1.01671

> <i_i_glide_confnum>
1

> <i_i_glide_posenum>
1

> <r_i_glide_eff_state_penalty>
0.0153

> <i_glide_XP_PoseRank>
3

$$$$
BACE_15.smi:1
                    3D
 Structure written by MMmdl.
 83 86  0  0  1  0            999 V2000
   20.2362   38.4653   -7.3875 C   0  0  0  0  0  0
   19.5999   38.0333   -8.7173 C   0  0  0  0  0  0
   20.1828   38.7922   -9.9151 C   0  0  0  0  0  0
   18.0825   38.1417   -8.6890 C   0  0  0  0  0  0
   17.3214   37.4304   -9.6369 C   0  0  0  0  0  0
   15.9181   37.5055   -9.6267 C   0  0  0  0  0  0
   15.2607   38.3082   -8.6761 C   0  0  0  0  0  0
   16.0112   39.0413   -7.7336 C   0  0  0  0  0  0
   17.4198   38.9521   -7.7396 C   0  0  0  0  0  0
   15.3143   39.9535   -6.7462 C   0  0  0  0  0  0
   15.2616   41.3535   -7.2246 N   0  3  0  0  0  0
   16.5637   41.8839   -7.6976 C   0  0  0  0  0  0
   16.4320   43.2476   -8.4349 C   0  0  2  0  0  0
   17.1970   44.4337   -7.7823 C   0  0  2  0  0  0
   17.3150   45.6679   -8.7225 C   0  0  0  0  0  0
   18.2854   46.7371   -8.2331 C   0  0  0  0  0  0
   17.9912   47.4647   -7.0623 C   0  0  0  0  0  0
   18.8979   48.4231   -6.5765 C   0  0  0  0  0  0
   20.1073   48.6488   -7.2565 C   0  0  0  0  0  0
   20.4305   47.9189   -8.4179 C   0  0  0  0  0  0
   19.4992   46.9741   -8.9169 C   0  0  0  0  0  0
   21.6555   48.1872   -8.9858 O   0  0  0  0  0  0
   22.2145   47.2772   -9.9294 C   0  0  0  0  0  0
   23.7397   47.3334   -9.7544 C   0  0  0  0  0  0
   24.2055   46.6290   -8.4676 C   0  0  0  0  0  0
   24.5312   45.1384   -8.6773 C   0  0  0  0  0  0
   24.4853   44.4182   -7.4490 O   0  0  0  0  0  0
   23.2654   44.0119   -6.9443 C   0  0  0  0  0  0
   23.2495   43.5404   -5.6163 C   0  0  0  0  0  0
   22.0513   43.1099   -5.0108 C   0  0  0  0  0  0
   20.8513   43.1241   -5.7482 C   0  0  0  0  0  0
   20.8428   43.5939   -7.0779 C   0  0  0  0  0  0
   22.0483   44.0274   -7.6683 C   0  0  0  0  0  0
   19.5770   43.6205   -7.8785 C   0  0  0  0  0  0
   19.5778   43.3450   -9.0775 O   0  0  0  0  0  0
   18.4979   44.0593   -7.2111 N   0  0  0  0  0  0
   22.0639   42.5994   -3.5825 C   0  0  0  0  0  0
   22.2387   41.1905   -3.5174 O   0  0  0  0  0  0
   21.1376   40.4846   -4.0593 C   0  0  0  0  0  0
   15.0580   43.6020   -8.4585 O   0  0  0  0  0  0
   16.7696   43.1512   -9.4677 H   0  0  0  0  0  0
   16.6210   44.7537   -6.9128 H   0  0  0  0  0  0
   19.8159   37.8977   -6.5555 H   0  0  0  0  0  0
   20.0769   39.5248   -7.1852 H   0  0  0  0  0  0
   21.3128   38.2906   -7.3975 H   0  0  0  0  0  0
   19.8490   36.9795   -8.8553 H   0  0  0  0  0  0
   19.7577   38.4178  -10.8472 H   0  0  0  0  0  0
   21.2636   38.6670   -9.9734 H   0  0  0  0  0  0
   19.9717   39.8603   -9.8588 H   0  0  0  0  0  0
   17.8157   36.8202  -10.3753 H   0  0  0  0  0  0
   15.3504   36.9520  -10.3577 H   0  0  0  0  0  0
   14.1812   38.3678   -8.6856 H   0  0  0  0  0  0
   17.9983   39.5194   -7.0247 H   0  0  0  0  0  0
   14.3061   39.5746   -6.5775 H   0  0  0  0  0  0
   15.8369   39.9016   -5.7928 H   0  0  0  0  0  0
   14.5730   41.4304   -7.9587 H   0  0  0  0  0  0
   17.2325   41.9754   -6.8400 H   0  0  0  0  0  0
   17.0233   41.1220   -8.3269 H   0  0  0  0  0  0
   17.6324   45.3390   -9.7141 H   0  0  0  0  0  0
   16.3356   46.1242   -8.8648 H   0  0  0  0  0  0
   17.0750   47.2774   -6.5258 H   0  0  0  0  0  0
   18.6774   48.9764   -5.6755 H   0  0  0  0  0  0
   20.8081   49.3745   -6.8731 H   0  0  0  0  0  0
   19.7093   46.4084   -9.8106 H   0  0  0  0  0  0
   21.8785   46.2530   -9.7875 H   0  0  0  0  0  0
   21.9323   47.5671  -10.9406 H   0  0  0  0  0  0
   24.2338   46.8884  -10.6190 H   0  0  0  0  0  0
   24.0499   48.3791   -9.7343 H   0  0  0  0  0  0
   25.0964   47.1209   -8.0773 H   0  0  0  0  0  0
   23.4473   46.7454   -7.6918 H   0  0  0  0  0  0
   23.9043   44.6916   -9.4450 H   0  0  0  0  0  0
   25.5431   45.0535   -9.0711 H   0  0  0  0  0  0
   24.1721   43.5204   -5.0545 H   0  0  0  0  0  0
   19.9398   42.7705   -5.2875 H   0  0  0  0  0  0
   22.0077   44.3596   -8.6908 H   0  0  0  0  0  0
   18.6424   44.2914   -6.2390 H   0  0  0  0  0  0
   22.8735   43.1020   -3.0485 H   0  0  0  0  0  0
   21.1286   42.8765   -3.0934 H   0  0  0  0  0  0
   21.3236   39.4137   -3.9952 H   0  0  0  0  0  0
   20.9831   40.7385   -5.1093 H   0  0  0  0  0  0
   20.2206   40.7009   -3.5082 H   0  0  0  0  0  0
   14.6644   43.4282   -7.6047 H   0  0  0  0  0  0
   14.9547   41.9252   -6.4490 H   0  0  0  0  0  0
  1  2  1  0  0  0
  1 43  1  0  0  0
  1 44  1  0  0  0
  1 45  1  0  0  0
  2  3  1  0  0  0
  2  4  1  0  0  0
  2 46  1  0  0  0
  3 47  1  0  0  0
  3 48  1  0  0  0
  3 49  1  0  0  0
  4  9  1  0  0  0
  4  5  2  0  0  0
  5  6  1  0  0  0
  5 50  1  0  0  0
  6  7  2  0  0  0
  6 51  1  0  0  0
  7  8  1  0  0  0
  7 52  1  0  0  0
  8  9  2  0  0  0
  8 10  1  0  0  0
  9 53  1  0  0  0
 10 11  1  0  0  0
 10 54  1  0  0  0
 10 55  1  0  0  0
 11 12  1  0  0  0
 11 56  1  0  0  0
 11 83  1  0  0  0
 12 13  1  0  0  0
 12 57  1  0  0  0
 12 58  1  0  0  0
 13 41  1  0  0  0
 13 14  1  0  0  0
 13 40  1  0  0  0
 14 42  1  0  0  0
 14 36  1  0  0  0
 14 15  1  0  0  0
 15 16  1  0  0  0
 15 59  1  0  0  0
 15 60  1  0  0  0
 16 21  1  0  0  0
 16 17  2  0  0  0
 17 18  1  0  0  0
 17 61  1  0  0  0
 18 19  2  0  0  0
 18 62  1  0  0  0
 19 20  1  0  0  0
 19 63  1  0  0  0
 20 21  2  0  0  0
 20 22  1  0  0  0
 21 64  1  0  0  0
 22 23  1  0  0  0
 23 24  1  0  0  0
 23 65  1  0  0  0
 23 66  1  0  0  0
 24 25  1  0  0  0
 24 67  1  0  0  0
 24 68  1  0  0  0
 25 26  1  0  0  0
 25 69  1  0  0  0
 25 70  1  0  0  0
 26 27  1  0  0  0
 26 71  1  0  0  0
 26 72  1  0  0  0
 27 28  1  0  0  0
 28 33  1  0  0  0
 28 29  2  0  0  0
 29 30  1  0  0  0
 29 73  1  0  0  0
 30 31  2  0  0  0
 30 37  1  0  0  0
 31 32  1  0  0  0
 31 74  1  0  0  0
 32 33  2  0  0  0
 32 34  1  0  0  0
 33 75  1  0  0  0
 34 35  2  0  0  0
 34 36  1  0  0  0
 36 76  1  0  0  0
 37 38  1  0  0  0
 37 77  1  0  0  0
 37 78  1  0  0  0
 38 39  1  0  0  0
 39 79  1  0  0  0
 39 80  1  0  0  0
 39 81  1  0  0  0
 40 82  1  0  0  0
M  CHG  1  11   1
M  END
> <s_m_source_file>
BACE_15.smi

> <i_m_source_file_index>
1

> <i_lp_mmshare_version>
42013

> <i_f3d_flags>
0

> <s_epik_input>
W0NIM11bQ0hdKFtDSDNdKWMxW2NIXVtjSF1bY0hdYyhbY0hdMSlbQ0gyXVtOSF1bQ0gyXVtDQEBIXShbT0hdKVtDQEhdKFtDSDJdMilbTkhdQyg9TyljKFtjSF0zKVtjSF1jKFtDSDJdT1tDSDNdKVtjSF1jM09bQ0gyXVtDSDJdW0NIMl1bQ0gyXU9jKFtjSF00KVtjSF1bY0hdW2NIXWMyNA==

> <s_epik_cmdline>
J2VwaWtfcHl0aG9uJywgJy1waCcsICc3LjAnLCAnLXRuJywgJzgnLCAnLW1hJywgJzIwMCcsICctaW1hZScsICc8aW5maWxlLm1hZT4nLCAnLW9tYWUnLCAnPG91dGZpbGUubWFlPic=

> <r_lp_tautomer_probability>
1

> <r_epik_Ionization_Penalty>
  0.0191

> <r_epik_Ionization_Penalty_Charging>
  0.0191

> <r_epik_Ionization_Penalty_Neutral>
  0.0000

> <r_epik_State_Penalty>
  0.0153

> <r_epik_Charging_Adjusted_Penalty>
0.0343718

> <i_epik_Tot_Q>
1

> <i_epik_Tot_abs_Q>
1

> <s_lp_Force_Field>
OPLS_2005

> <r_lp_Energy>
33.7913

> <b_lp_Chiralities_Consistent>
1

> <s_lp_Variant>
BACE_15.smi:1-1

> <chiral flag>
1

> <version>
0

> <r_i_glide_lipo>
-0.820015

> <r_i_glide_hbond>
-0.772492

> <r_i_glide_metal>
-0

> <r_i_glide_rewards>
0

> <r_i_glide_erotb>
0.414375

> <r_i_glide_esite>
-0.00639835

> <chiral flag>
1

> <s_i_glide_gridfile>
second_dock_grid_2

> <i_i_glide_lignum>
30

> <i_i_glide_rotatable_bonds>
9

> <r_i_docking_score>
-3.51936

> <r_i_glide_ligand_efficiency>
-0.0879839

> <r_i_glide_ligand_efficiency_sa>
-0.300901

> <r_i_glide_ligand_efficiency_ln>
-0.750575

> <r_glide_XP_GScore>
-3.53466

> <r_i_glide_gscore>
-3.53466

> <r_i_glide_evdw>
-38.4165

> <r_i_glide_ecoul>
-12.4553

> <r_i_glide_energy>
-50.8718

> <r_i_glide_einternal>
5.56474

> <r_i_glide_emodel>
-73.5151

> <r_glide_XP_HBond>
-1.01671

> <i_i_glide_confnum>
1

> <i_i_glide_posenum>
12

> <r_i_glide_eff_state_penalty>
0.0153

> <i_glide_XP_PoseRank>
4

$$$$
