BACE_10.smi:1
                    3D
 Structure written by MMmdl.
 85 87  0  0  1  0            999 V2000
   21.3657   38.2947   -8.9974 C   0  0  0  0  0  0
   20.5206   39.3511   -9.7359 C   0  0  2  0  0  0
   19.4658   38.7115  -10.6557 C   0  0  0  0  0  0
   18.4492   37.7993   -9.9606 C   0  0  0  0  0  0
   17.6110   38.5487   -9.1003 O   0  0  0  0  0  0
   16.3458   37.9288   -8.9050 C   0  0  0  0  0  0
   15.4837   38.7209   -7.9161 C   0  0  0  0  0  0
   15.4156   40.2292   -8.2168 C   0  0  0  0  0  0
   16.5411   40.9923   -7.5051 C   0  0  0  0  0  0
   16.4388   42.4369   -7.6401 N   0  0  0  0  0  0
   17.0097   43.1528   -8.6982 C   0  0  0  0  0  0
   16.9655   44.5592   -8.6288 C   0  0  0  0  0  0
   17.5247   45.3509   -9.6521 C   0  0  0  0  0  0
   18.1210   44.7283  -10.7660 C   0  0  0  0  0  0
   18.1935   43.3213  -10.8432 C   0  0  0  0  0  0
   17.6221   42.5351   -9.8150 C   0  0  0  0  0  0
   18.8449   42.6810  -12.0369 C   0  0  0  0  0  0
   18.4474   42.9489  -13.1706 O   0  0  0  0  0  0
   19.8804   41.8438  -11.8314 N   0  0  0  0  0  0
   20.7486   41.7713  -10.6508 C   0  0  1  0  0  0
   21.4019   40.3668  -10.5122 C   0  0  0  0  0  0
   21.7388   42.9745  -10.6692 C   0  0  1  0  0  0
   22.5989   43.2011   -9.3970 C   0  0  0  0  0  0
   21.9526   44.0013   -8.3401 N   0  0  0  0  0  0
   20.8847   43.4053   -7.5225 C   0  0  0  0  0  0
   21.3530   42.4306   -6.4516 C   0  0  0  0  0  0
   21.9285   41.1910   -6.7938 C   0  0  0  0  0  0
   22.3521   40.2890   -5.7982 C   0  0  0  0  0  0
   22.1643   40.6095   -4.4435 C   0  0  0  0  0  0
   21.5726   41.8407   -4.0850 C   0  0  0  0  0  0
   21.1773   42.7487   -5.0913 C   0  0  0  0  0  0
   21.4253   42.2024   -2.6224 C   0  0  0  0  0  0
   19.9958   42.6173   -2.2373 C   0  0  0  0  0  0
   22.4890   43.2364   -2.2385 C   0  0  0  0  0  0
   22.6220   42.7943  -11.7625 O   0  0  0  0  0  0
   17.4741   46.8676   -9.5741 C   0  0  0  0  0  0
   17.2602   47.3448   -8.2532 O   0  0  0  0  0  0
   17.2601   48.7586   -8.1788 C   0  0  0  0  0  0
   19.9903   39.8902   -8.9496 H   0  0  0  0  0  0
   20.1187   41.8868   -9.7824 H   0  0  0  0  0  0
   21.1921   43.8983  -10.8643 H   0  0  0  0  0  0
   21.8237   37.5651   -9.6557 H   0  0  0  0  0  0
   20.7519   37.7506   -8.2833 H   0  0  0  0  0  0
   22.1756   38.7425   -8.4288 H   0  0  0  0  0  0
   18.8971   39.4871  -11.1708 H   0  0  0  0  0  0
   19.9699   38.1502  -11.4426 H   0  0  0  0  0  0
   17.8473   37.3502  -10.7416 H   0  0  0  0  0  0
   18.9148   36.9783   -9.4165 H   0  0  0  0  0  0
   15.8222   37.8606   -9.8612 H   0  0  0  0  0  0
   16.4795   36.9117   -8.5356 H   0  0  0  0  0  0
   14.4749   38.3081   -7.9370 H   0  0  0  0  0  0
   15.8420   38.5555   -6.8975 H   0  0  0  0  0  0
   15.4275   40.4125   -9.2912 H   0  0  0  0  0  0
   14.4617   40.6115   -7.8503 H   0  0  0  0  0  0
   16.4494   40.7681   -6.4407 H   0  0  0  0  0  0
   17.5297   40.6441   -7.8043 H   0  0  0  0  0  0
   15.9700   42.9262   -6.8790 H   0  0  0  0  0  0
   16.5019   45.0315   -7.7740 H   0  0  0  0  0  0
   18.5409   45.3315  -11.5580 H   0  0  0  0  0  0
   17.6589   41.4578   -9.8925 H   0  0  0  0  0  0
   20.2536   41.3913  -12.6517 H   0  0  0  0  0  0
   22.3536   40.4664   -9.9943 H   0  0  0  0  0  0
   21.6738   39.9673  -11.4901 H   0  0  0  0  0  0
   23.0155   42.2754   -9.0077 H   0  0  0  0  0  0
   23.4790   43.7678   -9.7108 H   0  0  0  0  0  0
   21.6321   44.8847   -8.7207 H   0  0  0  0  0  0
   20.3848   44.2209   -6.9969 H   0  0  0  0  0  0
   20.0936   42.9625   -8.1172 H   0  0  0  0  0  0
   22.0473   40.9156   -7.8235 H   0  0  0  0  0  0
   22.8113   39.3527   -6.0756 H   0  0  0  0  0  0
   22.4881   39.9113   -3.6830 H   0  0  0  0  0  0
   20.7405   43.6993   -4.8185 H   0  0  0  0  0  0
   21.6432   41.2967   -2.0665 H   0  0  0  0  0  0
   19.2884   41.8125   -2.4407 H   0  0  0  0  0  0
   19.6627   43.4980   -2.7858 H   0  0  0  0  0  0
   19.9285   42.8468   -1.1722 H   0  0  0  0  0  0
   23.4641   42.8051   -2.4405 H   0  0  0  0  0  0
   22.4354   43.5123   -1.1863 H   0  0  0  0  0  0
   22.4539   44.1433   -2.8406 H   0  0  0  0  0  0
   23.0589   41.9559  -11.6884 H   0  0  0  0  0  0
   18.4141   47.2683   -9.9591 H   0  0  0  0  0  0
   16.6773   47.2206  -10.2311 H   0  0  0  0  0  0
   17.0899   49.0725   -7.1483 H   0  0  0  0  0  0
   16.4686   49.1864   -8.7957 H   0  0  0  0  0  0
   18.2175   49.1701   -8.5019 H   0  0  0  0  0  0
  1  2  1  0  0  0
  1 42  1  0  0  0
  1 43  1  0  0  0
  1 44  1  0  0  0
  2 39  1  0  0  0
  2 21  1  0  0  0
  2  3  1  0  0  0
  3  4  1  0  0  0
  3 45  1  0  0  0
  3 46  1  0  0  0
  4  5  1  0  0  0
  4 47  1  0  0  0
  4 48  1  0  0  0
  5  6  1  0  0  0
  6  7  1  0  0  0
  6 49  1  0  0  0
  6 50  1  0  0  0
  7  8  1  0  0  0
  7 51  1  0  0  0
  7 52  1  0  0  0
  8  9  1  0  0  0
  8 53  1  0  0  0
  8 54  1  0  0  0
  9 10  1  0  0  0
  9 55  1  0  0  0
  9 56  1  0  0  0
 10 11  1  0  0  0
 10 57  1  0  0  0
 11 16  1  0  0  0
 11 12  2  0  0  0
 12 13  1  0  0  0
 12 58  1  0  0  0
 13 14  2  0  0  0
 13 36  1  0  0  0
 14 15  1  0  0  0
 14 59  1  0  0  0
 15 16  2  0  0  0
 15 17  1  0  0  0
 16 60  1  0  0  0
 17 18  2  0  0  0
 17 19  1  0  0  0
 19 20  1  0  0  0
 19 61  1  0  0  0
 20 40  1  0  0  0
 20 21  1  0  0  0
 20 22  1  0  0  0
 21 62  1  0  0  0
 21 63  1  0  0  0
 22 41  1  0  0  0
 22 23  1  0  0  0
 22 35  1  0  0  0
 23 24  1  0  0  0
 23 64  1  0  0  0
 23 65  1  0  0  0
 24 25  1  0  0  0
 24 66  1  0  0  0
 25 26  1  0  0  0
 25 67  1  0  0  0
 25 68  1  0  0  0
 26 31  1  0  0  0
 26 27  2  0  0  0
 27 28  1  0  0  0
 27 69  1  0  0  0
 28 29  2  0  0  0
 28 70  1  0  0  0
 29 30  1  0  0  0
 29 71  1  0  0  0
 30 31  2  0  0  0
 30 32  1  0  0  0
 31 72  1  0  0  0
 32 33  1  0  0  0
 32 34  1  0  0  0
 32 73  1  0  0  0
 33 74  1  0  0  0
 33 75  1  0  0  0
 33 76  1  0  0  0
 34 77  1  0  0  0
 34 78  1  0  0  0
 34 79  1  0  0  0
 35 80  1  0  0  0
 36 37  1  0  0  0
 36 81  1  0  0  0
 36 82  1  0  0  0
 37 38  1  0  0  0
 38 83  1  0  0  0
 38 84  1  0  0  0
 38 85  1  0  0  0
M  END
> <s_m_source_file>
BACE_10.smi

> <i_m_source_file_index>
1

> <i_lp_mmshare_version>
42013

> <i_f3d_flags>
0

> <s_epik_input>
W05IXTFbQ0gyXVtDSDJdW0NIMl1bQ0gyXU9bQ0gyXVtDSDJdW0NAQEhdKFtDSDNdKVtDSDJdW0NASF0oW05IXUMoPU8pYyhbY0hdMilbY0hdYyhbY0hdYzEyKVtDSDJdT1tDSDNdKVtDQEhdKFtPSF0pW0NIMl1bTkhdW0NIMl1jM1tjSF1bY0hdW2NIXWMoW2NIXTMpW0NIXShbQ0gzXSlbQ0gzXQ==

> <s_epik_cmdline>
J2VwaWtfcHl0aG9uJywgJy1waCcsICc3LjAnLCAnLXRuJywgJzgnLCAnLW1hJywgJzIwMCcsICctaW1hZScsICc8aW5maWxlLm1hZT4nLCAnLW9tYWUnLCAnPG91dGZpbGUubWFlPic=

> <r_epik_Ionization_Penalty>
  2.1223

> <r_epik_Ionization_Penalty_Charging>
  0.0000

> <r_epik_Ionization_Penalty_Neutral>
  2.1223

> <r_epik_State_Penalty>
  2.2595

> <r_epik_Charging_Adjusted_Penalty>
2.2595

> <i_epik_Tot_Q>
0

> <i_epik_Tot_abs_Q>
0

> <s_lp_Force_Field>
OPLS_2005

> <r_lp_Energy>
40.6464

> <b_lp_Chiralities_Consistent>
1

> <s_lp_Variant>
BACE_10.smi:1-2

> <chiral flag>
1

> <version>
0

> <r_i_glide_lipo>
-0.931813

> <r_i_glide_hbond>
-0.609587

> <r_i_glide_metal>
-0

> <r_i_glide_rewards>
0

> <r_i_glide_erotb>
0.446868

> <r_i_glide_esite>
-0.0218639

> <chiral flag>
1

> <s_i_glide_gridfile>
second_dock_grid_2

> <i_i_glide_lignum>
21

> <i_i_glide_rotatable_bonds>
9

> <r_i_docking_score>
-3.49689

> <r_i_glide_ligand_efficiency>
-0.0920234

> <r_i_glide_ligand_efficiency_sa>
-0.30938

> <r_i_glide_ligand_efficiency_ln>
-0.754032

> <r_glide_XP_GScore>
-5.75639

> <r_i_glide_gscore>
-5.75639

> <r_i_glide_evdw>
-41.3112

> <r_i_glide_ecoul>
-7.96352

> <r_i_glide_energy>
-49.2747

> <r_i_glide_einternal>
9.52042

> <r_i_glide_emodel>
-66.2014

> <r_glide_XP_HBond>
-0.7

> <i_i_glide_confnum>
1

> <i_i_glide_posenum>
1

> <r_i_glide_eff_state_penalty>
2.2595

> <i_glide_XP_PoseRank>
1

$$$$
BACE_10.smi:1
                    3D
 Structure written by MMmdl.
 85 87  0  0  1  0            999 V2000
   21.4519   38.3835   -8.4293 C   0  0  0  0  0  0
   20.5726   39.3655   -9.2208 C   0  0  2  0  0  0
   19.6627   38.6191  -10.2195 C   0  0  0  0  0  0
   18.5890   37.7010   -9.6145 C   0  0  0  0  0  0
   17.6050   38.4663   -8.9393 O   0  0  0  0  0  0
   16.3547   37.7957   -8.8537 C   0  0  0  0  0  0
   15.3630   38.5677   -7.9714 C   0  0  0  0  0  0
   15.2623   40.0611   -8.2967 C   0  0  0  0  0  0
   16.2409   40.8858   -7.4509 C   0  0  0  0  0  0
   16.0598   42.3132   -7.6400 N   0  0  0  0  0  0
   16.7800   43.0286   -8.6012 C   0  0  0  0  0  0
   16.8095   44.4338   -8.5022 C   0  0  0  0  0  0
   17.5125   45.2062   -9.4506 C   0  0  0  0  0  0
   18.1740   44.5622  -10.5178 C   0  0  0  0  0  0
   18.1658   43.1552  -10.6093 C   0  0  0  0  0  0
   17.4648   42.3920   -9.6571 C   0  0  0  0  0  0
   18.8854   42.4648  -11.7236 C   0  0  0  0  0  0
   18.4603   42.5571  -12.8702 O   0  0  0  0  0  0
   19.9828   41.7502  -11.4236 N   0  0  0  0  0  0
   20.7457   41.7802  -10.1723 C   0  0  1  0  0  0
   21.4593   40.4281   -9.9235 C   0  0  0  0  0  0
   21.6662   43.0337  -10.1691 C   0  0  1  0  0  0
   22.3650   43.3821   -8.8267 C   0  0  0  0  0  0
   21.5740   44.2357   -7.9231 N   0  0  0  0  0  0
   20.4521   43.6514   -7.1776 C   0  0  0  0  0  0
   20.8535   42.7860   -5.9917 C   0  0  0  0  0  0
   21.4254   41.5101   -6.1804 C   0  0  0  0  0  0
   21.7798   40.7131   -5.0755 C   0  0  0  0  0  0
   21.5312   41.1746   -3.7703 C   0  0  0  0  0  0
   20.9162   42.4293   -3.5663 C   0  0  0  0  0  0
   20.6039   43.2384   -4.6796 C   0  0  0  0  0  0
   20.5355   42.8938   -2.1696 C   0  0  0  0  0  0
   21.7544   43.3501   -1.3593 C   0  0  0  0  0  0
   19.7166   41.8280   -1.4322 C   0  0  0  0  0  0
   22.6698   42.8291  -11.1460 O   0  0  0  0  0  0
   17.5516   46.7198   -9.3488 C   0  0  0  0  0  0
   17.2723   47.1932   -8.0397 O   0  0  0  0  0  0
   17.4107   48.5983   -7.9273 C   0  0  0  0  0  0
   19.9343   39.8678   -8.4924 H   0  0  0  0  0  0
   20.0452   41.8885   -9.3581 H   0  0  0  0  0  0
   21.1047   43.9127  -10.4881 H   0  0  0  0  0  0
   22.0408   37.7468   -9.0886 H   0  0  0  0  0  0
   20.8399   37.7500   -7.7910 H   0  0  0  0  0  0
   22.1462   38.9045   -7.7703 H   0  0  0  0  0  0
   19.1572   39.3258  -10.8751 H   0  0  0  0  0  0
   20.2971   38.0142  -10.8581 H   0  0  0  0  0  0
   18.1298   37.1492  -10.4348 H   0  0  0  0  0  0
   19.0128   36.9554   -8.9427 H   0  0  0  0  0  0
   15.9374   37.6847   -9.8555 H   0  0  0  0  0  0
   16.4902   36.7919   -8.4480 H   0  0  0  0  0  0
   14.3722   38.1287   -8.0862 H   0  0  0  0  0  0
   15.6182   38.4457   -6.9175 H   0  0  0  0  0  0
   15.4045   40.2332   -9.3637 H   0  0  0  0  0  0
   14.2512   40.3921   -8.0677 H   0  0  0  0  0  0
   16.0476   40.6785   -6.3986 H   0  0  0  0  0  0
   17.2772   40.5981   -7.6278 H   0  0  0  0  0  0
   15.6585   42.8134   -6.8455 H   0  0  0  0  0  0
   16.2896   44.9195   -7.6894 H   0  0  0  0  0  0
   18.7047   45.1484  -11.2546 H   0  0  0  0  0  0
   17.4606   41.3156   -9.7500 H   0  0  0  0  0  0
   20.4236   41.2649  -12.1893 H   0  0  0  0  0  0
   22.3298   40.6115   -9.2955 H   0  0  0  0  0  0
   21.8752   40.0283  -10.8504 H   0  0  0  0  0  0
   22.7404   42.4993   -8.3160 H   0  0  0  0  0  0
   23.2654   43.9467   -9.0711 H   0  0  0  0  0  0
   21.2695   45.0750   -8.4076 H   0  0  0  0  0  0
   19.8539   44.4702   -6.7772 H   0  0  0  0  0  0
   19.7601   43.1159   -7.8147 H   0  0  0  0  0  0
   21.5884   41.1295   -7.1732 H   0  0  0  0  0  0
   22.2210   39.7384   -5.2284 H   0  0  0  0  0  0
   21.7900   40.5487   -2.9297 H   0  0  0  0  0  0
   20.1371   44.1995   -4.5254 H   0  0  0  0  0  0
   19.8751   43.7500   -2.2788 H   0  0  0  0  0  0
   22.3097   44.1460   -1.8525 H   0  0  0  0  0  0
   22.4597   42.5499   -1.2401 H   0  0  0  0  0  0
   21.4641   43.7033   -0.3698 H   0  0  0  0  0  0
   18.8599   41.5445   -2.0391 H   0  0  0  0  0  0
   19.3406   42.1976   -0.4781 H   0  0  0  0  0  0
   20.2892   40.9217   -1.2396 H   0  0  0  0  0  0
   23.1201   42.0149  -10.9708 H   0  0  0  0  0  0
   18.5423   47.0611   -9.6563 H   0  0  0  0  0  0
   16.8314   47.1351  -10.0540 H   0  0  0  0  0  0
   17.1641   48.9132   -6.9136 H   0  0  0  0  0  0
   16.7418   49.1178   -8.6141 H   0  0  0  0  0  0
   18.4356   48.9083   -8.1361 H   0  0  0  0  0  0
  1  2  1  0  0  0
  1 42  1  0  0  0
  1 43  1  0  0  0
  1 44  1  0  0  0
  2 39  1  0  0  0
  2 21  1  0  0  0
  2  3  1  0  0  0
  3  4  1  0  0  0
  3 45  1  0  0  0
  3 46  1  0  0  0
  4  5  1  0  0  0
  4 47  1  0  0  0
  4 48  1  0  0  0
  5  6  1  0  0  0
  6  7  1  0  0  0
  6 49  1  0  0  0
  6 50  1  0  0  0
  7  8  1  0  0  0
  7 51  1  0  0  0
  7 52  1  0  0  0
  8  9  1  0  0  0
  8 53  1  0  0  0
  8 54  1  0  0  0
  9 10  1  0  0  0
  9 55  1  0  0  0
  9 56  1  0  0  0
 10 11  1  0  0  0
 10 57  1  0  0  0
 11 16  1  0  0  0
 11 12  2  0  0  0
 12 13  1  0  0  0
 12 58  1  0  0  0
 13 14  2  0  0  0
 13 36  1  0  0  0
 14 15  1  0  0  0
 14 59  1  0  0  0
 15 16  2  0  0  0
 15 17  1  0  0  0
 16 60  1  0  0  0
 17 18  2  0  0  0
 17 19  1  0  0  0
 19 20  1  0  0  0
 19 61  1  0  0  0
 20 40  1  0  0  0
 20 21  1  0  0  0
 20 22  1  0  0  0
 21 62  1  0  0  0
 21 63  1  0  0  0
 22 41  1  0  0  0
 22 23  1  0  0  0
 22 35  1  0  0  0
 23 24  1  0  0  0
 23 64  1  0  0  0
 23 65  1  0  0  0
 24 25  1  0  0  0
 24 66  1  0  0  0
 25 26  1  0  0  0
 25 67  1  0  0  0
 25 68  1  0  0  0
 26 31  1  0  0  0
 26 27  2  0  0  0
 27 28  1  0  0  0
 27 69  1  0  0  0
 28 29  2  0  0  0
 28 70  1  0  0  0
 29 30  1  0  0  0
 29 71  1  0  0  0
 30 31  2  0  0  0
 30 32  1  0  0  0
 31 72  1  0  0  0
 32 33  1  0  0  0
 32 34  1  0  0  0
 32 73  1  0  0  0
 33 74  1  0  0  0
 33 75  1  0  0  0
 33 76  1  0  0  0
 34 77  1  0  0  0
 34 78  1  0  0  0
 34 79  1  0  0  0
 35 80  1  0  0  0
 36 37  1  0  0  0
 36 81  1  0  0  0
 36 82  1  0  0  0
 37 38  1  0  0  0
 38 83  1  0  0  0
 38 84  1  0  0  0
 38 85  1  0  0  0
M  END
> <s_m_source_file>
BACE_10.smi

> <i_m_source_file_index>
1

> <i_lp_mmshare_version>
42013

> <i_f3d_flags>
0

> <s_epik_input>
W05IXTFbQ0gyXVtDSDJdW0NIMl1bQ0gyXU9bQ0gyXVtDSDJdW0NAQEhdKFtDSDNdKVtDSDJdW0NASF0oW05IXUMoPU8pYyhbY0hdMilbY0hdYyhbY0hdYzEyKVtDSDJdT1tDSDNdKVtDQEhdKFtPSF0pW0NIMl1bTkhdW0NIMl1jM1tjSF1bY0hdW2NIXWMoW2NIXTMpW0NIXShbQ0gzXSlbQ0gzXQ==

> <s_epik_cmdline>
J2VwaWtfcHl0aG9uJywgJy1waCcsICc3LjAnLCAnLXRuJywgJzgnLCAnLW1hJywgJzIwMCcsICctaW1hZScsICc8aW5maWxlLm1hZT4nLCAnLW9tYWUnLCAnPG91dGZpbGUubWFlPic=

> <r_epik_Ionization_Penalty>
  2.1223

> <r_epik_Ionization_Penalty_Charging>
  0.0000

> <r_epik_Ionization_Penalty_Neutral>
  2.1223

> <r_epik_State_Penalty>
  2.2595

> <r_epik_Charging_Adjusted_Penalty>
2.2595

> <i_epik_Tot_Q>
0

> <i_epik_Tot_abs_Q>
0

> <s_lp_Force_Field>
OPLS_2005

> <r_lp_Energy>
40.6464

> <b_lp_Chiralities_Consistent>
1

> <s_lp_Variant>
BACE_10.smi:1-2

> <chiral flag>
1

> <version>
0

> <r_i_glide_lipo>
-0.931813

> <r_i_glide_hbond>
-0.609587

> <r_i_glide_metal>
-0

> <r_i_glide_rewards>
0

> <r_i_glide_erotb>
0.446868

> <r_i_glide_esite>
-0.0218639

> <chiral flag>
1

> <s_i_glide_gridfile>
second_dock_grid_2

> <i_i_glide_lignum>
21

> <i_i_glide_rotatable_bonds>
9

> <r_i_docking_score>
-2.9275

> <r_i_glide_ligand_efficiency>
-0.0770395

> <r_i_glide_ligand_efficiency_sa>
-0.259005

> <r_i_glide_ligand_efficiency_ln>
-0.631256

> <r_glide_XP_GScore>
-5.187

> <r_i_glide_gscore>
-5.187

> <r_i_glide_evdw>
-41.7842

> <r_i_glide_ecoul>
-7.00738

> <r_i_glide_energy>
-48.7916

> <r_i_glide_einternal>
7.85069

> <r_i_glide_emodel>
-66.1234

> <r_glide_XP_HBond>
-0.7

> <i_i_glide_confnum>
1

> <i_i_glide_posenum>
12

> <r_i_glide_eff_state_penalty>
2.2595

> <i_glide_XP_PoseRank>
2

$$$$
BACE_10.smi:1
                    3D
 Structure written by MMmdl.
 85 87  0  0  1  0            999 V2000
   22.5908   40.9523   -9.5060 C   0  0  0  0  0  0
   21.1593   41.3735   -9.8938 C   0  0  2  0  0  0
   20.6315   40.5134  -11.0674 C   0  0  0  0  0  0
   20.3805   39.0394  -10.7170 C   0  0  0  0  0  0
   19.4171   38.9619   -9.6791 O   0  0  0  0  0  0
   18.9226   37.6480   -9.4666 C   0  0  0  0  0  0
   17.9132   37.6280   -8.3088 C   0  0  0  0  0  0
   16.7039   38.5565   -8.5185 C   0  0  0  0  0  0
   16.9134   39.9519   -7.9163 C   0  0  0  0  0  0
   15.7776   40.8248   -8.1801 N   0  0  0  0  0  0
   15.7587   41.7716   -9.2165 C   0  0  0  0  0  0
   14.6036   42.5660   -9.3484 C   0  0  0  0  0  0
   14.5098   43.5366  -10.3628 C   0  0  0  0  0  0
   15.6032   43.7584  -11.2191 C   0  0  0  0  0  0
   16.7808   42.9943  -11.0856 C   0  0  0  0  0  0
   16.8295   41.9616  -10.1208 C   0  0  0  0  0  0
   17.9102   43.2395  -12.0430 C   0  0  0  0  0  0
   17.6610   43.3498  -13.2400 O   0  0  0  0  0  0
   19.1672   43.3889  -11.5963 N   0  0  0  0  0  0
   19.6981   43.5287  -10.2383 C   0  0  1  0  0  0
   21.1167   42.8967  -10.1852 C   0  0  0  0  0  0
   19.6252   45.0286   -9.8230 C   0  0  1  0  0  0
   20.1263   45.4269   -8.4088 C   0  0  0  0  0  0
   19.3127   44.9465   -7.2810 N   0  0  0  0  0  0
   19.5325   43.5783   -6.7918 C   0  0  0  0  0  0
   20.7089   43.3825   -5.8469 C   0  0  0  0  0  0
   22.0432   43.5095   -6.2914 C   0  0  0  0  0  0
   23.1153   43.2326   -5.4245 C   0  0  0  0  0  0
   22.8559   42.7746   -4.1225 C   0  0  0  0  0  0
   21.5332   42.6120   -3.6694 C   0  0  0  0  0  0
   20.4647   42.9593   -4.5219 C   0  0  0  0  0  0
   21.3008   42.0186   -2.2890 C   0  0  0  0  0  0
   20.2318   40.9260   -2.2766 C   0  0  0  0  0  0
   21.0201   43.0899   -1.2292 C   0  0  0  0  0  0
   20.4043   45.7713  -10.7430 O   0  0  0  0  0  0
   13.2318   44.3341  -10.5416 C   0  0  0  0  0  0
   12.3893   43.8435  -11.5751 O   0  0  0  0  0  0
   11.8608   42.5492  -11.3261 C   0  0  0  0  0  0
   20.5277   41.1887   -9.0233 H   0  0  0  0  0  0
   19.0630   42.9829   -9.5533 H   0  0  0  0  0  0
   18.5960   45.3744   -9.9281 H   0  0  0  0  0  0
   23.2812   41.0755  -10.3415 H   0  0  0  0  0  0
   22.6341   39.9108   -9.1906 H   0  0  0  0  0  0
   22.9715   41.5437   -8.6716 H   0  0  0  0  0  0
   19.6845   40.9031  -11.4269 H   0  0  0  0  0  0
   21.3254   40.5734  -11.9086 H   0  0  0  0  0  0
   20.0073   38.5382  -11.6100 H   0  0  0  0  0  0
   21.2988   38.5304  -10.4240 H   0  0  0  0  0  0
   18.4415   37.2871  -10.3760 H   0  0  0  0  0  0
   19.7417   36.9631   -9.2402 H   0  0  0  0  0  0
   17.5477   36.6037   -8.1924 H   0  0  0  0  0  0
   18.4108   37.8618   -7.3668 H   0  0  0  0  0  0
   16.4575   38.6226   -9.5766 H   0  0  0  0  0  0
   15.8357   38.1098   -8.0353 H   0  0  0  0  0  0
   17.0092   39.8572   -6.8341 H   0  0  0  0  0  0
   17.8533   40.3911   -8.2400 H   0  0  0  0  0  0
   15.0163   40.7943   -7.5138 H   0  0  0  0  0  0
   13.7681   42.4138   -8.6816 H   0  0  0  0  0  0
   15.5343   44.5153  -11.9873 H   0  0  0  0  0  0
   17.7039   41.3331  -10.0788 H   0  0  0  0  0  0
   19.8465   43.5584  -12.3215 H   0  0  0  0  0  0
   21.6806   43.3855   -9.3968 H   0  0  0  0  0  0
   21.6703   43.1211  -11.0997 H   0  0  0  0  0  0
   21.1756   45.1899   -8.2775 H   0  0  0  0  0  0
   20.0989   46.5153   -8.3699 H   0  0  0  0  0  0
   18.3249   45.0783   -7.4756 H   0  0  0  0  0  0
   18.6435   43.2799   -6.2361 H   0  0  0  0  0  0
   19.6188   42.8567   -7.5985 H   0  0  0  0  0  0
   22.2755   43.7942   -7.3011 H   0  0  0  0  0  0
   24.1351   43.3360   -5.7676 H   0  0  0  0  0  0
   23.6757   42.5281   -3.4695 H   0  0  0  0  0  0
   19.4491   42.8591   -4.1725 H   0  0  0  0  0  0
   22.2333   41.5225   -2.0398 H   0  0  0  0  0  0
   20.4246   40.1660   -3.0361 H   0  0  0  0  0  0
   19.2580   41.3572   -2.4634 H   0  0  0  0  0  0
   20.1746   40.4326   -1.3075 H   0  0  0  0  0  0
   21.8642   43.7732   -1.1413 H   0  0  0  0  0  0
   20.8537   42.6383   -0.2517 H   0  0  0  0  0  0
   20.1342   43.6772   -1.4780 H   0  0  0  0  0  0
   21.2981   45.4632  -10.6915 H   0  0  0  0  0  0
   12.6818   44.3918   -9.6013 H   0  0  0  0  0  0
   13.5086   45.3472  -10.8290 H   0  0  0  0  0  0
   11.2119   42.2596  -12.1481 H   0  0  0  0  0  0
   11.2727   42.5236  -10.4102 H   0  0  0  0  0  0
   12.6483   41.8016  -11.2624 H   0  0  0  0  0  0
  1  2  1  0  0  0
  1 42  1  0  0  0
  1 43  1  0  0  0
  1 44  1  0  0  0
  2 39  1  0  0  0
  2 21  1  0  0  0
  2  3  1  0  0  0
  3  4  1  0  0  0
  3 45  1  0  0  0
  3 46  1  0  0  0
  4  5  1  0  0  0
  4 47  1  0  0  0
  4 48  1  0  0  0
  5  6  1  0  0  0
  6  7  1  0  0  0
  6 49  1  0  0  0
  6 50  1  0  0  0
  7  8  1  0  0  0
  7 51  1  0  0  0
  7 52  1  0  0  0
  8  9  1  0  0  0
  8 53  1  0  0  0
  8 54  1  0  0  0
  9 10  1  0  0  0
  9 55  1  0  0  0
  9 56  1  0  0  0
 10 11  1  0  0  0
 10 57  1  0  0  0
 11 16  1  0  0  0
 11 12  2  0  0  0
 12 13  1  0  0  0
 12 58  1  0  0  0
 13 14  2  0  0  0
 13 36  1  0  0  0
 14 15  1  0  0  0
 14 59  1  0  0  0
 15 16  2  0  0  0
 15 17  1  0  0  0
 16 60  1  0  0  0
 17 18  2  0  0  0
 17 19  1  0  0  0
 19 20  1  0  0  0
 19 61  1  0  0  0
 20 40  1  0  0  0
 20 21  1  0  0  0
 20 22  1  0  0  0
 21 62  1  0  0  0
 21 63  1  0  0  0
 22 41  1  0  0  0
 22 23  1  0  0  0
 22 35  1  0  0  0
 23 24  1  0  0  0
 23 64  1  0  0  0
 23 65  1  0  0  0
 24 25  1  0  0  0
 24 66  1  0  0  0
 25 26  1  0  0  0
 25 67  1  0  0  0
 25 68  1  0  0  0
 26 31  1  0  0  0
 26 27  2  0  0  0
 27 28  1  0  0  0
 27 69  1  0  0  0
 28 29  2  0  0  0
 28 70  1  0  0  0
 29 30  1  0  0  0
 29 71  1  0  0  0
 30 31  2  0  0  0
 30 32  1  0  0  0
 31 72  1  0  0  0
 32 33  1  0  0  0
 32 34  1  0  0  0
 32 73  1  0  0  0
 33 74  1  0  0  0
 33 75  1  0  0  0
 33 76  1  0  0  0
 34 77  1  0  0  0
 34 78  1  0  0  0
 34 79  1  0  0  0
 35 80  1  0  0  0
 36 37  1  0  0  0
 36 81  1  0  0  0
 36 82  1  0  0  0
 37 38  1  0  0  0
 38 83  1  0  0  0
 38 84  1  0  0  0
 38 85  1  0  0  0
M  END
> <s_m_source_file>
BACE_10.smi

> <i_m_source_file_index>
1

> <i_lp_mmshare_version>
42013

> <i_f3d_flags>
0

> <s_epik_input>
W05IXTFbQ0gyXVtDSDJdW0NIMl1bQ0gyXU9bQ0gyXVtDSDJdW0NAQEhdKFtDSDNdKVtDSDJdW0NASF0oW05IXUMoPU8pYyhbY0hdMilbY0hdYyhbY0hdYzEyKVtDSDJdT1tDSDNdKVtDQEhdKFtPSF0pW0NIMl1bTkhdW0NIMl1jM1tjSF1bY0hdW2NIXWMoW2NIXTMpW0NIXShbQ0gzXSlbQ0gzXQ==

> <s_epik_cmdline>
J2VwaWtfcHl0aG9uJywgJy1waCcsICc3LjAnLCAnLXRuJywgJzgnLCAnLW1hJywgJzIwMCcsICctaW1hZScsICc8aW5maWxlLm1hZT4nLCAnLW9tYWUnLCAnPG91dGZpbGUubWFlPic=

> <r_epik_Ionization_Penalty>
  2.1223

> <r_epik_Ionization_Penalty_Charging>
  0.0000

> <r_epik_Ionization_Penalty_Neutral>
  2.1223

> <r_epik_State_Penalty>
  2.2595

> <r_epik_Charging_Adjusted_Penalty>
2.2595

> <i_epik_Tot_Q>
0

> <i_epik_Tot_abs_Q>
0

> <s_lp_Force_Field>
OPLS_2005

> <r_lp_Energy>
40.6464

> <b_lp_Chiralities_Consistent>
1

> <s_lp_Variant>
BACE_10.smi:1-2

> <chiral flag>
1

> <version>
0

> <r_i_glide_lipo>
-0.931813

> <r_i_glide_hbond>
-0.609587

> <r_i_glide_metal>
-0

> <r_i_glide_rewards>
0

> <r_i_glide_erotb>
0.446868

> <r_i_glide_esite>
-0.0218639

> <chiral flag>
1

> <s_i_glide_gridfile>
second_dock_grid_2

> <i_i_glide_lignum>
21

> <i_i_glide_rotatable_bonds>
9

> <r_i_docking_score>
-2.65726

> <r_i_glide_ligand_efficiency>
-0.0699278

> <r_i_glide_ligand_efficiency_sa>
-0.235096

> <r_i_glide_ligand_efficiency_ln>
-0.572983

> <r_glide_XP_GScore>
-4.91676

> <r_i_glide_gscore>
-4.91676

> <r_i_glide_evdw>
-43.6577

> <r_i_glide_ecoul>
-6.28796

> <r_i_glide_energy>
-49.9457

> <r_i_glide_einternal>
6.92502

> <r_i_glide_emodel>
-66.394

> <r_glide_XP_HBond>
-0.7

> <i_i_glide_confnum>
1

> <i_i_glide_posenum>
8

> <r_i_glide_eff_state_penalty>
2.2595

> <i_glide_XP_PoseRank>
3

$$$$
BACE_10.smi:1
                    3D
 Structure written by MMmdl.
 85 87  0  0  1  0            999 V2000
   20.2804   38.7776   -7.0691 C   0  0  0  0  0  0
   19.8898   39.4545   -8.3956 C   0  0  2  0  0  0
   19.5770   38.4000   -9.4850 C   0  0  0  0  0  0
   18.3294   37.5490   -9.2105 C   0  0  0  0  0  0
   17.1992   38.3948   -9.0814 O   0  0  0  0  0  0
   15.9773   37.6766   -9.0921 C   0  0  0  0  0  0
   14.8129   38.5693   -8.6411 C   0  0  0  0  0  0
   14.7151   39.9028   -9.3980 C   0  0  0  0  0  0
   15.4091   41.0515   -8.6518 C   0  0  0  0  0  0
   15.3004   42.3091   -9.3758 N   0  0  0  0  0  0
   16.2575   42.7222  -10.3129 C   0  0  0  0  0  0
   16.1046   44.0041  -10.8852 C   0  0  0  0  0  0
   17.0306   44.4880  -11.8295 C   0  0  0  0  0  0
   18.1307   43.6906  -12.1970 C   0  0  0  0  0  0
   18.3076   42.4146  -11.6229 C   0  0  0  0  0  0
   17.3588   41.9239  -10.7003 C   0  0  0  0  0  0
   19.4766   41.5766  -12.0427 C   0  0  0  0  0  0
   19.6601   41.3497  -13.2366 O   0  0  0  0  0  0
   20.3176   41.1045  -11.1047 N   0  0  0  0  0  0
   20.5404   41.6120   -9.7490 C   0  0  1  0  0  0
   20.9963   40.4537   -8.8229 C   0  0  0  0  0  0
   21.5803   42.7769   -9.7730 C   0  0  1  0  0  0
   22.7032   42.6706  -10.8294 C   0  0  0  0  0  0
   23.6678   41.6153  -10.5182 N   0  0  0  0  0  0
   24.7674   42.0107   -9.6365 C   0  0  0  0  0  0
   25.8947   42.7211  -10.3700 C   0  0  0  0  0  0
   25.8281   44.1106  -10.6149 C   0  0  0  0  0  0
   26.8723   44.7643  -11.2992 C   0  0  0  0  0  0
   28.0017   44.0369  -11.7173 C   0  0  0  0  0  0
   28.0968   42.6476  -11.4564 C   0  0  0  0  0  0
   27.0302   41.9950  -10.7950 C   0  0  0  0  0  0
   29.3513   41.8726  -11.8431 C   0  0  0  0  0  0
   30.5406   42.3046  -10.9791 C   0  0  0  0  0  0
   29.6834   41.9795  -13.3404 C   0  0  0  0  0  0
   20.8840   43.9867  -10.0003 O   0  0  0  0  0  0
   16.8781   45.8842  -12.4038 C   0  0  0  0  0  0
   15.5521   46.1507  -12.8352 O   0  0  0  0  0  0
   15.4140   47.4735  -13.3300 C   0  0  0  0  0  0
   18.9840   40.0298   -8.2013 H   0  0  0  0  0  0
   19.6145   41.9931   -9.3174 H   0  0  0  0  0  0
   22.0264   42.8878   -8.7859 H   0  0  0  0  0  0
   21.1642   38.1507   -7.1835 H   0  0  0  0  0  0
   19.4745   38.1545   -6.6818 H   0  0  0  0  0  0
   20.4988   39.5152   -6.2948 H   0  0  0  0  0  0
   19.4098   38.8738  -10.4472 H   0  0  0  0  0  0
   20.4414   37.7507   -9.6207 H   0  0  0  0  0  0
   18.1852   36.8544  -10.0396 H   0  0  0  0  0  0
   18.4488   36.9499   -8.3081 H   0  0  0  0  0  0
   15.7931   37.3053  -10.0984 H   0  0  0  0  0  0
   16.0461   36.8055   -8.4411 H   0  0  0  0  0  0
   13.8802   38.0278   -8.7938 H   0  0  0  0  0  0
   14.8764   38.7456   -7.5652 H   0  0  0  0  0  0
   15.1097   39.7927  -10.4085 H   0  0  0  0  0  0
   13.6602   40.1556   -9.5147 H   0  0  0  0  0  0
   14.9316   41.1861   -7.6810 H   0  0  0  0  0  0
   16.4485   40.8128   -8.4295 H   0  0  0  0  0  0
   14.5795   42.9491   -9.0770 H   0  0  0  0  0  0
   15.2707   44.6283  -10.5944 H   0  0  0  0  0  0
   18.8594   44.0630  -12.8993 H   0  0  0  0  0  0
   17.4959   40.9323  -10.2913 H   0  0  0  0  0  0
   21.0482   40.4960  -11.4434 H   0  0  0  0  0  0
   21.3923   40.9084   -7.9176 H   0  0  0  0  0  0
   21.8423   39.9214   -9.2610 H   0  0  0  0  0  0
   22.2763   42.4911  -11.8169 H   0  0  0  0  0  0
   23.2069   43.6272  -10.9252 H   0  0  0  0  0  0
   24.0604   41.2827  -11.4021 H   0  0  0  0  0  0
   24.4086   42.6232   -8.8094 H   0  0  0  0  0  0
   25.1895   41.1117   -9.1896 H   0  0  0  0  0  0
   24.9797   44.6839  -10.2789 H   0  0  0  0  0  0
   26.8074   45.8266  -11.4933 H   0  0  0  0  0  0
   28.8073   44.5545  -12.2180 H   0  0  0  0  0  0
   27.0911   40.9317  -10.5935 H   0  0  0  0  0  0
   29.1636   40.8196  -11.6381 H   0  0  0  0  0  0
   30.3370   42.1487   -9.9182 H   0  0  0  0  0  0
   30.7681   43.3636  -11.1187 H   0  0  0  0  0  0
   31.4383   41.7430  -11.2381 H   0  0  0  0  0  0
   28.8601   41.6306  -13.9640 H   0  0  0  0  0  0
   30.5521   41.3661  -13.5898 H   0  0  0  0  0  0
   29.9126   43.0044  -13.6345 H   0  0  0  0  0  0
   20.2125   44.0752   -9.3400 H   0  0  0  0  0  0
   17.1739   46.5980  -11.6331 H   0  0  0  0  0  0
   17.5685   46.0074  -13.2391 H   0  0  0  0  0  0
   14.3920   47.6334  -13.6723 H   0  0  0  0  0  0
   16.0835   47.6528  -14.1703 H   0  0  0  0  0  0
   15.6290   48.2076  -12.5513 H   0  0  0  0  0  0
  1  2  1  0  0  0
  1 42  1  0  0  0
  1 43  1  0  0  0
  1 44  1  0  0  0
  2 39  1  0  0  0
  2 21  1  0  0  0
  2  3  1  0  0  0
  3  4  1  0  0  0
  3 45  1  0  0  0
  3 46  1  0  0  0
  4  5  1  0  0  0
  4 47  1  0  0  0
  4 48  1  0  0  0
  5  6  1  0  0  0
  6  7  1  0  0  0
  6 49  1  0  0  0
  6 50  1  0  0  0
  7  8  1  0  0  0
  7 51  1  0  0  0
  7 52  1  0  0  0
  8  9  1  0  0  0
  8 53  1  0  0  0
  8 54  1  0  0  0
  9 10  1  0  0  0
  9 55  1  0  0  0
  9 56  1  0  0  0
 10 11  1  0  0  0
 10 57  1  0  0  0
 11 16  1  0  0  0
 11 12  2  0  0  0
 12 13  1  0  0  0
 12 58  1  0  0  0
 13 14  2  0  0  0
 13 36  1  0  0  0
 14 15  1  0  0  0
 14 59  1  0  0  0
 15 16  2  0  0  0
 15 17  1  0  0  0
 16 60  1  0  0  0
 17 18  2  0  0  0
 17 19  1  0  0  0
 19 20  1  0  0  0
 19 61  1  0  0  0
 20 40  1  0  0  0
 20 21  1  0  0  0
 20 22  1  0  0  0
 21 62  1  0  0  0
 21 63  1  0  0  0
 22 41  1  0  0  0
 22 23  1  0  0  0
 22 35  1  0  0  0
 23 24  1  0  0  0
 23 64  1  0  0  0
 23 65  1  0  0  0
 24 25  1  0  0  0
 24 66  1  0  0  0
 25 26  1  0  0  0
 25 67  1  0  0  0
 25 68  1  0  0  0
 26 31  1  0  0  0
 26 27  2  0  0  0
 27 28  1  0  0  0
 27 69  1  0  0  0
 28 29  2  0  0  0
 28 70  1  0  0  0
 29 30  1  0  0  0
 29 71  1  0  0  0
 30 31  2  0  0  0
 30 32  1  0  0  0
 31 72  1  0  0  0
 32 33  1  0  0  0
 32 34  1  0  0  0
 32 73  1  0  0  0
 33 74  1  0  0  0
 33 75  1  0  0  0
 33 76  1  0  0  0
 34 77  1  0  0  0
 34 78  1  0  0  0
 34 79  1  0  0  0
 35 80  1  0  0  0
 36 37  1  0  0  0
 36 81  1  0  0  0
 36 82  1  0  0  0
 37 38  1  0  0  0
 38 83  1  0  0  0
 38 84  1  0  0  0
 38 85  1  0  0  0
M  END
> <s_m_source_file>
BACE_10.smi

> <i_m_source_file_index>
1

> <i_lp_mmshare_version>
42013

> <i_f3d_flags>
0

> <s_epik_input>
W05IXTFbQ0gyXVtDSDJdW0NIMl1bQ0gyXU9bQ0gyXVtDSDJdW0NAQEhdKFtDSDNdKVtDSDJdW0NASF0oW05IXUMoPU8pYyhbY0hdMilbY0hdYyhbY0hdYzEyKVtDSDJdT1tDSDNdKVtDQEhdKFtPSF0pW0NIMl1bTkhdW0NIMl1jM1tjSF1bY0hdW2NIXWMoW2NIXTMpW0NIXShbQ0gzXSlbQ0gzXQ==

> <s_epik_cmdline>
J2VwaWtfcHl0aG9uJywgJy1waCcsICc3LjAnLCAnLXRuJywgJzgnLCAnLW1hJywgJzIwMCcsICctaW1hZScsICc8aW5maWxlLm1hZT4nLCAnLW9tYWUnLCAnPG91dGZpbGUubWFlPic=

> <r_epik_Ionization_Penalty>
  2.1223

> <r_epik_Ionization_Penalty_Charging>
  0.0000

> <r_epik_Ionization_Penalty_Neutral>
  2.1223

> <r_epik_State_Penalty>
  2.2595

> <r_epik_Charging_Adjusted_Penalty>
2.2595

> <i_epik_Tot_Q>
0

> <i_epik_Tot_abs_Q>
0

> <s_lp_Force_Field>
OPLS_2005

> <r_lp_Energy>
40.6464

> <b_lp_Chiralities_Consistent>
1

> <s_lp_Variant>
BACE_10.smi:1-2

> <chiral flag>
1

> <version>
0

> <r_i_glide_lipo>
-0.931813

> <r_i_glide_hbond>
-0.609587

> <r_i_glide_metal>
-0

> <r_i_glide_rewards>
0

> <r_i_glide_erotb>
0.446868

> <r_i_glide_esite>
-0.0218639

> <chiral flag>
1

> <s_i_glide_gridfile>
second_dock_grid_2

> <i_i_glide_lignum>
21

> <i_i_glide_rotatable_bonds>
9

> <r_i_docking_score>
-1.15847

> <r_i_glide_ligand_efficiency>
-0.0304861

> <r_i_glide_ligand_efficiency_sa>
-0.102493

> <r_i_glide_ligand_efficiency_ln>
-0.2498

> <r_glide_XP_GScore>
-3.41797

> <r_i_glide_gscore>
-3.41797

> <r_i_glide_evdw>
-42.1071

> <r_i_glide_ecoul>
-7.87801

> <r_i_glide_energy>
-49.9851

> <r_i_glide_einternal>
7.99064

> <r_i_glide_emodel>
-71.8043

> <r_glide_XP_HBond>
-0.7

> <i_i_glide_confnum>
1

> <i_i_glide_posenum>
3

> <r_i_glide_eff_state_penalty>
2.2595

> <i_glide_XP_PoseRank>
4

$$$$
BACE_10.smi:1
                    3D
 Structure written by MMmdl.
 85 87  0  0  1  0            999 V2000
   20.5622   38.7727   -7.1742 C   0  0  0  0  0  0
   20.2172   39.4651   -8.5081 C   0  0  2  0  0  0
   19.8511   38.4295   -9.5998 C   0  0  0  0  0  0
   18.5984   37.5929   -9.3070 C   0  0  0  0  0  0
   17.4944   38.4443   -9.0660 O   0  0  0  0  0  0
   16.2559   37.7546   -9.0210 C   0  0  0  0  0  0
   15.1783   38.6392   -8.3828 C   0  0  0  0  0  0
   15.0959   40.0498   -8.9901 C   0  0  0  0  0  0
   15.9787   41.0674   -8.2460 C   0  0  0  0  0  0
   15.9267   42.3823   -8.8691 N   0  0  0  0  0  0
   16.7496   42.7519   -9.9408 C   0  0  0  0  0  0
   16.5160   44.0112  -10.5297 C   0  0  0  0  0  0
   17.3032   44.4624  -11.6058 C   0  0  0  0  0  0
   18.3398   43.6432  -12.0910 C   0  0  0  0  0  0
   18.6216   42.4006  -11.4924 C   0  0  0  0  0  0
   17.7949   41.9385  -10.4406 C   0  0  0  0  0  0
   19.7595   41.5779  -12.0311 C   0  0  0  0  0  0
   19.8121   41.3482  -13.2379 O   0  0  0  0  0  0
   20.7298   41.1561  -11.2005 N   0  0  0  0  0  0
   21.0326   41.5966   -9.8323 C   0  0  1  0  0  0
   21.3894   40.3859   -8.9325 C   0  0  0  0  0  0
   22.1645   42.6661   -9.8389 C   0  0  1  0  0  0
   23.4873   42.2619  -10.5293 C   0  0  0  0  0  0
   24.3270   41.4410   -9.6532 N   0  0  0  0  0  0
   25.5734   40.9727  -10.2700 C   0  0  0  0  0  0
   26.6601   42.0216  -10.4478 C   0  0  0  0  0  0
   26.7245   43.1850   -9.6484 C   0  0  0  0  0  0
   27.7759   44.1044   -9.8230 C   0  0  0  0  0  0
   28.7684   43.8660  -10.7915 C   0  0  0  0  0  0
   28.7154   42.7050  -11.5928 C   0  0  0  0  0  0
   27.6593   41.7877  -11.4116 C   0  0  0  0  0  0
   29.7828   42.4275  -12.6434 C   0  0  0  0  0  0
   31.1486   42.1581  -11.9936 C   0  0  0  0  0  0
   29.8515   43.5530  -13.6880 C   0  0  0  0  0  0
   21.6739   43.8332  -10.4735 O   0  0  0  0  0  0
   17.0110   45.8132  -12.2409 C   0  0  0  0  0  0
   18.0565   46.3176  -13.0641 O   0  0  0  0  0  0
   19.1466   46.8623  -12.3334 C   0  0  0  0  0  0
   19.3485   40.0958   -8.3157 H   0  0  0  0  0  0
   20.1663   42.0750   -9.3750 H   0  0  0  0  0  0
   22.3803   42.9612   -8.8110 H   0  0  0  0  0  0
   21.4470   38.1440   -7.2714 H   0  0  0  0  0  0
   19.7444   38.1541   -6.8108 H   0  0  0  0  0  0
   20.7663   39.5048   -6.3932 H   0  0  0  0  0  0
   19.6785   38.9301  -10.5490 H   0  0  0  0  0  0
   20.6959   37.7590   -9.7651 H   0  0  0  0  0  0
   18.3954   36.9465  -10.1618 H   0  0  0  0  0  0
   18.7504   36.9487   -8.4443 H   0  0  0  0  0  0
   15.9694   37.4703  -10.0344 H   0  0  0  0  0  0
   16.3488   36.8332   -8.4402 H   0  0  0  0  0  0
   14.2101   38.1506   -8.5067 H   0  0  0  0  0  0
   15.3347   38.7020   -7.3035 H   0  0  0  0  0  0
   15.3504   40.0131  -10.0476 H   0  0  0  0  0  0
   14.0599   40.3916   -8.9381 H   0  0  0  0  0  0
   15.6148   41.1735   -7.2218 H   0  0  0  0  0  0
   17.0058   40.7188   -8.1538 H   0  0  0  0  0  0
   15.2605   43.0389   -8.4899 H   0  0  0  0  0  0
   15.7182   44.6391  -10.1556 H   0  0  0  0  0  0
   18.9523   43.9865  -12.9116 H   0  0  0  0  0  0
   17.9902   40.9625  -10.0217 H   0  0  0  0  0  0
   21.4469   40.5917  -11.6339 H   0  0  0  0  0  0
   21.8391   40.7897   -8.0249 H   0  0  0  0  0  0
   22.1700   39.7807   -9.3981 H   0  0  0  0  0  0
   23.2775   41.7507  -11.4642 H   0  0  0  0  0  0
   24.0408   43.1599  -10.8022 H   0  0  0  0  0  0
   23.8120   40.6369   -9.3142 H   0  0  0  0  0  0
   26.0084   40.1929   -9.6426 H   0  0  0  0  0  0
   25.3653   40.5151  -11.2368 H   0  0  0  0  0  0
   25.9746   43.3705   -8.8929 H   0  0  0  0  0  0
   27.8211   44.9911   -9.2079 H   0  0  0  0  0  0
   29.5743   44.5745  -10.9106 H   0  0  0  0  0  0
   27.6217   40.8883  -12.0117 H   0  0  0  0  0  0
   29.4961   41.5188  -13.1761 H   0  0  0  0  0  0
   31.0823   41.3279  -11.2915 H   0  0  0  0  0  0
   31.5138   43.0269  -11.4459 H   0  0  0  0  0  0
   31.8952   41.8973  -12.7435 H   0  0  0  0  0  0
   28.8738   43.7197  -14.1416 H   0  0  0  0  0  0
   30.5503   43.3017  -14.4866 H   0  0  0  0  0  0
   30.1791   44.4947  -13.2457 H   0  0  0  0  0  0
   22.3356   44.5017  -10.4064 H   0  0  0  0  0  0
   16.1261   45.6938  -12.8654 H   0  0  0  0  0  0
   16.7462   46.5426  -11.4724 H   0  0  0  0  0  0
   19.9008   47.2274  -13.0288 H   0  0  0  0  0  0
   19.6218   46.1230  -11.6878 H   0  0  0  0  0  0
   18.8245   47.7008  -11.7150 H   0  0  0  0  0  0
  1  2  1  0  0  0
  1 42  1  0  0  0
  1 43  1  0  0  0
  1 44  1  0  0  0
  2 39  1  0  0  0
  2 21  1  0  0  0
  2  3  1  0  0  0
  3  4  1  0  0  0
  3 45  1  0  0  0
  3 46  1  0  0  0
  4  5  1  0  0  0
  4 47  1  0  0  0
  4 48  1  0  0  0
  5  6  1  0  0  0
  6  7  1  0  0  0
  6 49  1  0  0  0
  6 50  1  0  0  0
  7  8  1  0  0  0
  7 51  1  0  0  0
  7 52  1  0  0  0
  8  9  1  0  0  0
  8 53  1  0  0  0
  8 54  1  0  0  0
  9 10  1  0  0  0
  9 55  1  0  0  0
  9 56  1  0  0  0
 10 11  1  0  0  0
 10 57  1  0  0  0
 11 16  1  0  0  0
 11 12  2  0  0  0
 12 13  1  0  0  0
 12 58  1  0  0  0
 13 14  2  0  0  0
 13 36  1  0  0  0
 14 15  1  0  0  0
 14 59  1  0  0  0
 15 16  2  0  0  0
 15 17  1  0  0  0
 16 60  1  0  0  0
 17 18  2  0  0  0
 17 19  1  0  0  0
 19 20  1  0  0  0
 19 61  1  0  0  0
 20 40  1  0  0  0
 20 21  1  0  0  0
 20 22  1  0  0  0
 21 62  1  0  0  0
 21 63  1  0  0  0
 22 41  1  0  0  0
 22 23  1  0  0  0
 22 35  1  0  0  0
 23 24  1  0  0  0
 23 64  1  0  0  0
 23 65  1  0  0  0
 24 25  1  0  0  0
 24 66  1  0  0  0
 25 26  1  0  0  0
 25 67  1  0  0  0
 25 68  1  0  0  0
 26 31  1  0  0  0
 26 27  2  0  0  0
 27 28  1  0  0  0
 27 69  1  0  0  0
 28 29  2  0  0  0
 28 70  1  0  0  0
 29 30  1  0  0  0
 29 71  1  0  0  0
 30 31  2  0  0  0
 30 32  1  0  0  0
 31 72  1  0  0  0
 32 33  1  0  0  0
 32 34  1  0  0  0
 32 73  1  0  0  0
 33 74  1  0  0  0
 33 75  1  0  0  0
 33 76  1  0  0  0
 34 77  1  0  0  0
 34 78  1  0  0  0
 34 79  1  0  0  0
 35 80  1  0  0  0
 36 37  1  0  0  0
 36 81  1  0  0  0
 36 82  1  0  0  0
 37 38  1  0  0  0
 38 83  1  0  0  0
 38 84  1  0  0  0
 38 85  1  0  0  0
M  END
> <s_m_source_file>
BACE_10.smi

> <i_m_source_file_index>
1

> <i_lp_mmshare_version>
42013

> <i_f3d_flags>
0

> <s_epik_input>
W05IXTFbQ0gyXVtDSDJdW0NIMl1bQ0gyXU9bQ0gyXVtDSDJdW0NAQEhdKFtDSDNdKVtDSDJdW0NASF0oW05IXUMoPU8pYyhbY0hdMilbY0hdYyhbY0hdYzEyKVtDSDJdT1tDSDNdKVtDQEhdKFtPSF0pW0NIMl1bTkhdW0NIMl1jM1tjSF1bY0hdW2NIXWMoW2NIXTMpW0NIXShbQ0gzXSlbQ0gzXQ==

> <s_epik_cmdline>
J2VwaWtfcHl0aG9uJywgJy1waCcsICc3LjAnLCAnLXRuJywgJzgnLCAnLW1hJywgJzIwMCcsICctaW1hZScsICc8aW5maWxlLm1hZT4nLCAnLW9tYWUnLCAnPG91dGZpbGUubWFlPic=

> <r_epik_Ionization_Penalty>
  2.1223

> <r_epik_Ionization_Penalty_Charging>
  0.0000

> <r_epik_Ionization_Penalty_Neutral>
  2.1223

> <r_epik_State_Penalty>
  2.2595

> <r_epik_Charging_Adjusted_Penalty>
2.2595

> <i_epik_Tot_Q>
0

> <i_epik_Tot_abs_Q>
0

> <s_lp_Force_Field>
OPLS_2005

> <r_lp_Energy>
40.6464

> <b_lp_Chiralities_Consistent>
1

> <s_lp_Variant>
BACE_10.smi:1-2

> <chiral flag>
1

> <version>
0

> <r_i_glide_lipo>
-0.931813

> <r_i_glide_hbond>
-0.609587

> <r_i_glide_metal>
-0

> <r_i_glide_rewards>
0

> <r_i_glide_erotb>
0.446868

> <r_i_glide_esite>
-0.0218639

> <chiral flag>
1

> <s_i_glide_gridfile>
second_dock_grid_2

> <i_i_glide_lignum>
21

> <i_i_glide_rotatable_bonds>
9

> <r_i_docking_score>
0.0332213

> <r_i_glide_ligand_efficiency>
0.000874244

> <r_i_glide_ligand_efficiency_sa>
0.00293919

> <r_i_glide_ligand_efficiency_ln>
0.00716349

> <r_glide_XP_GScore>
-2.22628

> <r_i_glide_gscore>
-2.22628

> <r_i_glide_evdw>
-41.8577

> <r_i_glide_ecoul>
-7.00378

> <r_i_glide_energy>
-48.8615

> <r_i_glide_einternal>
4.58948

> <r_i_glide_emodel>
-68.0174

> <r_glide_XP_HBond>
-0.7

> <i_i_glide_confnum>
1

> <i_i_glide_posenum>
7

> <r_i_glide_eff_state_penalty>
2.2595

> <i_glide_XP_PoseRank>
5

$$$$
BACE_11.smi:1
                    3D
 Structure written by MMmdl.
 81 83  0  0  1  0            999 V2000
   21.9043   41.7990   -4.3102 C   0  0  0  0  0  0
   21.5898   41.7259   -5.8187 C   0  0  1  0  0  0
   20.6908   40.5435   -6.2385 C   0  0  0  0  0  0
   20.8763   39.4580   -5.6985 O   0  0  0  0  0  0
   19.8052   40.7188   -7.2377 N   0  0  0  0  0  0
   19.0320   39.6809   -7.9434 C   0  0  1  0  0  0
   19.9174   38.7567   -8.8147 C   0  0  0  0  0  0
   20.5783   39.5490   -9.9321 C   0  0  0  0  0  0
   19.9752   39.6166  -11.2048 C   0  0  0  0  0  0
   20.5201   40.4528  -12.1959 C   0  0  0  0  0  0
   21.6518   41.2436  -11.9116 C   0  0  0  0  0  0
   22.2724   41.1770  -10.6395 C   0  0  0  0  0  0
   21.7443   40.3005   -9.6731 C   0  0  0  0  0  0
   23.3628   41.9302  -10.2630 O   0  0  0  0  0  0
   23.7883   42.9759  -11.1221 C   0  0  0  0  0  0
   24.8588   43.8199  -10.4137 C   0  0  0  0  0  0
   24.3131   44.7999   -9.3536 C   0  0  0  0  0  0
   24.5681   44.4030   -7.8816 C   0  0  0  0  0  0
   23.6023   43.3647   -7.2674 C   0  0  0  0  0  0
   22.1718   43.8750   -6.9883 C   0  0  0  0  0  0
   21.8776   45.0220   -7.3321 O   0  0  0  0  0  0
   21.2747   43.0729   -6.3544 N   0  0  0  0  0  0
   19.9988   43.6742   -5.9350 C   0  0  0  0  0  0
   17.9362   38.9841   -7.0856 C   0  0  1  0  0  0
   16.7540   38.4297   -7.9246 C   0  0  0  0  0  0
   15.4377   38.5502   -7.2405 N   0  3  0  0  0  0
   14.9510   39.9217   -6.9536 C   0  0  0  0  0  0
   15.2182   40.8739   -8.1136 C   0  0  0  0  0  0
   14.4609   40.7760   -9.3002 C   0  0  0  0  0  0
   14.7410   41.6189  -10.3904 C   0  0  0  0  0  0
   15.8032   42.5398  -10.3159 C   0  0  0  0  0  0
   16.5871   42.6255   -9.1437 C   0  0  0  0  0  0
   16.2628   41.8176   -8.0345 C   0  0  0  0  0  0
   17.7835   43.5621   -9.0501 C   0  0  0  0  0  0
   17.3443   44.9769   -8.6480 C   0  0  0  0  0  0
   18.6582   43.5667  -10.3172 C   0  0  0  0  0  0
   18.4598   37.8828   -6.3763 O   0  0  0  0  0  0
   22.5222   41.3823   -6.2587 H   0  0  0  0  0  0
   18.4702   40.2842   -8.6563 H   0  0  0  0  0  0
   17.5633   39.7207   -6.3829 H   0  0  0  0  0  0
   22.2434   40.8362   -3.9221 H   0  0  0  0  0  0
   21.0242   42.0930   -3.7362 H   0  0  0  0  0  0
   22.6933   42.5235   -4.1051 H   0  0  0  0  0  0
   19.7321   41.6524   -7.6106 H   0  0  0  0  0  0
   20.6773   38.2597   -8.2093 H   0  0  0  0  0  0
   19.3137   37.9619   -9.2565 H   0  0  0  0  0  0
   19.0838   39.0443  -11.4219 H   0  0  0  0  0  0
   20.0553   40.4984  -13.1698 H   0  0  0  0  0  0
   22.0418   41.8792  -12.6913 H   0  0  0  0  0  0
   22.2121   40.2491   -8.7005 H   0  0  0  0  0  0
   24.2099   42.5509  -12.0336 H   0  0  0  0  0  0
   22.9487   43.6088  -11.4135 H   0  0  0  0  0  0
   25.6359   43.1776  -10.0000 H   0  0  0  0  0  0
   25.3524   44.4120  -11.1840 H   0  0  0  0  0  0
   24.8221   45.7525   -9.5105 H   0  0  0  0  0  0
   23.2592   45.0214   -9.5307 H   0  0  0  0  0  0
   25.5918   44.0410   -7.7829 H   0  0  0  0  0  0
   24.5325   45.3082   -7.2720 H   0  0  0  0  0  0
   23.5654   42.4753   -7.8931 H   0  0  0  0  0  0
   24.0312   43.0555   -6.3141 H   0  0  0  0  0  0
   19.5420   44.2588   -6.7322 H   0  0  0  0  0  0
   20.1715   44.3496   -5.0929 H   0  0  0  0  0  0
   19.2604   42.9459   -5.6089 H   0  0  0  0  0  0
   16.7001   38.9206   -8.8960 H   0  0  0  0  0  0
   16.9155   37.3781   -8.1674 H   0  0  0  0  0  0
   14.7495   38.1141   -7.8337 H   0  0  0  0  0  0
   13.8838   39.8582   -6.7527 H   0  0  0  0  0  0
   15.4044   40.3057   -6.0389 H   0  0  0  0  0  0
   13.6547   40.0596   -9.3748 H   0  0  0  0  0  0
   14.1392   41.5488  -11.2828 H   0  0  0  0  0  0
   16.0138   43.1717  -11.1640 H   0  0  0  0  0  0
   16.8455   41.8954   -7.1267 H   0  0  0  0  0  0
   18.4144   43.1667   -8.2550 H   0  0  0  0  0  0
   16.8075   44.9608   -7.6970 H   0  0  0  0  0  0
   16.6853   45.4184   -9.3977 H   0  0  0  0  0  0
   18.2055   45.6349   -8.5315 H   0  0  0  0  0  0
   18.9634   42.5543  -10.5921 H   0  0  0  0  0  0
   19.5670   44.1480  -10.1548 H   0  0  0  0  0  0
   18.1402   44.0071  -11.1697 H   0  0  0  0  0  0
   17.7424   37.3593   -6.0398 H   0  0  0  0  0  0
   15.4633   37.9989   -6.3792 H   0  0  0  0  0  0
  1  2  1  0  0  0
  1 41  1  0  0  0
  1 42  1  0  0  0
  1 43  1  0  0  0
  2 38  1  0  0  0
  2 22  1  0  0  0
  2  3  1  0  0  0
  3  4  2  0  0  0
  3  5  1  0  0  0
  5  6  1  0  0  0
  5 44  1  0  0  0
  6 39  1  0  0  0
  6  7  1  0  0  0
  6 24  1  0  0  0
  7  8  1  0  0  0
  7 45  1  0  0  0
  7 46  1  0  0  0
  8 13  1  0  0  0
  8  9  2  0  0  0
  9 10  1  0  0  0
  9 47  1  0  0  0
 10 11  2  0  0  0
 10 48  1  0  0  0
 11 12  1  0  0  0
 11 49  1  0  0  0
 12 13  2  0  0  0
 12 14  1  0  0  0
 13 50  1  0  0  0
 14 15  1  0  0  0
 15 16  1  0  0  0
 15 51  1  0  0  0
 15 52  1  0  0  0
 16 17  1  0  0  0
 16 53  1  0  0  0
 16 54  1  0  0  0
 17 18  1  0  0  0
 17 55  1  0  0  0
 17 56  1  0  0  0
 18 19  1  0  0  0
 18 57  1  0  0  0
 18 58  1  0  0  0
 19 20  1  0  0  0
 19 59  1  0  0  0
 19 60  1  0  0  0
 20 21  2  0  0  0
 20 22  1  0  0  0
 22 23  1  0  0  0
 23 61  1  0  0  0
 23 62  1  0  0  0
 23 63  1  0  0  0
 24 40  1  0  0  0
 24 25  1  0  0  0
 24 37  1  0  0  0
 25 26  1  0  0  0
 25 64  1  0  0  0
 25 65  1  0  0  0
 26 27  1  0  0  0
 26 66  1  0  0  0
 26 81  1  0  0  0
 27 28  1  0  0  0
 27 67  1  0  0  0
 27 68  1  0  0  0
 28 33  1  0  0  0
 28 29  2  0  0  0
 29 30  1  0  0  0
 29 69  1  0  0  0
 30 31  2  0  0  0
 30 70  1  0  0  0
 31 32  1  0  0  0
 31 71  1  0  0  0
 32 33  2  0  0  0
 32 34  1  0  0  0
 33 72  1  0  0  0
 34 35  1  0  0  0
 34 36  1  0  0  0
 34 73  1  0  0  0
 35 74  1  0  0  0
 35 75  1  0  0  0
 35 76  1  0  0  0
 36 77  1  0  0  0
 36 78  1  0  0  0
 36 79  1  0  0  0
 37 80  1  0  0  0
M  CHG  1  26   1
M  END
> <s_m_source_file>
BACE_11.smi

> <i_m_source_file_index>
1

> <i_lp_mmshare_version>
42013

> <i_f3d_flags>
0

> <s_epik_input>
YzEyW2NIXVtjSF1bY0hdYyhbY0hdMilPW0NIMl1bQ0gyXVtDSDJdW0NIMl1bQ0gyXUMoPU8pTihbQ0gzXSlbQ0BASF0oW0NIM10pQyg9TylbTkhdW0NAQEhdKFtDSDJdMSlbQ0BIXShbT0hdKVtDSDJdW05IXVtDSDJdYzNbY0hdW2NIXVtjSF1jKFtjSF0zKVtDSF0oW0NIM10pW0NIM10=

> <s_epik_cmdline>
J2VwaWtfcHl0aG9uJywgJy1waCcsICc3LjAnLCAnLXRuJywgJzgnLCAnLW1hJywgJzIwMCcsICctaW1hZScsICc8aW5maWxlLm1hZT4nLCAnLW9tYWUnLCAnPG91dGZpbGUubWFlPic=

> <r_lp_tautomer_probability>
1

> <r_epik_Ionization_Penalty>
  0.0210

> <r_epik_Ionization_Penalty_Charging>
  0.0210

> <r_epik_Ionization_Penalty_Neutral>
  0.0000

> <r_epik_State_Penalty>
  0.0169

> <r_epik_Charging_Adjusted_Penalty>
0.0378979

> <i_epik_Tot_Q>
1

> <i_epik_Tot_abs_Q>
1

> <s_lp_Force_Field>
OPLS_2005

> <r_lp_Energy>
36.6322

> <b_lp_Chiralities_Consistent>
1

> <s_lp_Variant>
BACE_11.smi:1-1

> <chiral flag>
1

> <version>
0

> <r_i_glide_lipo>
-0.730831

> <r_i_glide_hbond>
-0.32

> <r_i_glide_metal>
-0

> <r_i_glide_rewards>
-0.348713

> <r_i_glide_erotb>
0.39279

> <r_i_glide_esite>
-0.036294

> <chiral flag>
1

> <s_i_glide_gridfile>
second_dock_grid_2

> <i_i_glide_lignum>
22

> <i_i_glide_rotatable_bonds>
7

> <r_i_docking_score>
-6.49107

> <r_i_glide_ligand_efficiency>
-0.175434

> <r_i_glide_ligand_efficiency_sa>
-0.584586

> <r_i_glide_ligand_efficiency_ln>
-1.40776

> <r_glide_XP_GScore>
-6.50797

> <r_i_glide_gscore>
-6.50797

> <r_i_glide_evdw>
-35.5078

> <r_i_glide_ecoul>
-12.6975

> <r_i_glide_energy>
-48.2054

> <r_i_glide_einternal>
8.36808

> <r_i_glide_emodel>
-62.0036

> <r_glide_XP_HBond>
-0.319272

> <i_i_glide_confnum>
1

> <i_i_glide_posenum>
35

> <r_i_glide_eff_state_penalty>
0.0169

> <i_glide_XP_PoseRank>
1

$$$$
BACE_11.smi:1
                    3D
 Structure written by MMmdl.
 81 83  0  0  1  0            999 V2000
   21.2994   42.3886   -4.5207 C   0  0  0  0  0  0
   21.1769   42.0462   -6.0190 C   0  0  1  0  0  0
   20.4602   40.7123   -6.3197 C   0  0  0  0  0  0
   20.7440   39.7329   -5.6423 O   0  0  0  0  0  0
   19.5983   40.6496   -7.3513 N   0  0  0  0  0  0
   19.0184   39.4458   -7.9652 C   0  0  1  0  0  0
   20.1259   38.5856   -8.6371 C   0  0  0  0  0  0
   20.7632   39.3724   -9.7711 C   0  0  0  0  0  0
   20.2151   39.2945  -11.0658 C   0  0  0  0  0  0
   20.6737   40.1632  -12.0705 C   0  0  0  0  0  0
   21.6639   41.1222  -11.7806 C   0  0  0  0  0  0
   22.2493   41.1816  -10.4929 C   0  0  0  0  0  0
   21.8093   40.2797   -9.5077 C   0  0  0  0  0  0
   23.2203   42.0792  -10.1115 O   0  0  0  0  0  0
   23.6586   43.0524  -11.0457 C   0  0  0  0  0  0
   24.6237   44.0327  -10.3600 C   0  0  0  0  0  0
   23.9335   45.1259   -9.5147 C   0  0  0  0  0  0
   24.0191   44.9504   -7.9805 C   0  0  0  0  0  0
   23.1377   43.8461   -7.3529 C   0  0  0  0  0  0
   21.6150   44.1091   -7.3976 C   0  0  0  0  0  0
   21.2034   45.1212   -7.9672 O   0  0  0  0  0  0
   20.7601   43.2415   -6.7910 N   0  0  0  0  0  0
   19.3349   43.5901   -6.7435 C   0  0  0  0  0  0
   17.9795   38.7053   -7.0709 C   0  0  1  0  0  0
   16.6966   39.5654   -6.8262 C   0  0  0  0  0  0
   15.3808   38.9502   -7.1336 N   0  3  0  0  0  0
   14.9854   38.8113   -8.5597 C   0  0  0  0  0  0
   15.4438   39.9443   -9.4741 C   0  0  0  0  0  0
   16.4662   39.7154  -10.4150 C   0  0  0  0  0  0
   16.9183   40.7565  -11.2438 C   0  0  0  0  0  0
   16.3321   42.0306  -11.1752 C   0  0  0  0  0  0
   15.3024   42.2768  -10.2387 C   0  0  0  0  0  0
   14.8599   41.2287   -9.3965 C   0  0  0  0  0  0
   14.6644   43.6547  -10.1248 C   0  0  0  0  0  0
   13.6215   43.8691  -11.2353 C   0  0  0  0  0  0
   15.7074   44.7861  -10.0985 C   0  0  0  0  0  0
   17.6603   37.4465   -7.6407 O   0  0  0  0  0  0
   22.1870   41.7757   -6.3206 H   0  0  0  0  0  0
   18.4399   39.8440   -8.7926 H   0  0  0  0  0  0
   18.4400   38.4813   -6.1070 H   0  0  0  0  0  0
   21.6677   41.5413   -3.9415 H   0  0  0  0  0  0
   20.3311   42.6713   -4.1017 H   0  0  0  0  0  0
   21.9895   43.2156   -4.3549 H   0  0  0  0  0  0
   19.4177   41.5177   -7.8323 H   0  0  0  0  0  0
   20.8790   38.2727   -7.9142 H   0  0  0  0  0  0
   19.7161   37.6699   -9.0627 H   0  0  0  0  0  0
   19.4234   38.5923  -11.2840 H   0  0  0  0  0  0
   20.2474   40.1091  -13.0610 H   0  0  0  0  0  0
   21.9873   41.7830  -12.5719 H   0  0  0  0  0  0
   22.2428   40.3335   -8.5210 H   0  0  0  0  0  0
   24.1834   42.5512  -11.8598 H   0  0  0  0  0  0
   22.8209   43.5994  -11.4789 H   0  0  0  0  0  0
   25.3720   43.4885   -9.7787 H   0  0  0  0  0  0
   25.1789   44.5321  -11.1557 H   0  0  0  0  0  0
   24.4340   46.0701   -9.7369 H   0  0  0  0  0  0
   22.9029   45.2760   -9.8437 H   0  0  0  0  0  0
   25.0571   44.7678   -7.7021 H   0  0  0  0  0  0
   23.7620   45.9027   -7.5145 H   0  0  0  0  0  0
   23.3653   42.8895   -7.8178 H   0  0  0  0  0  0
   23.4264   43.7606   -6.3038 H   0  0  0  0  0  0
   18.8723   43.4762   -7.7237 H   0  0  0  0  0  0
   19.1833   44.6183   -6.4091 H   0  0  0  0  0  0
   18.8021   42.9499   -6.0413 H   0  0  0  0  0  0
   16.6187   39.7497   -5.7620 H   0  0  0  0  0  0
   16.7768   40.5578   -7.2723 H   0  0  0  0  0  0
   15.3367   38.0428   -6.6691 H   0  0  0  0  0  0
   15.3690   37.8648   -8.9433 H   0  0  0  0  0  0
   13.8967   38.7299   -8.6047 H   0  0  0  0  0  0
   16.9221   38.7394  -10.4868 H   0  0  0  0  0  0
   17.7067   40.5701  -11.9550 H   0  0  0  0  0  0
   16.6948   42.8130  -11.8243 H   0  0  0  0  0  0
   14.0626   41.4041   -8.6913 H   0  0  0  0  0  0
   14.1376   43.6900   -9.1667 H   0  0  0  0  0  0
   12.8417   43.1074  -11.1854 H   0  0  0  0  0  0
   14.0784   43.8239  -12.2246 H   0  0  0  0  0  0
   13.1332   44.8392  -11.1408 H   0  0  0  0  0  0
   16.4481   44.6123   -9.3173 H   0  0  0  0  0  0
   15.2424   45.7523   -9.9017 H   0  0  0  0  0  0
   16.2372   44.8786  -11.0476 H   0  0  0  0  0  0
   17.1115   36.9557   -7.0207 H   0  0  0  0  0  0
   14.6908   39.5373   -6.6798 H   0  0  0  0  0  0
  1  2  1  0  0  0
  1 41  1  0  0  0
  1 42  1  0  0  0
  1 43  1  0  0  0
  2 38  1  0  0  0
  2 22  1  0  0  0
  2  3  1  0  0  0
  3  4  2  0  0  0
  3  5  1  0  0  0
  5  6  1  0  0  0
  5 44  1  0  0  0
  6 39  1  0  0  0
  6  7  1  0  0  0
  6 24  1  0  0  0
  7  8  1  0  0  0
  7 45  1  0  0  0
  7 46  1  0  0  0
  8 13  1  0  0  0
  8  9  2  0  0  0
  9 10  1  0  0  0
  9 47  1  0  0  0
 10 11  2  0  0  0
 10 48  1  0  0  0
 11 12  1  0  0  0
 11 49  1  0  0  0
 12 13  2  0  0  0
 12 14  1  0  0  0
 13 50  1  0  0  0
 14 15  1  0  0  0
 15 16  1  0  0  0
 15 51  1  0  0  0
 15 52  1  0  0  0
 16 17  1  0  0  0
 16 53  1  0  0  0
 16 54  1  0  0  0
 17 18  1  0  0  0
 17 55  1  0  0  0
 17 56  1  0  0  0
 18 19  1  0  0  0
 18 57  1  0  0  0
 18 58  1  0  0  0
 19 20  1  0  0  0
 19 59  1  0  0  0
 19 60  1  0  0  0
 20 21  2  0  0  0
 20 22  1  0  0  0
 22 23  1  0  0  0
 23 61  1  0  0  0
 23 62  1  0  0  0
 23 63  1  0  0  0
 24 40  1  0  0  0
 24 25  1  0  0  0
 24 37  1  0  0  0
 25 26  1  0  0  0
 25 64  1  0  0  0
 25 65  1  0  0  0
 26 27  1  0  0  0
 26 66  1  0  0  0
 26 81  1  0  0  0
 27 28  1  0  0  0
 27 67  1  0  0  0
 27 68  1  0  0  0
 28 33  1  0  0  0
 28 29  2  0  0  0
 29 30  1  0  0  0
 29 69  1  0  0  0
 30 31  2  0  0  0
 30 70  1  0  0  0
 31 32  1  0  0  0
 31 71  1  0  0  0
 32 33  2  0  0  0
 32 34  1  0  0  0
 33 72  1  0  0  0
 34 35  1  0  0  0
 34 36  1  0  0  0
 34 73  1  0  0  0
 35 74  1  0  0  0
 35 75  1  0  0  0
 35 76  1  0  0  0
 36 77  1  0  0  0
 36 78  1  0  0  0
 36 79  1  0  0  0
 37 80  1  0  0  0
M  CHG  1  26   1
M  END
> <s_m_source_file>
BACE_11.smi

> <i_m_source_file_index>
1

> <i_lp_mmshare_version>
42013

> <i_f3d_flags>
0

> <s_epik_input>
YzEyW2NIXVtjSF1bY0hdYyhbY0hdMilPW0NIMl1bQ0gyXVtDSDJdW0NIMl1bQ0gyXUMoPU8pTihbQ0gzXSlbQ0BASF0oW0NIM10pQyg9TylbTkhdW0NAQEhdKFtDSDJdMSlbQ0BIXShbT0hdKVtDSDJdW05IXVtDSDJdYzNbY0hdW2NIXVtjSF1jKFtjSF0zKVtDSF0oW0NIM10pW0NIM10=

> <s_epik_cmdline>
J2VwaWtfcHl0aG9uJywgJy1waCcsICc3LjAnLCAnLXRuJywgJzgnLCAnLW1hJywgJzIwMCcsICctaW1hZScsICc8aW5maWxlLm1hZT4nLCAnLW9tYWUnLCAnPG91dGZpbGUubWFlPic=

> <r_lp_tautomer_probability>
1

> <r_epik_Ionization_Penalty>
  0.0210

> <r_epik_Ionization_Penalty_Charging>
  0.0210

> <r_epik_Ionization_Penalty_Neutral>
  0.0000

> <r_epik_State_Penalty>
  0.0169

> <r_epik_Charging_Adjusted_Penalty>
0.0378979

> <i_epik_Tot_Q>
1

> <i_epik_Tot_abs_Q>
1

> <s_lp_Force_Field>
OPLS_2005

> <r_lp_Energy>
36.6322

> <b_lp_Chiralities_Consistent>
1

> <s_lp_Variant>
BACE_11.smi:1-1

> <chiral flag>
1

> <version>
0

> <r_i_glide_lipo>
-0.730831

> <r_i_glide_hbond>
-0.32

> <r_i_glide_metal>
-0

> <r_i_glide_rewards>
-0.348713

> <r_i_glide_erotb>
0.39279

> <r_i_glide_esite>
-0.036294

> <chiral flag>
1

> <s_i_glide_gridfile>
second_dock_grid_2

> <i_i_glide_lignum>
22

> <i_i_glide_rotatable_bonds>
7

> <r_i_docking_score>
-6.14676

> <r_i_glide_ligand_efficiency>
-0.166129

> <r_i_glide_ligand_efficiency_sa>
-0.553578

> <r_i_glide_ligand_efficiency_ln>
-1.33309

> <r_glide_XP_GScore>
-6.16366

> <r_i_glide_gscore>
-6.16366

> <r_i_glide_evdw>
-34.1213

> <r_i_glide_ecoul>
-15.6663

> <r_i_glide_energy>
-49.7876

> <r_i_glide_einternal>
19.9428

> <r_i_glide_emodel>
-63.5145

> <r_glide_XP_HBond>
-0.319272

> <i_i_glide_confnum>
1

> <i_i_glide_posenum>
3

> <r_i_glide_eff_state_penalty>
0.0169

> <i_glide_XP_PoseRank>
2

$$$$
BACE_11.smi:1
                    3D
 Structure written by MMmdl.
 81 83  0  0  1  0            999 V2000
   22.2602   41.6068   -4.3662 C   0  0  0  0  0  0
   21.7257   41.6602   -5.8130 C   0  0  1  0  0  0
   20.8500   40.4643   -6.2432 C   0  0  0  0  0  0
   21.1809   39.3475   -5.8738 O   0  0  0  0  0  0
   19.8333   40.6723   -7.1003 N   0  0  0  0  0  0
   19.0398   39.6703   -7.8313 C   0  0  1  0  0  0
   19.8821   38.7649   -8.7687 C   0  0  0  0  0  0
   20.5373   39.5586   -9.8894 C   0  0  0  0  0  0
   19.9705   39.5705  -11.1807 C   0  0  0  0  0  0
   20.5365   40.3731  -12.1892 C   0  0  0  0  0  0
   21.6461   41.1927  -11.9038 C   0  0  0  0  0  0
   22.2164   41.1970  -10.6080 C   0  0  0  0  0  0
   21.6825   40.3398   -9.6300 C   0  0  0  0  0  0
   23.2570   42.0073  -10.2154 O   0  0  0  0  0  0
   23.6993   43.0181  -11.1073 C   0  0  0  0  0  0
   24.5910   44.0054  -10.3400 C   0  0  0  0  0  0
   23.8183   44.9770   -9.4175 C   0  0  0  0  0  0
   24.1405   44.8279   -7.9165 C   0  0  0  0  0  0
   23.4066   43.6656   -7.2136 C   0  0  0  0  0  0
   21.9364   43.9482   -6.8306 C   0  0  0  0  0  0
   21.4411   45.0355   -7.1357 O   0  0  0  0  0  0
   21.2242   43.0110   -6.1500 N   0  0  0  0  0  0
   19.9188   43.3791   -5.5851 C   0  0  0  0  0  0
   17.9561   38.9472   -6.9754 C   0  0  1  0  0  0
   16.6939   38.5676   -7.7937 C   0  0  0  0  0  0
   15.4172   38.9500   -7.1326 N   0  3  0  0  0  0
   15.1310   40.3992   -6.9869 C   0  0  0  0  0  0
   15.5122   41.2223   -8.2100 C   0  0  0  0  0  0
   14.8596   40.9975   -9.4402 C   0  0  0  0  0  0
   15.2493   41.7087  -10.5882 C   0  0  0  0  0  0
   16.2859   42.6567  -10.5127 C   0  0  0  0  0  0
   16.9245   42.9181   -9.2804 C   0  0  0  0  0  0
   16.5322   42.1947   -8.1315 C   0  0  0  0  0  0
   18.0389   43.9539   -9.1880 C   0  0  0  0  0  0
   17.6491   45.3015   -9.8171 C   0  0  0  0  0  0
   19.3513   43.4133   -9.7755 C   0  0  0  0  0  0
   18.4600   37.7501   -6.4321 O   0  0  0  0  0  0
   22.6049   41.4490   -6.4150 H   0  0  0  0  0  0
   18.4743   40.3118   -8.5063 H   0  0  0  0  0  0
   17.6707   39.5722   -6.1395 H   0  0  0  0  0  0
   22.7230   40.6438   -4.1459 H   0  0  0  0  0  0
   21.4635   41.7592   -3.6381 H   0  0  0  0  0  0
   23.0180   42.3714   -4.1931 H   0  0  0  0  0  0
   19.6384   41.6349   -7.3284 H   0  0  0  0  0  0
   20.6454   38.2208   -8.2120 H   0  0  0  0  0  0
   19.2439   38.0001   -9.2126 H   0  0  0  0  0  0
   19.0981   38.9722  -11.4024 H   0  0  0  0  0  0
   20.1080   40.3707  -13.1804 H   0  0  0  0  0  0
   22.0490   41.8024  -12.6978 H   0  0  0  0  0  0
   22.1376   40.3278   -8.6527 H   0  0  0  0  0  0
   24.2688   42.5528  -11.9128 H   0  0  0  0  0  0
   22.8657   43.5601  -11.5561 H   0  0  0  0  0  0
   25.3548   43.4577   -9.7866 H   0  0  0  0  0  0
   25.1362   44.5987  -11.0753 H   0  0  0  0  0  0
   24.0837   45.9938   -9.7102 H   0  0  0  0  0  0
   22.7432   44.9063   -9.5859 H   0  0  0  0  0  0
   25.2164   44.7039   -7.7897 H   0  0  0  0  0  0
   23.9058   45.7634   -7.4059 H   0  0  0  0  0  0
   23.4672   42.7825   -7.8466 H   0  0  0  0  0  0
   23.9430   43.4309   -6.2938 H   0  0  0  0  0  0
   19.1333   43.2701   -6.3280 H   0  0  0  0  0  0
   19.9037   44.4067   -5.2184 H   0  0  0  0  0  0
   19.6605   42.7503   -4.7342 H   0  0  0  0  0  0
   16.7252   39.0013   -8.7918 H   0  0  0  0  0  0
   16.6654   37.4936   -7.9903 H   0  0  0  0  0  0
   14.6692   38.5649   -7.6903 H   0  0  0  0  0  0
   14.0600   40.5087   -6.8399 H   0  0  0  0  0  0
   15.6183   40.7882   -6.0912 H   0  0  0  0  0  0
   14.0648   40.2679   -9.5102 H   0  0  0  0  0  0
   14.7527   41.5191  -11.5265 H   0  0  0  0  0  0
   16.5856   43.1852  -11.4045 H   0  0  0  0  0  0
   17.0220   42.3729   -7.1846 H   0  0  0  0  0  0
   18.2077   44.1554   -8.1315 H   0  0  0  0  0  0
   16.7314   45.6882   -9.3735 H   0  0  0  0  0  0
   17.4965   45.2224  -10.8927 H   0  0  0  0  0  0
   18.4317   46.0441   -9.6562 H   0  0  0  0  0  0
   19.6633   42.5032   -9.2656 H   0  0  0  0  0  0
   20.1609   44.1364   -9.6704 H   0  0  0  0  0  0
   19.2525   43.1777  -10.8358 H   0  0  0  0  0  0
   17.7456   37.2545   -6.0443 H   0  0  0  0  0  0
   15.3615   38.4943   -6.2211 H   0  0  0  0  0  0
  1  2  1  0  0  0
  1 41  1  0  0  0
  1 42  1  0  0  0
  1 43  1  0  0  0
  2 38  1  0  0  0
  2 22  1  0  0  0
  2  3  1  0  0  0
  3  4  2  0  0  0
  3  5  1  0  0  0
  5  6  1  0  0  0
  5 44  1  0  0  0
  6 39  1  0  0  0
  6  7  1  0  0  0
  6 24  1  0  0  0
  7  8  1  0  0  0
  7 45  1  0  0  0
  7 46  1  0  0  0
  8 13  1  0  0  0
  8  9  2  0  0  0
  9 10  1  0  0  0
  9 47  1  0  0  0
 10 11  2  0  0  0
 10 48  1  0  0  0
 11 12  1  0  0  0
 11 49  1  0  0  0
 12 13  2  0  0  0
 12 14  1  0  0  0
 13 50  1  0  0  0
 14 15  1  0  0  0
 15 16  1  0  0  0
 15 51  1  0  0  0
 15 52  1  0  0  0
 16 17  1  0  0  0
 16 53  1  0  0  0
 16 54  1  0  0  0
 17 18  1  0  0  0
 17 55  1  0  0  0
 17 56  1  0  0  0
 18 19  1  0  0  0
 18 57  1  0  0  0
 18 58  1  0  0  0
 19 20  1  0  0  0
 19 59  1  0  0  0
 19 60  1  0  0  0
 20 21  2  0  0  0
 20 22  1  0  0  0
 22 23  1  0  0  0
 23 61  1  0  0  0
 23 62  1  0  0  0
 23 63  1  0  0  0
 24 40  1  0  0  0
 24 25  1  0  0  0
 24 37  1  0  0  0
 25 26  1  0  0  0
 25 64  1  0  0  0
 25 65  1  0  0  0
 26 27  1  0  0  0
 26 66  1  0  0  0
 26 81  1  0  0  0
 27 28  1  0  0  0
 27 67  1  0  0  0
 27 68  1  0  0  0
 28 33  1  0  0  0
 28 29  2  0  0  0
 29 30  1  0  0  0
 29 69  1  0  0  0
 30 31  2  0  0  0
 30 70  1  0  0  0
 31 32  1  0  0  0
 31 71  1  0  0  0
 32 33  2  0  0  0
 32 34  1  0  0  0
 33 72  1  0  0  0
 34 35  1  0  0  0
 34 36  1  0  0  0
 34 73  1  0  0  0
 35 74  1  0  0  0
 35 75  1  0  0  0
 35 76  1  0  0  0
 36 77  1  0  0  0
 36 78  1  0  0  0
 36 79  1  0  0  0
 37 80  1  0  0  0
M  CHG  1  26   1
M  END
> <s_m_source_file>
BACE_11.smi

> <i_m_source_file_index>
1

> <i_lp_mmshare_version>
42013

> <i_f3d_flags>
0

> <s_epik_input>
YzEyW2NIXVtjSF1bY0hdYyhbY0hdMilPW0NIMl1bQ0gyXVtDSDJdW0NIMl1bQ0gyXUMoPU8pTihbQ0gzXSlbQ0BASF0oW0NIM10pQyg9TylbTkhdW0NAQEhdKFtDSDJdMSlbQ0BIXShbT0hdKVtDSDJdW05IXVtDSDJdYzNbY0hdW2NIXVtjSF1jKFtjSF0zKVtDSF0oW0NIM10pW0NIM10=

> <s_epik_cmdline>
J2VwaWtfcHl0aG9uJywgJy1waCcsICc3LjAnLCAnLXRuJywgJzgnLCAnLW1hJywgJzIwMCcsICctaW1hZScsICc8aW5maWxlLm1hZT4nLCAnLW9tYWUnLCAnPG91dGZpbGUubWFlPic=

> <r_lp_tautomer_probability>
1

> <r_epik_Ionization_Penalty>
  0.0210

> <r_epik_Ionization_Penalty_Charging>
  0.0210

> <r_epik_Ionization_Penalty_Neutral>
  0.0000

> <r_epik_State_Penalty>
  0.0169

> <r_epik_Charging_Adjusted_Penalty>
0.0378979

> <i_epik_Tot_Q>
1

> <i_epik_Tot_abs_Q>
1

> <s_lp_Force_Field>
OPLS_2005

> <r_lp_Energy>
36.6322

> <b_lp_Chiralities_Consistent>
1

> <s_lp_Variant>
BACE_11.smi:1-1

> <chiral flag>
1

> <version>
0

> <r_i_glide_lipo>
-0.730831

> <r_i_glide_hbond>
-0.32

> <r_i_glide_metal>
-0

> <r_i_glide_rewards>
-0.348713

> <r_i_glide_erotb>
0.39279

> <r_i_glide_esite>
-0.036294

> <chiral flag>
1

> <s_i_glide_gridfile>
second_dock_grid_2

> <i_i_glide_lignum>
22

> <i_i_glide_rotatable_bonds>
7

> <r_i_docking_score>
-6.01365

> <r_i_glide_ligand_efficiency>
-0.162531

> <r_i_glide_ligand_efficiency_sa>
-0.54159

> <r_i_glide_ligand_efficiency_ln>
-1.30422

> <r_glide_XP_GScore>
-6.03055

> <r_i_glide_gscore>
-6.03055

> <r_i_glide_evdw>
-35.6611

> <r_i_glide_ecoul>
-12.5861

> <r_i_glide_energy>
-48.2472

> <r_i_glide_einternal>
12.2678

> <r_i_glide_emodel>
-57.2097

> <r_glide_XP_HBond>
-0.319272

> <i_i_glide_confnum>
1

> <i_i_glide_posenum>
42

> <r_i_glide_eff_state_penalty>
0.0169

> <i_glide_XP_PoseRank>
3

$$$$
BACE_11.smi:1
                    3D
 Structure written by MMmdl.
 81 83  0  0  1  0            999 V2000
   21.9242   41.8868   -4.3629 C   0  0  0  0  0  0
   21.6261   41.7499   -5.8689 C   0  0  1  0  0  0
   20.7343   40.5496   -6.2549 C   0  0  0  0  0  0
   20.9075   39.4815   -5.6814 O   0  0  0  0  0  0
   19.8623   40.7066   -7.2659 N   0  0  0  0  0  0
   19.0852   39.6783   -7.9708 C   0  0  1  0  0  0
   19.9588   38.7539   -8.8526 C   0  0  0  0  0  0
   20.6102   39.5537   -9.9690 C   0  0  0  0  0  0
   19.9987   39.6343  -11.2367 C   0  0  0  0  0  0
   20.5275   40.4937  -12.2168 C   0  0  0  0  0  0
   21.6489   41.2946  -11.9243 C   0  0  0  0  0  0
   22.2807   41.2114  -10.6591 C   0  0  0  0  0  0
   21.7696   40.3101   -9.7069 C   0  0  0  0  0  0
   23.3634   41.9687  -10.2701 O   0  0  0  0  0  0
   23.8198   42.9967  -11.1355 C   0  0  0  0  0  0
   24.8975   43.8285  -10.4222 C   0  0  0  0  0  0
   24.3550   44.8408   -9.3891 C   0  0  0  0  0  0
   24.5871   44.4777   -7.9051 C   0  0  0  0  0  0
   23.6384   43.4237   -7.2894 C   0  0  0  0  0  0
   22.1801   43.8854   -7.0841 C   0  0  0  0  0  0
   21.8471   45.0026   -7.4870 O   0  0  0  0  0  0
   21.2901   43.0693   -6.4577 N   0  0  0  0  0  0
   19.9378   43.5914   -6.2070 C   0  0  0  0  0  0
   17.9810   38.9928   -7.1164 C   0  0  1  0  0  0
   16.7181   38.6391   -7.9448 C   0  0  0  0  0  0
   15.4471   38.9501   -7.2444 N   0  3  0  0  0  0
   15.1400   40.3786   -6.9914 C   0  0  0  0  0  0
   15.4804   41.3601   -8.1133 C   0  0  0  0  0  0
   16.6505   42.1431   -8.0405 C   0  0  0  0  0  0
   16.9069   43.1306   -9.0045 C   0  0  0  0  0  0
   15.9751   43.3795  -10.0269 C   0  0  0  0  0  0
   14.7842   42.6196  -10.1140 C   0  0  0  0  0  0
   14.5797   41.5773   -9.1798 C   0  0  0  0  0  0
   13.7076   42.9102  -11.1699 C   0  0  0  0  0  0
   13.9921   44.1513  -12.0411 C   0  0  0  0  0  0
   12.3051   43.0507  -10.5461 C   0  0  0  0  0  0
   18.4601   37.7925   -6.5446 O   0  0  0  0  0  0
   22.5648   41.4073   -6.2953 H   0  0  0  0  0  0
   18.5387   40.2975   -8.6788 H   0  0  0  0  0  0
   17.7064   39.6664   -6.3148 H   0  0  0  0  0  0
   22.2613   40.9426   -3.9334 H   0  0  0  0  0  0
   21.0395   42.2018   -3.8102 H   0  0  0  0  0  0
   22.7097   42.6208   -4.1810 H   0  0  0  0  0  0
   19.8154   41.6342   -7.6603 H   0  0  0  0  0  0
   20.7219   38.2506   -8.2545 H   0  0  0  0  0  0
   19.3459   37.9652   -9.2917 H   0  0  0  0  0  0
   19.1106   39.0579  -11.4538 H   0  0  0  0  0  0
   20.0587   40.5516  -13.1877 H   0  0  0  0  0  0
   22.0282   41.9483  -12.6941 H   0  0  0  0  0  0
   22.2460   40.2481   -8.7397 H   0  0  0  0  0  0
   24.2497   42.5502  -12.0323 H   0  0  0  0  0  0
   22.9997   43.6415  -11.4534 H   0  0  0  0  0  0
   25.6505   43.1745   -9.9788 H   0  0  0  0  0  0
   25.4226   44.3952  -11.1918 H   0  0  0  0  0  0
   24.8780   45.7817   -9.5624 H   0  0  0  0  0  0
   23.3077   45.0678   -9.5862 H   0  0  0  0  0  0
   25.6194   44.1483   -7.7761 H   0  0  0  0  0  0
   24.5101   45.3917   -7.3134 H   0  0  0  0  0  0
   23.6590   42.5183   -7.8937 H   0  0  0  0  0  0
   24.0415   43.1547   -6.3126 H   0  0  0  0  0  0
   19.3932   43.7142   -7.1450 H   0  0  0  0  0  0
   19.9821   44.5652   -5.7130 H   0  0  0  0  0  0
   19.3443   42.9492   -5.5585 H   0  0  0  0  0  0
   16.7077   39.1479   -8.9079 H   0  0  0  0  0  0
   16.7123   37.5760   -8.1935 H   0  0  0  0  0  0
   14.6945   38.5907   -7.8102 H   0  0  0  0  0  0
   14.0658   40.4280   -6.8394 H   0  0  0  0  0  0
   15.6080   40.7005   -6.0602 H   0  0  0  0  0  0
   17.3523   42.0015   -7.2353 H   0  0  0  0  0  0
   17.8068   43.7218   -8.9447 H   0  0  0  0  0  0
   16.1954   44.1750  -10.7197 H   0  0  0  0  0  0
   13.6833   40.9771   -9.2404 H   0  0  0  0  0  0
   13.6855   42.0403  -11.8247 H   0  0  0  0  0  0
   14.9469   44.0836  -12.5610 H   0  0  0  0  0  0
   14.0101   45.0620  -11.4400 H   0  0  0  0  0  0
   13.2239   44.2746  -12.8061 H   0  0  0  0  0  0
   11.9834   42.1379  -10.0438 H   0  0  0  0  0  0
   11.5571   43.2696  -11.3103 H   0  0  0  0  0  0
   12.2830   43.8566   -9.8108 H   0  0  0  0  0  0
   17.7358   37.3136   -6.1552 H   0  0  0  0  0  0
   15.4131   38.4389   -6.3630 H   0  0  0  0  0  0
  1  2  1  0  0  0
  1 41  1  0  0  0
  1 42  1  0  0  0
  1 43  1  0  0  0
  2 38  1  0  0  0
  2 22  1  0  0  0
  2  3  1  0  0  0
  3  4  2  0  0  0
  3  5  1  0  0  0
  5  6  1  0  0  0
  5 44  1  0  0  0
  6 39  1  0  0  0
  6  7  1  0  0  0
  6 24  1  0  0  0
  7  8  1  0  0  0
  7 45  1  0  0  0
  7 46  1  0  0  0
  8 13  1  0  0  0
  8  9  2  0  0  0
  9 10  1  0  0  0
  9 47  1  0  0  0
 10 11  2  0  0  0
 10 48  1  0  0  0
 11 12  1  0  0  0
 11 49  1  0  0  0
 12 13  2  0  0  0
 12 14  1  0  0  0
 13 50  1  0  0  0
 14 15  1  0  0  0
 15 16  1  0  0  0
 15 51  1  0  0  0
 15 52  1  0  0  0
 16 17  1  0  0  0
 16 53  1  0  0  0
 16 54  1  0  0  0
 17 18  1  0  0  0
 17 55  1  0  0  0
 17 56  1  0  0  0
 18 19  1  0  0  0
 18 57  1  0  0  0
 18 58  1  0  0  0
 19 20  1  0  0  0
 19 59  1  0  0  0
 19 60  1  0  0  0
 20 21  2  0  0  0
 20 22  1  0  0  0
 22 23  1  0  0  0
 23 61  1  0  0  0
 23 62  1  0  0  0
 23 63  1  0  0  0
 24 40  1  0  0  0
 24 25  1  0  0  0
 24 37  1  0  0  0
 25 26  1  0  0  0
 25 64  1  0  0  0
 25 65  1  0  0  0
 26 27  1  0  0  0
 26 66  1  0  0  0
 26 81  1  0  0  0
 27 28  1  0  0  0
 27 67  1  0  0  0
 27 68  1  0  0  0
 28 33  1  0  0  0
 28 29  2  0  0  0
 29 30  1  0  0  0
 29 69  1  0  0  0
 30 31  2  0  0  0
 30 70  1  0  0  0
 31 32  1  0  0  0
 31 71  1  0  0  0
 32 33  2  0  0  0
 32 34  1  0  0  0
 33 72  1  0  0  0
 34 35  1  0  0  0
 34 36  1  0  0  0
 34 73  1  0  0  0
 35 74  1  0  0  0
 35 75  1  0  0  0
 35 76  1  0  0  0
 36 77  1  0  0  0
 36 78  1  0  0  0
 36 79  1  0  0  0
 37 80  1  0  0  0
M  CHG  1  26   1
M  END
> <s_m_source_file>
BACE_11.smi

> <i_m_source_file_index>
1

> <i_lp_mmshare_version>
42013

> <i_f3d_flags>
0

> <s_epik_input>
YzEyW2NIXVtjSF1bY0hdYyhbY0hdMilPW0NIMl1bQ0gyXVtDSDJdW0NIMl1bQ0gyXUMoPU8pTihbQ0gzXSlbQ0BASF0oW0NIM10pQyg9TylbTkhdW0NAQEhdKFtDSDJdMSlbQ0BIXShbT0hdKVtDSDJdW05IXVtDSDJdYzNbY0hdW2NIXVtjSF1jKFtjSF0zKVtDSF0oW0NIM10pW0NIM10=

> <s_epik_cmdline>
J2VwaWtfcHl0aG9uJywgJy1waCcsICc3LjAnLCAnLXRuJywgJzgnLCAnLW1hJywgJzIwMCcsICctaW1hZScsICc8aW5maWxlLm1hZT4nLCAnLW9tYWUnLCAnPG91dGZpbGUubWFlPic=

> <r_lp_tautomer_probability>
1

> <r_epik_Ionization_Penalty>
  0.0210

> <r_epik_Ionization_Penalty_Charging>
  0.0210

> <r_epik_Ionization_Penalty_Neutral>
  0.0000

> <r_epik_State_Penalty>
  0.0169

> <r_epik_Charging_Adjusted_Penalty>
0.0378979

> <i_epik_Tot_Q>
1

> <i_epik_Tot_abs_Q>
1

> <s_lp_Force_Field>
OPLS_2005

> <r_lp_Energy>
36.6322

> <b_lp_Chiralities_Consistent>
1

> <s_lp_Variant>
BACE_11.smi:1-1

> <chiral flag>
1

> <version>
0

> <r_i_glide_lipo>
-0.730831

> <r_i_glide_hbond>
-0.32

> <r_i_glide_metal>
-0

> <r_i_glide_rewards>
-0.348713

> <r_i_glide_erotb>
0.39279

> <r_i_glide_esite>
-0.036294

> <chiral flag>
1

> <s_i_glide_gridfile>
second_dock_grid_2

> <i_i_glide_lignum>
22

> <i_i_glide_rotatable_bonds>
7

> <r_i_docking_score>
-5.98724

> <r_i_glide_ligand_efficiency>
-0.161817

> <r_i_glide_ligand_efficiency_sa>
-0.539211

> <r_i_glide_ligand_efficiency_ln>
-1.29849

> <r_glide_XP_GScore>
-6.00414

> <r_i_glide_gscore>
-6.00414

> <r_i_glide_evdw>
-35.8335

> <r_i_glide_ecoul>
-12.2681

> <r_i_glide_energy>
-48.1016

> <r_i_glide_einternal>
9.41052

> <r_i_glide_emodel>
-62.4048

> <r_glide_XP_HBond>
-0.319272

> <i_i_glide_confnum>
1

> <i_i_glide_posenum>
1

> <r_i_glide_eff_state_penalty>
0.0169

> <i_glide_XP_PoseRank>
4

$$$$
BACE_11.smi:1
                    3D
 Structure written by MMmdl.
 81 83  0  0  1  0            999 V2000
   21.9784   41.3689   -4.8139 C   0  0  0  0  0  0
   21.7852   41.2946   -6.3416 C   0  0  1  0  0  0
   20.9988   40.0555   -6.8202 C   0  0  0  0  0  0
   21.3676   38.9501   -6.4396 O   0  0  0  0  0  0
   19.9840   40.1999   -7.6928 N   0  0  0  0  0  0
   19.2567   39.1189   -8.3845 C   0  0  1  0  0  0
   20.1524   38.4358   -9.4484 C   0  0  0  0  0  0
   20.7333   39.4660  -10.4021 C   0  0  0  0  0  0
   20.0154   39.8436  -11.5539 C   0  0  0  0  0  0
   20.4868   40.8939  -12.3603 C   0  0  0  0  0  0
   21.6562   41.5905  -11.9981 C   0  0  0  0  0  0
   22.3843   41.2219  -10.8397 C   0  0  0  0  0  0
   21.9351   40.1284  -10.0807 C   0  0  0  0  0  0
   23.5081   41.8737  -10.3788 O   0  0  0  0  0  0
   24.0349   42.9500  -11.1421 C   0  0  0  0  0  0
   25.1628   43.6509  -10.3673 C   0  0  0  0  0  0
   24.6765   44.7157   -9.3608 C   0  0  0  0  0  0
   24.7541   44.3187   -7.8721 C   0  0  0  0  0  0
   23.8098   43.1905   -7.4017 C   0  0  0  0  0  0
   22.3043   43.5248   -7.3890 C   0  0  0  0  0  0
   21.9394   44.6253   -7.8079 O   0  0  0  0  0  0
   21.4143   42.6220   -6.8935 N   0  0  0  0  0  0
   20.0154   43.0465   -6.7385 C   0  0  0  0  0  0
   18.5519   38.1369   -7.4052 C   0  0  1  0  0  0
   17.7623   38.8322   -6.2956 C   0  0  0  0  0  0
   16.8124   39.8052   -6.8400 N   0  3  0  0  0  0
   15.4535   39.3615   -7.1607 C   0  0  0  0  0  0
   15.0852   40.1435   -8.3976 C   0  0  0  0  0  0
   15.0249   39.5052   -9.6503 C   0  0  0  0  0  0
   14.7059   40.2507  -10.7985 C   0  0  0  0  0  0
   14.4374   41.6312  -10.6974 C   0  0  0  0  0  0
   14.4997   42.2790   -9.4458 C   0  0  0  0  0  0
   14.8600   41.5327   -8.3033 C   0  0  0  0  0  0
   14.1024   43.7467   -9.3208 C   0  0  0  0  0  0
   15.2170   44.6164   -8.7231 C   0  0  0  0  0  0
   12.7942   43.9044   -8.5288 C   0  0  0  0  0  0
   17.6603   37.2554   -8.0624 O   0  0  0  0  0  0
   22.7684   41.0269   -6.7226 H   0  0  0  0  0  0
   18.4713   39.6269   -8.9462 H   0  0  0  0  0  0
   19.3157   37.5471   -6.9194 H   0  0  0  0  0  0
   22.3361   40.4221   -4.4080 H   0  0  0  0  0  0
   21.0433   41.6098   -4.3076 H   0  0  0  0  0  0
   22.7071   42.1312   -4.5407 H   0  0  0  0  0  0
   19.7814   41.1411   -7.9921 H   0  0  0  0  0  0
   20.9618   37.8782   -8.9764 H   0  0  0  0  0  0
   19.5718   37.7103  -10.0188 H   0  0  0  0  0  0
   19.0887   39.3473  -11.8035 H   0  0  0  0  0  0
   19.9355   41.1817  -13.2409 H   0  0  0  0  0  0
   22.0001   42.3901  -12.6325 H   0  0  0  0  0  0
   22.4938   39.8353   -9.2043 H   0  0  0  0  0  0
   24.4365   42.5502  -12.0730 H   0  0  0  0  0  0
   23.2651   43.6776  -11.4014 H   0  0  0  0  0  0
   25.8188   42.9198   -9.8913 H   0  0  0  0  0  0
   25.7838   44.1603  -11.1055 H   0  0  0  0  0  0
   25.3151   45.5914   -9.4829 H   0  0  0  0  0  0
   23.6795   45.0665   -9.6226 H   0  0  0  0  0  0
   25.7802   44.0276   -7.6443 H   0  0  0  0  0  0
   24.5661   45.2058   -7.2658 H   0  0  0  0  0  0
   23.9934   42.2969   -7.9960 H   0  0  0  0  0  0
   24.0935   42.9501   -6.3768 H   0  0  0  0  0  0
   19.5044   43.0508   -7.7012 H   0  0  0  0  0  0
   19.9447   44.0491   -6.3138 H   0  0  0  0  0  0
   19.4719   42.3956   -6.0575 H   0  0  0  0  0  0
   17.2599   38.1497   -5.6373 H   0  0  0  0  0  0
   18.4653   39.3499   -5.6456 H   0  0  0  0  0  0
   16.7426   40.5532   -6.1559 H   0  0  0  0  0  0
   15.3927   38.2883   -7.3516 H   0  0  0  0  0  0
   14.7786   39.5863   -6.3326 H   0  0  0  0  0  0
   15.2109   38.4437   -9.7357 H   0  0  0  0  0  0
   14.6282   39.7516  -11.7500 H   0  0  0  0  0  0
   14.1491   42.1850  -11.5781 H   0  0  0  0  0  0
   14.8947   42.0115   -7.3339 H   0  0  0  0  0  0
   13.9138   44.1233  -10.3273 H   0  0  0  0  0  0
   16.1112   44.5991   -9.3477 H   0  0  0  0  0  0
   15.5043   44.2877   -7.7247 H   0  0  0  0  0  0
   14.8804   45.6504   -8.6407 H   0  0  0  0  0  0
   11.9838   43.3394   -8.9879 H   0  0  0  0  0  0
   12.4751   44.9439   -8.4916 H   0  0  0  0  0  0
   12.9003   43.5577   -7.5010 H   0  0  0  0  0  0
   17.1344   36.8041   -7.4002 H   0  0  0  0  0  0
   17.2122   40.1907   -7.6800 H   0  0  0  0  0  0
  1  2  1  0  0  0
  1 41  1  0  0  0
  1 42  1  0  0  0
  1 43  1  0  0  0
  2 38  1  0  0  0
  2 22  1  0  0  0
  2  3  1  0  0  0
  3  4  2  0  0  0
  3  5  1  0  0  0
  5  6  1  0  0  0
  5 44  1  0  0  0
  6 39  1  0  0  0
  6  7  1  0  0  0
  6 24  1  0  0  0
  7  8  1  0  0  0
  7 45  1  0  0  0
  7 46  1  0  0  0
  8 13  1  0  0  0
  8  9  2  0  0  0
  9 10  1  0  0  0
  9 47  1  0  0  0
 10 11  2  0  0  0
 10 48  1  0  0  0
 11 12  1  0  0  0
 11 49  1  0  0  0
 12 13  2  0  0  0
 12 14  1  0  0  0
 13 50  1  0  0  0
 14 15  1  0  0  0
 15 16  1  0  0  0
 15 51  1  0  0  0
 15 52  1  0  0  0
 16 17  1  0  0  0
 16 53  1  0  0  0
 16 54  1  0  0  0
 17 18  1  0  0  0
 17 55  1  0  0  0
 17 56  1  0  0  0
 18 19  1  0  0  0
 18 57  1  0  0  0
 18 58  1  0  0  0
 19 20  1  0  0  0
 19 59  1  0  0  0
 19 60  1  0  0  0
 20 21  2  0  0  0
 20 22  1  0  0  0
 22 23  1  0  0  0
 23 61  1  0  0  0
 23 62  1  0  0  0
 23 63  1  0  0  0
 24 40  1  0  0  0
 24 25  1  0  0  0
 24 37  1  0  0  0
 25 26  1  0  0  0
 25 64  1  0  0  0
 25 65  1  0  0  0
 26 27  1  0  0  0
 26 66  1  0  0  0
 26 81  1  0  0  0
 27 28  1  0  0  0
 27 67  1  0  0  0
 27 68  1  0  0  0
 28 33  1  0  0  0
 28 29  2  0  0  0
 29 30  1  0  0  0
 29 69  1  0  0  0
 30 31  2  0  0  0
 30 70  1  0  0  0
 31 32  1  0  0  0
 31 71  1  0  0  0
 32 33  2  0  0  0
 32 34  1  0  0  0
 33 72  1  0  0  0
 34 35  1  0  0  0
 34 36  1  0  0  0
 34 73  1  0  0  0
 35 74  1  0  0  0
 35 75  1  0  0  0
 35 76  1  0  0  0
 36 77  1  0  0  0
 36 78  1  0  0  0
 36 79  1  0  0  0
 37 80  1  0  0  0
M  CHG  1  26   1
M  END
> <s_m_source_file>
BACE_11.smi

> <i_m_source_file_index>
1

> <i_lp_mmshare_version>
42013

> <i_f3d_flags>
0

> <s_epik_input>
YzEyW2NIXVtjSF1bY0hdYyhbY0hdMilPW0NIMl1bQ0gyXVtDSDJdW0NIMl1bQ0gyXUMoPU8pTihbQ0gzXSlbQ0BASF0oW0NIM10pQyg9TylbTkhdW0NAQEhdKFtDSDJdMSlbQ0BIXShbT0hdKVtDSDJdW05IXVtDSDJdYzNbY0hdW2NIXVtjSF1jKFtjSF0zKVtDSF0oW0NIM10pW0NIM10=

> <s_epik_cmdline>
J2VwaWtfcHl0aG9uJywgJy1waCcsICc3LjAnLCAnLXRuJywgJzgnLCAnLW1hJywgJzIwMCcsICctaW1hZScsICc8aW5maWxlLm1hZT4nLCAnLW9tYWUnLCAnPG91dGZpbGUubWFlPic=

> <r_lp_tautomer_probability>
1

> <r_epik_Ionization_Penalty>
  0.0210

> <r_epik_Ionization_Penalty_Charging>
  0.0210

> <r_epik_Ionization_Penalty_Neutral>
  0.0000

> <r_epik_State_Penalty>
  0.0169

> <r_epik_Charging_Adjusted_Penalty>
0.0378979

> <i_epik_Tot_Q>
1

> <i_epik_Tot_abs_Q>
1

> <s_lp_Force_Field>
OPLS_2005

> <r_lp_Energy>
36.6322

> <b_lp_Chiralities_Consistent>
1

> <s_lp_Variant>
BACE_11.smi:1-1

> <chiral flag>
1

> <version>
0

> <r_i_glide_lipo>
-0.730831

> <r_i_glide_hbond>
-0.32

> <r_i_glide_metal>
-0

> <r_i_glide_rewards>
-0.348713

> <r_i_glide_erotb>
0.39279

> <r_i_glide_esite>
-0.036294

> <chiral flag>
1

> <s_i_glide_gridfile>
second_dock_grid_2

> <i_i_glide_lignum>
22

> <i_i_glide_rotatable_bonds>
7

> <r_i_docking_score>
-4.97431

> <r_i_glide_ligand_efficiency>
-0.134441

> <r_i_glide_ligand_efficiency_sa>
-0.447986

> <r_i_glide_ligand_efficiency_ln>
-1.07881

> <r_glide_XP_GScore>
-4.99121

> <r_i_glide_gscore>
-4.99121

> <r_i_glide_evdw>
-38.4469

> <r_i_glide_ecoul>
-10.7221

> <r_i_glide_energy>
-49.169

> <r_i_glide_einternal>
3.91937

> <r_i_glide_emodel>
-54.9145

> <r_glide_XP_HBond>
-0.319272

> <i_i_glide_confnum>
1

> <i_i_glide_posenum>
15

> <r_i_glide_eff_state_penalty>
0.0169

> <i_glide_XP_PoseRank>
5

$$$$
BACE_11.smi:1
                    3D
 Structure written by MMmdl.
 81 83  0  0  1  0            999 V2000
   21.0490   42.1157   -4.8721 C   0  0  0  0  0  0
   21.0206   41.7767   -6.3755 C   0  0  1  0  0  0
   20.3324   40.4389   -6.7270 C   0  0  0  0  0  0
   20.5951   39.4517   -6.0452 O   0  0  0  0  0  0
   19.5333   40.3744   -7.8079 N   0  0  0  0  0  0
   18.9848   39.1583   -8.4403 C   0  0  1  0  0  0
   20.1162   38.4321   -9.2103 C   0  0  0  0  0  0
   20.7299   39.3746  -10.2354 C   0  0  0  0  0  0
   20.0956   39.5600  -11.4790 C   0  0  0  0  0  0
   20.5661   40.5387  -12.3727 C   0  0  0  0  0  0
   21.6599   41.3500  -12.0182 C   0  0  0  0  0  0
   22.3134   41.1679  -10.7745 C   0  0  0  0  0  0
   21.8563   40.1569   -9.9058 C   0  0  0  0  0  0
   23.3678   41.9353  -10.3304 O   0  0  0  0  0  0
   23.8422   42.9848  -11.1594 C   0  0  0  0  0  0
   24.8429   43.8511  -10.3761 C   0  0  0  0  0  0
   24.1953   44.9409   -9.4935 C   0  0  0  0  0  0
   24.0981   44.6351   -7.9813 C   0  0  0  0  0  0
   23.1229   43.5252   -7.5279 C   0  0  0  0  0  0
   21.6177   43.8159   -7.7222 C   0  0  0  0  0  0
   21.2879   44.8221   -8.3545 O   0  0  0  0  0  0
   20.6880   42.9779   -7.1836 N   0  0  0  0  0  0
   19.2676   43.3687   -7.2580 C   0  0  0  0  0  0
   18.1139   38.2836   -7.4786 C   0  0  1  0  0  0
   16.7127   38.8552   -7.1659 C   0  0  0  0  0  0
   16.6406   40.3246   -7.2400 N   0  3  0  0  0  0
   15.2787   40.8689   -7.2563 C   0  0  0  0  0  0
   14.9101   41.2733   -8.6679 C   0  0  0  0  0  0
   14.8588   40.3132   -9.7016 C   0  0  0  0  0  0
   14.4599   40.6873  -10.9928 C   0  0  0  0  0  0
   14.0595   42.0127  -11.2400 C   0  0  0  0  0  0
   14.1478   42.9886  -10.2311 C   0  0  0  0  0  0
   14.5897   42.6178   -8.9457 C   0  0  0  0  0  0
   13.7627   44.4247  -10.5260 C   0  0  0  0  0  0
   12.3154   44.5416  -11.0315 C   0  0  0  0  0  0
   14.7580   45.0805  -11.4965 C   0  0  0  0  0  0
   17.8496   37.0145   -8.0401 O   0  0  0  0  0  0
   22.0445   41.4879   -6.6005 H   0  0  0  0  0  0
   18.3036   39.5100   -9.2171 H   0  0  0  0  0  0
   18.6393   38.0916   -6.5442 H   0  0  0  0  0  0
   21.3861   41.2682   -4.2753 H   0  0  0  0  0  0
   20.0618   42.3977   -4.5082 H   0  0  0  0  0  0
   21.7261   42.9448   -4.6643 H   0  0  0  0  0  0
   19.4473   41.2288   -8.3389 H   0  0  0  0  0  0
   20.8847   38.0658   -8.5293 H   0  0  0  0  0  0
   19.7298   37.5579   -9.7354 H   0  0  0  0  0  0
   19.2292   38.9681  -11.7374 H   0  0  0  0  0  0
   20.0733   40.6769  -13.3224 H   0  0  0  0  0  0
   21.9916   42.0983  -12.7230 H   0  0  0  0  0  0
   22.3436   40.0221   -8.9524 H   0  0  0  0  0  0
   24.3384   42.5502  -12.0285 H   0  0  0  0  0  0
   23.0284   43.6130  -11.5245 H   0  0  0  0  0  0
   25.5323   43.2292   -9.8037 H   0  0  0  0  0  0
   25.4606   44.3621  -11.1170 H   0  0  0  0  0  0
   24.8169   45.8337   -9.5825 H   0  0  0  0  0  0
   23.2321   45.2421   -9.9024 H   0  0  0  0  0  0
   25.0950   44.3884   -7.6136 H   0  0  0  0  0  0
   23.8231   45.5561   -7.4644 H   0  0  0  0  0  0
   23.3841   42.5872   -8.0121 H   0  0  0  0  0  0
   23.2950   43.3735   -6.4631 H   0  0  0  0  0  0
   18.8280   43.0576   -8.2067 H   0  0  0  0  0  0
   19.1318   44.4489   -7.1714 H   0  0  0  0  0  0
   18.6835   42.9429   -6.4444 H   0  0  0  0  0  0
   15.9714   38.4264   -7.8363 H   0  0  0  0  0  0
   16.4071   38.5500   -6.1694 H   0  0  0  0  0  0
   17.1058   40.6856   -6.4077 H   0  0  0  0  0  0
   14.5470   40.1737   -6.8381 H   0  0  0  0  0  0
   15.2840   41.7480   -6.6142 H   0  0  0  0  0  0
   15.0827   39.2748   -9.5224 H   0  0  0  0  0  0
   14.3883   39.9343  -11.7623 H   0  0  0  0  0  0
   13.6614   42.2925  -12.2022 H   0  0  0  0  0  0
   14.6410   43.3553   -8.1577 H   0  0  0  0  0  0
   13.8218   44.9506   -9.5754 H   0  0  0  0  0  0
   11.6120   44.1545  -10.2932 H   0  0  0  0  0  0
   12.1588   43.9889  -11.9577 H   0  0  0  0  0  0
   12.0621   45.5785  -11.2417 H   0  0  0  0  0  0
   15.7721   45.0358  -11.1003 H   0  0  0  0  0  0
   14.5179   46.1314  -11.6612 H   0  0  0  0  0  0
   14.7565   44.5827  -12.4660 H   0  0  0  0  0  0
   17.2897   36.5499   -7.4202 H   0  0  0  0  0  0
   17.1263   40.6530   -8.0581 H   0  0  0  0  0  0
  1  2  1  0  0  0
  1 41  1  0  0  0
  1 42  1  0  0  0
  1 43  1  0  0  0
  2 38  1  0  0  0
  2 22  1  0  0  0
  2  3  1  0  0  0
  3  4  2  0  0  0
  3  5  1  0  0  0
  5  6  1  0  0  0
  5 44  1  0  0  0
  6 39  1  0  0  0
  6  7  1  0  0  0
  6 24  1  0  0  0
  7  8  1  0  0  0
  7 45  1  0  0  0
  7 46  1  0  0  0
  8 13  1  0  0  0
  8  9  2  0  0  0
  9 10  1  0  0  0
  9 47  1  0  0  0
 10 11  2  0  0  0
 10 48  1  0  0  0
 11 12  1  0  0  0
 11 49  1  0  0  0
 12 13  2  0  0  0
 12 14  1  0  0  0
 13 50  1  0  0  0
 14 15  1  0  0  0
 15 16  1  0  0  0
 15 51  1  0  0  0
 15 52  1  0  0  0
 16 17  1  0  0  0
 16 53  1  0  0  0
 16 54  1  0  0  0
 17 18  1  0  0  0
 17 55  1  0  0  0
 17 56  1  0  0  0
 18 19  1  0  0  0
 18 57  1  0  0  0
 18 58  1  0  0  0
 19 20  1  0  0  0
 19 59  1  0  0  0
 19 60  1  0  0  0
 20 21  2  0  0  0
 20 22  1  0  0  0
 22 23  1  0  0  0
 23 61  1  0  0  0
 23 62  1  0  0  0
 23 63  1  0  0  0
 24 40  1  0  0  0
 24 25  1  0  0  0
 24 37  1  0  0  0
 25 26  1  0  0  0
 25 64  1  0  0  0
 25 65  1  0  0  0
 26 27  1  0  0  0
 26 66  1  0  0  0
 26 81  1  0  0  0
 27 28  1  0  0  0
 27 67  1  0  0  0
 27 68  1  0  0  0
 28 33  1  0  0  0
 28 29  2  0  0  0
 29 30  1  0  0  0
 29 69  1  0  0  0
 30 31  2  0  0  0
 30 70  1  0  0  0
 31 32  1  0  0  0
 31 71  1  0  0  0
 32 33  2  0  0  0
 32 34  1  0  0  0
 33 72  1  0  0  0
 34 35  1  0  0  0
 34 36  1  0  0  0
 34 73  1  0  0  0
 35 74  1  0  0  0
 35 75  1  0  0  0
 35 76  1  0  0  0
 36 77  1  0  0  0
 36 78  1  0  0  0
 36 79  1  0  0  0
 37 80  1  0  0  0
M  CHG  1  26   1
M  END
> <s_m_source_file>
BACE_11.smi

> <i_m_source_file_index>
1

> <i_lp_mmshare_version>
42013

> <i_f3d_flags>
0

> <s_epik_input>
YzEyW2NIXVtjSF1bY0hdYyhbY0hdMilPW0NIMl1bQ0gyXVtDSDJdW0NIMl1bQ0gyXUMoPU8pTihbQ0gzXSlbQ0BASF0oW0NIM10pQyg9TylbTkhdW0NAQEhdKFtDSDJdMSlbQ0BIXShbT0hdKVtDSDJdW05IXVtDSDJdYzNbY0hdW2NIXVtjSF1jKFtjSF0zKVtDSF0oW0NIM10pW0NIM10=

> <s_epik_cmdline>
J2VwaWtfcHl0aG9uJywgJy1waCcsICc3LjAnLCAnLXRuJywgJzgnLCAnLW1hJywgJzIwMCcsICctaW1hZScsICc8aW5maWxlLm1hZT4nLCAnLW9tYWUnLCAnPG91dGZpbGUubWFlPic=

> <r_lp_tautomer_probability>
1

> <r_epik_Ionization_Penalty>
  0.0210

> <r_epik_Ionization_Penalty_Charging>
  0.0210

> <r_epik_Ionization_Penalty_Neutral>
  0.0000

> <r_epik_State_Penalty>
  0.0169

> <r_epik_Charging_Adjusted_Penalty>
0.0378979

> <i_epik_Tot_Q>
1

> <i_epik_Tot_abs_Q>
1

> <s_lp_Force_Field>
OPLS_2005

> <r_lp_Energy>
36.6322

> <b_lp_Chiralities_Consistent>
1

> <s_lp_Variant>
BACE_11.smi:1-1

> <chiral flag>
1

> <version>
0

> <r_i_glide_lipo>
-0.730831

> <r_i_glide_hbond>
-0.32

> <r_i_glide_metal>
-0

> <r_i_glide_rewards>
-0.348713

> <r_i_glide_erotb>
0.39279

> <r_i_glide_esite>
-0.036294

> <chiral flag>
1

> <s_i_glide_gridfile>
second_dock_grid_2

> <i_i_glide_lignum>
22

> <i_i_glide_rotatable_bonds>
7

> <r_i_docking_score>
-4.57162

> <r_i_glide_ligand_efficiency>
-0.123557

> <r_i_glide_ligand_efficiency_sa>
-0.41172

> <r_i_glide_ligand_efficiency_ln>
-0.991478

> <r_glide_XP_GScore>
-4.58852

> <r_i_glide_gscore>
-4.58852

> <r_i_glide_evdw>
-36.3544

> <r_i_glide_ecoul>
-11.2804

> <r_i_glide_energy>
-47.6347

> <r_i_glide_einternal>
9.53238

> <r_i_glide_emodel>
-55.8415

> <r_glide_XP_HBond>
-0.319272

> <i_i_glide_confnum>
1

> <i_i_glide_posenum>
28

> <r_i_glide_eff_state_penalty>
0.0169

> <i_glide_XP_PoseRank>
6

$$$$
BACE_11.smi:1
                    3D
 Structure written by MMmdl.
 81 83  0  0  1  0            999 V2000
   21.9021   41.9103   -4.6936 C   0  0  0  0  0  0
   21.6742   41.7078   -6.2040 C   0  0  1  0  0  0
   20.9629   40.3894   -6.5782 C   0  0  0  0  0  0
   21.3301   39.3500   -6.0400 O   0  0  0  0  0  0
   20.0182   40.4074   -7.5359 N   0  0  0  0  0  0
   19.4263   39.2522   -8.2274 C   0  0  1  0  0  0
   20.4546   38.5806   -9.1669 C   0  0  0  0  0  0
   20.9324   39.5594  -10.2173 C   0  0  0  0  0  0
   20.2296   39.6822  -11.4304 C   0  0  0  0  0  0
   20.6024   40.6705  -12.3559 C   0  0  0  0  0  0
   21.6600   41.5495  -12.0555 C   0  0  0  0  0  0
   22.3760   41.4328  -10.8399 C   0  0  0  0  0  0
   22.0199   40.4117   -9.9437 C   0  0  0  0  0  0
   23.4062   42.2608  -10.4528 O   0  0  0  0  0  0
   23.7657   43.3422  -11.2973 C   0  0  0  0  0  0
   24.7821   44.2390  -10.5733 C   0  0  0  0  0  0
   24.1627   45.2087   -9.5441 C   0  0  0  0  0  0
   24.3497   44.8311   -8.0566 C   0  0  0  0  0  0
   23.5135   43.6495   -7.5123 C   0  0  0  0  0  0
   21.9919   43.8938   -7.4144 C   0  0  0  0  0  0
   21.5304   44.9499   -7.8528 O   0  0  0  0  0  0
   21.1900   42.9608   -6.8346 N   0  0  0  0  0  0
   19.7658   43.2835   -6.6687 C   0  0  0  0  0  0
   18.7048   38.2422   -7.3034 C   0  0  1  0  0  0
   17.7241   38.8333   -6.2867 C   0  0  0  0  0  0
   16.6991   39.7500   -6.8401 N   0  3  0  0  0  0
   15.6082   39.2246   -7.6805 C   0  0  0  0  0  0
   15.6356   40.0814   -8.9263 C   0  0  0  0  0  0
   16.3527   39.6548  -10.0601 C   0  0  0  0  0  0
   16.5843   40.5505  -11.1184 C   0  0  0  0  0  0
   16.0600   41.8549  -11.0698 C   0  0  0  0  0  0
   15.2814   42.2693   -9.9702 C   0  0  0  0  0  0
   15.0812   41.3781   -8.8944 C   0  0  0  0  0  0
   14.6992   43.6752   -9.9356 C   0  0  0  0  0  0
   15.3660   44.5296   -8.8470 C   0  0  0  0  0  0
   13.1695   43.6487   -9.7899 C   0  0  0  0  0  0
   18.0120   37.2643   -8.0519 O   0  0  0  0  0  0
   22.6638   41.4846   -6.5970 H   0  0  0  0  0  0
   18.6676   39.6917   -8.8677 H   0  0  0  0  0  0
   19.4754   37.7491   -6.7202 H   0  0  0  0  0  0
   22.3317   41.0215   -4.2294 H   0  0  0  0  0  0
   20.9662   42.1293   -4.1787 H   0  0  0  0  0  0
   22.5875   42.7362   -4.5021 H   0  0  0  0  0  0
   19.8066   41.3133   -7.9294 H   0  0  0  0  0  0
   21.3061   38.1910   -8.6064 H   0  0  0  0  0  0
   20.0093   37.7238   -9.6738 H   0  0  0  0  0  0
   19.3947   39.0308  -11.6467 H   0  0  0  0  0  0
   20.0689   40.7578  -13.2895 H   0  0  0  0  0  0
   21.9466   42.2811  -12.7921 H   0  0  0  0  0  0
   22.5628   40.3156   -9.0152 H   0  0  0  0  0  0
   24.2132   42.9497  -12.2111 H   0  0  0  0  0  0
   22.8948   43.9325  -11.5855 H   0  0  0  0  0  0
   25.5749   43.6391  -10.1255 H   0  0  0  0  0  0
   25.2726   44.8437  -11.3365 H   0  0  0  0  0  0
   24.6553   46.1724   -9.6794 H   0  0  0  0  0  0
   23.1174   45.4033   -9.7793 H   0  0  0  0  0  0
   25.4055   44.6240   -7.8788 H   0  0  0  0  0  0
   24.1296   45.7110   -7.4499 H   0  0  0  0  0  0
   23.7102   42.7575   -8.1025 H   0  0  0  0  0  0
   23.8780   43.4335   -6.5078 H   0  0  0  0  0  0
   19.2591   43.3093   -7.6339 H   0  0  0  0  0  0
   19.6337   44.2535   -6.1859 H   0  0  0  0  0  0
   19.2600   42.5548   -6.0402 H   0  0  0  0  0  0
   17.2600   38.0800   -5.6803 H   0  0  0  0  0  0
   18.3392   39.3500   -5.5613 H   0  0  0  0  0  0
   16.2635   40.2049   -6.0464 H   0  0  0  0  0  0
   15.7052   38.1661   -7.9152 H   0  0  0  0  0  0
   14.6579   39.3440   -7.1565 H   0  0  0  0  0  0
   16.7899   38.6667  -10.0939 H   0  0  0  0  0  0
   17.1859   40.2439  -11.9611 H   0  0  0  0  0  0
   16.2684   42.5376  -11.8773 H   0  0  0  0  0  0
   14.5355   41.7024   -8.0193 H   0  0  0  0  0  0
   14.9197   44.1464  -10.8938 H   0  0  0  0  0  0
   16.4442   44.5860   -9.0009 H   0  0  0  0  0  0
   15.1984   44.1131   -7.8545 H   0  0  0  0  0  0
   14.9787   45.5478   -8.8486 H   0  0  0  0  0  0
   12.7109   43.0556  -10.5817 H   0  0  0  0  0  0
   12.7475   44.6503   -9.8433 H   0  0  0  0  0  0
   12.8632   43.2172   -8.8379 H   0  0  0  0  0  0
   17.4774   36.7506   -7.4504 H   0  0  0  0  0  0
   17.1741   40.4673   -7.3655 H   0  0  0  0  0  0
  1  2  1  0  0  0
  1 41  1  0  0  0
  1 42  1  0  0  0
  1 43  1  0  0  0
  2 38  1  0  0  0
  2 22  1  0  0  0
  2  3  1  0  0  0
  3  4  2  0  0  0
  3  5  1  0  0  0
  5  6  1  0  0  0
  5 44  1  0  0  0
  6 39  1  0  0  0
  6  7  1  0  0  0
  6 24  1  0  0  0
  7  8  1  0  0  0
  7 45  1  0  0  0
  7 46  1  0  0  0
  8 13  1  0  0  0
  8  9  2  0  0  0
  9 10  1  0  0  0
  9 47  1  0  0  0
 10 11  2  0  0  0
 10 48  1  0  0  0
 11 12  1  0  0  0
 11 49  1  0  0  0
 12 13  2  0  0  0
 12 14  1  0  0  0
 13 50  1  0  0  0
 14 15  1  0  0  0
 15 16  1  0  0  0
 15 51  1  0  0  0
 15 52  1  0  0  0
 16 17  1  0  0  0
 16 53  1  0  0  0
 16 54  1  0  0  0
 17 18  1  0  0  0
 17 55  1  0  0  0
 17 56  1  0  0  0
 18 19  1  0  0  0
 18 57  1  0  0  0
 18 58  1  0  0  0
 19 20  1  0  0  0
 19 59  1  0  0  0
 19 60  1  0  0  0
 20 21  2  0  0  0
 20 22  1  0  0  0
 22 23  1  0  0  0
 23 61  1  0  0  0
 23 62  1  0  0  0
 23 63  1  0  0  0
 24 40  1  0  0  0
 24 25  1  0  0  0
 24 37  1  0  0  0
 25 26  1  0  0  0
 25 64  1  0  0  0
 25 65  1  0  0  0
 26 27  1  0  0  0
 26 66  1  0  0  0
 26 81  1  0  0  0
 27 28  1  0  0  0
 27 67  1  0  0  0
 27 68  1  0  0  0
 28 33  1  0  0  0
 28 29  2  0  0  0
 29 30  1  0  0  0
 29 69  1  0  0  0
 30 31  2  0  0  0
 30 70  1  0  0  0
 31 32  1  0  0  0
 31 71  1  0  0  0
 32 33  2  0  0  0
 32 34  1  0  0  0
 33 72  1  0  0  0
 34 35  1  0  0  0
 34 36  1  0  0  0
 34 73  1  0  0  0
 35 74  1  0  0  0
 35 75  1  0  0  0
 35 76  1  0  0  0
 36 77  1  0  0  0
 36 78  1  0  0  0
 36 79  1  0  0  0
 37 80  1  0  0  0
M  CHG  1  26   1
M  END
> <s_m_source_file>
BACE_11.smi

> <i_m_source_file_index>
1

> <i_lp_mmshare_version>
42013

> <i_f3d_flags>
0

> <s_epik_input>
YzEyW2NIXVtjSF1bY0hdYyhbY0hdMilPW0NIMl1bQ0gyXVtDSDJdW0NIMl1bQ0gyXUMoPU8pTihbQ0gzXSlbQ0BASF0oW0NIM10pQyg9TylbTkhdW0NAQEhdKFtDSDJdMSlbQ0BIXShbT0hdKVtDSDJdW05IXVtDSDJdYzNbY0hdW2NIXVtjSF1jKFtjSF0zKVtDSF0oW0NIM10pW0NIM10=

> <s_epik_cmdline>
J2VwaWtfcHl0aG9uJywgJy1waCcsICc3LjAnLCAnLXRuJywgJzgnLCAnLW1hJywgJzIwMCcsICctaW1hZScsICc8aW5maWxlLm1hZT4nLCAnLW9tYWUnLCAnPG91dGZpbGUubWFlPic=

> <r_lp_tautomer_probability>
1

> <r_epik_Ionization_Penalty>
  0.0210

> <r_epik_Ionization_Penalty_Charging>
  0.0210

> <r_epik_Ionization_Penalty_Neutral>
  0.0000

> <r_epik_State_Penalty>
  0.0169

> <r_epik_Charging_Adjusted_Penalty>
0.0378979

> <i_epik_Tot_Q>
1

> <i_epik_Tot_abs_Q>
1

> <s_lp_Force_Field>
OPLS_2005

> <r_lp_Energy>
36.6322

> <b_lp_Chiralities_Consistent>
1

> <s_lp_Variant>
BACE_11.smi:1-1

> <chiral flag>
1

> <version>
0

> <r_i_glide_lipo>
-0.730831

> <r_i_glide_hbond>
-0.32

> <r_i_glide_metal>
-0

> <r_i_glide_rewards>
-0.348713

> <r_i_glide_erotb>
0.39279

> <r_i_glide_esite>
-0.036294

> <chiral flag>
1

> <s_i_glide_gridfile>
second_dock_grid_2

> <i_i_glide_lignum>
22

> <i_i_glide_rotatable_bonds>
7

> <r_i_docking_score>
-4.49468

> <r_i_glide_ligand_efficiency>
-0.121478

> <r_i_glide_ligand_efficiency_sa>
-0.404791

> <r_i_glide_ligand_efficiency_ln>
-0.974792

> <r_glide_XP_GScore>
-4.51158

> <r_i_glide_gscore>
-4.51158

> <r_i_glide_evdw>
-35.6078

> <r_i_glide_ecoul>
-9.33249

> <r_i_glide_energy>
-44.9403

> <r_i_glide_einternal>
6.43492

> <r_i_glide_emodel>
-58.611

> <r_glide_XP_HBond>
-0.319272

> <i_i_glide_confnum>
1

> <i_i_glide_posenum>
17

> <r_i_glide_eff_state_penalty>
0.0169

> <i_glide_XP_PoseRank>
7

$$$$
BACE_11.smi:1
                    3D
 Structure written by MMmdl.
 81 83  0  0  1  0            999 V2000
   14.8755   46.8884  -13.1096 C   0  0  0  0  0  0
   15.5820   46.2625  -11.8882 C   0  0  1  0  0  0
   14.9605   44.9528  -11.3421 C   0  0  0  0  0  0
   13.7351   44.8836  -11.2742 O   0  0  0  0  0  0
   15.7739   43.9931  -10.8604 N   0  0  0  0  0  0
   15.4423   42.9225   -9.9013 C   0  0  1  0  0  0
   15.3236   43.5053   -8.4735 C   0  0  0  0  0  0
   16.5472   44.3134   -8.0610 C   0  0  0  0  0  0
   17.6598   43.6671   -7.4796 C   0  0  0  0  0  0
   18.7775   44.4101   -7.0620 C   0  0  0  0  0  0
   18.7906   45.8076   -7.2186 C   0  0  0  0  0  0
   17.6887   46.4696   -7.8164 C   0  0  0  0  0  0
   16.5771   45.7115   -8.2319 C   0  0  0  0  0  0
   17.6205   47.8293   -8.0283 O   0  0  0  0  0  0
   18.7277   48.6402   -7.6672 C   0  0  0  0  0  0
   18.6041   49.9976   -8.3768 C   0  0  0  0  0  0
   19.0693   49.9771   -9.8491 C   0  0  0  0  0  0
   17.9531   49.9724  -10.9167 C   0  0  0  0  0  0
   17.0816   48.7020  -11.0427 C   0  0  0  0  0  0
   17.7873   47.4488  -11.6090 C   0  0  0  0  0  0
   19.0143   47.4663  -11.7218 O   0  0  0  0  0  0
   17.0594   46.3652  -11.9993 N   0  0  0  0  0  0
   17.7642   45.2796  -12.7014 C   0  0  0  0  0  0
   14.3094   41.9415  -10.3517 C   0  0  1  0  0  0
   14.4709   40.4709   -9.8600 C   0  0  0  0  0  0
   14.4609   40.3095   -8.3810 N   0  3  0  0  0  0
   14.8628   38.9818   -7.8598 C   0  0  0  0  0  0
   16.2836   38.6157   -8.2644 C   0  0  0  0  0  0
   16.5436   37.3657   -8.8654 C   0  0  0  0  0  0
   17.8540   37.0169   -9.2315 C   0  0  0  0  0  0
   18.9124   37.9270   -9.0227 C   0  0  0  0  0  0
   18.6656   39.1916   -8.4363 C   0  0  0  0  0  0
   17.3486   39.5186   -8.0438 C   0  0  0  0  0  0
   19.7881   40.2110   -8.2184 C   0  0  0  0  0  0
   20.8653   40.1772   -9.3159 C   0  0  0  0  0  0
   20.4172   40.0674   -6.8160 C   0  0  0  0  0  0
   13.0085   42.4128  -10.0402 O   0  0  0  0  0  0
   15.2850   46.9127  -11.0652 H   0  0  0  0  0  0
   16.3479   42.3181   -9.9055 H   0  0  0  0  0  0
   14.3447   41.8945  -11.4407 H   0  0  0  0  0  0
   13.8102   46.6690  -13.1336 H   0  0  0  0  0  0
   15.3196   46.5487  -14.0415 H   0  0  0  0  0  0
   14.9725   47.9716  -13.1213 H   0  0  0  0  0  0
   16.7603   44.1659  -10.9718 H   0  0  0  0  0  0
   14.4352   44.1354   -8.4030 H   0  0  0  0  0  0
   15.1846   42.7178   -7.7347 H   0  0  0  0  0  0
   17.6490   42.6005   -7.3222 H   0  0  0  0  0  0
   19.6266   43.9112   -6.6136 H   0  0  0  0  0  0
   19.6597   46.3410   -6.8678 H   0  0  0  0  0  0
   15.7351   46.2167   -8.6771 H   0  0  0  0  0  0
   18.7181   48.7808   -6.5848 H   0  0  0  0  0  0
   19.6824   48.1860   -7.9361 H   0  0  0  0  0  0
   17.5901   50.3916   -8.2776 H   0  0  0  0  0  0
   19.2462   50.7029   -7.8471 H   0  0  0  0  0  0
   19.6553   50.8814  -10.0137 H   0  0  0  0  0  0
   19.7790   49.1655  -10.0185 H   0  0  0  0  0  0
   17.2917   50.8204  -10.7327 H   0  0  0  0  0  0
   18.4107   50.1689  -11.8845 H   0  0  0  0  0  0
   16.6078   48.4733  -10.0927 H   0  0  0  0  0  0
   16.2672   48.9607  -11.7156 H   0  0  0  0  0  0
   18.3440   44.6820  -11.9995 H   0  0  0  0  0  0
   18.4630   45.6734  -13.4393 H   0  0  0  0  0  0
   17.0813   44.6216  -13.2403 H   0  0  0  0  0  0
   13.6676   39.8543  -10.2723 H   0  0  0  0  0  0
   15.4068   40.0762  -10.2608 H   0  0  0  0  0  0
   15.0849   40.9816   -7.9617 H   0  0  0  0  0  0
   14.8022   38.9850   -6.7695 H   0  0  0  0  0  0
   14.1567   38.2262   -8.2101 H   0  0  0  0  0  0
   15.7394   36.6657   -9.0464 H   0  0  0  0  0  0
   18.0538   36.0599   -9.6873 H   0  0  0  0  0  0
   19.9082   37.6402   -9.3169 H   0  0  0  0  0  0
   17.1539   40.4731   -7.5735 H   0  0  0  0  0  0
   19.3313   41.2026   -8.2789 H   0  0  0  0  0  0
   20.4140   40.2479  -10.3111 H   0  0  0  0  0  0
   21.4645   39.2611   -9.2721 H   0  0  0  0  0  0
   21.5591   41.0154   -9.2044 H   0  0  0  0  0  0
   19.6738   40.1866   -6.0274 H   0  0  0  0  0  0
   21.1916   40.8210   -6.6540 H   0  0  0  0  0  0
   20.8703   39.0779   -6.6869 H   0  0  0  0  0  0
   12.5803   41.8358   -9.4138 H   0  0  0  0  0  0
   13.5128   40.5108   -8.0539 H   0  0  0  0  0  0
  1  2  1  0  0  0
  1 41  1  0  0  0
  1 42  1  0  0  0
  1 43  1  0  0  0
  2 38  1  0  0  0
  2 22  1  0  0  0
  2  3  1  0  0  0
  3  4  2  0  0  0
  3  5  1  0  0  0
  5  6  1  0  0  0
  5 44  1  0  0  0
  6 39  1  0  0  0
  6  7  1  0  0  0
  6 24  1  0  0  0
  7  8  1  0  0  0
  7 45  1  0  0  0
  7 46  1  0  0  0
  8 13  1  0  0  0
  8  9  2  0  0  0
  9 10  1  0  0  0
  9 47  1  0  0  0
 10 11  2  0  0  0
 10 48  1  0  0  0
 11 12  1  0  0  0
 11 49  1  0  0  0
 12 13  2  0  0  0
 12 14  1  0  0  0
 13 50  1  0  0  0
 14 15  1  0  0  0
 15 16  1  0  0  0
 15 51  1  0  0  0
 15 52  1  0  0  0
 16 17  1  0  0  0
 16 53  1  0  0  0
 16 54  1  0  0  0
 17 18  1  0  0  0
 17 55  1  0  0  0
 17 56  1  0  0  0
 18 19  1  0  0  0
 18 57  1  0  0  0
 18 58  1  0  0  0
 19 20  1  0  0  0
 19 59  1  0  0  0
 19 60  1  0  0  0
 20 21  2  0  0  0
 20 22  1  0  0  0
 22 23  1  0  0  0
 23 61  1  0  0  0
 23 62  1  0  0  0
 23 63  1  0  0  0
 24 40  1  0  0  0
 24 25  1  0  0  0
 24 37  1  0  0  0
 25 26  1  0  0  0
 25 64  1  0  0  0
 25 65  1  0  0  0
 26 27  1  0  0  0
 26 66  1  0  0  0
 26 81  1  0  0  0
 27 28  1  0  0  0
 27 67  1  0  0  0
 27 68  1  0  0  0
 28 33  1  0  0  0
 28 29  2  0  0  0
 29 30  1  0  0  0
 29 69  1  0  0  0
 30 31  2  0  0  0
 30 70  1  0  0  0
 31 32  1  0  0  0
 31 71  1  0  0  0
 32 33  2  0  0  0
 32 34  1  0  0  0
 33 72  1  0  0  0
 34 35  1  0  0  0
 34 36  1  0  0  0
 34 73  1  0  0  0
 35 74  1  0  0  0
 35 75  1  0  0  0
 35 76  1  0  0  0
 36 77  1  0  0  0
 36 78  1  0  0  0
 36 79  1  0  0  0
 37 80  1  0  0  0
M  CHG  1  26   1
M  END
> <s_m_source_file>
BACE_11.smi

> <i_m_source_file_index>
1

> <i_lp_mmshare_version>
42013

> <i_f3d_flags>
0

> <s_epik_input>
YzEyW2NIXVtjSF1bY0hdYyhbY0hdMilPW0NIMl1bQ0gyXVtDSDJdW0NIMl1bQ0gyXUMoPU8pTihbQ0gzXSlbQ0BASF0oW0NIM10pQyg9TylbTkhdW0NAQEhdKFtDSDJdMSlbQ0BIXShbT0hdKVtDSDJdW05IXVtDSDJdYzNbY0hdW2NIXVtjSF1jKFtjSF0zKVtDSF0oW0NIM10pW0NIM10=

> <s_epik_cmdline>
J2VwaWtfcHl0aG9uJywgJy1waCcsICc3LjAnLCAnLXRuJywgJzgnLCAnLW1hJywgJzIwMCcsICctaW1hZScsICc8aW5maWxlLm1hZT4nLCAnLW9tYWUnLCAnPG91dGZpbGUubWFlPic=

> <r_lp_tautomer_probability>
1

> <r_epik_Ionization_Penalty>
  0.0210

> <r_epik_Ionization_Penalty_Charging>
  0.0210

> <r_epik_Ionization_Penalty_Neutral>
  0.0000

> <r_epik_State_Penalty>
  0.0169

> <r_epik_Charging_Adjusted_Penalty>
0.0378979

> <i_epik_Tot_Q>
1

> <i_epik_Tot_abs_Q>
1

> <s_lp_Force_Field>
OPLS_2005

> <r_lp_Energy>
36.6322

> <b_lp_Chiralities_Consistent>
1

> <s_lp_Variant>
BACE_11.smi:1-1

> <chiral flag>
1

> <version>
0

> <r_i_glide_lipo>
-0.730831

> <r_i_glide_hbond>
-0.32

> <r_i_glide_metal>
-0

> <r_i_glide_rewards>
-0.348713

> <r_i_glide_erotb>
0.39279

> <r_i_glide_esite>
-0.036294

> <chiral flag>
1

> <s_i_glide_gridfile>
second_dock_grid_2

> <i_i_glide_lignum>
22

> <i_i_glide_rotatable_bonds>
7

> <r_i_docking_score>
-4.34108

> <r_i_glide_ligand_efficiency>
-0.117327

> <r_i_glide_ligand_efficiency_sa>
-0.390958

> <r_i_glide_ligand_efficiency_ln>
-0.941479

> <r_glide_XP_GScore>
-4.35798

> <r_i_glide_gscore>
-4.35798

> <r_i_glide_evdw>
-36.3391

> <r_i_glide_ecoul>
-17.3666

> <r_i_glide_energy>
-53.7057

> <r_i_glide_einternal>
18.4908

> <r_i_glide_emodel>
-54.0597

> <r_glide_XP_HBond>
-0.319272

> <i_i_glide_confnum>
1

> <i_i_glide_posenum>
48

> <r_i_glide_eff_state_penalty>
0.0169

> <i_glide_XP_PoseRank>
8

$$$$
BACE_11.smi:1
                    3D
 Structure written by MMmdl.
 81 83  0  0  1  0            999 V2000
   15.0956   47.0578  -13.0386 C   0  0  0  0  0  0
   15.9335   46.3747  -11.9394 C   0  0  1  0  0  0
   15.3302   45.0666  -11.3804 C   0  0  0  0  0  0
   14.1108   44.9014  -11.3731 O   0  0  0  0  0  0
   16.1853   44.1575  -10.8786 N   0  0  0  0  0  0
   15.8929   43.0168  -10.0037 C   0  0  1  0  0  0
   15.7485   43.5100   -8.5391 C   0  0  0  0  0  0
   17.0446   44.0966   -8.0036 C   0  0  0  0  0  0
   17.9441   43.3049   -7.2568 C   0  0  0  0  0  0
   19.1718   43.8481   -6.8280 C   0  0  0  0  0  0
   19.5136   45.1761   -7.1516 C   0  0  0  0  0  0
   18.6136   45.9748   -7.8945 C   0  0  0  0  0  0
   17.3770   45.4340   -8.2885 C   0  0  0  0  0  0
   18.8494   47.2663   -8.2943 O   0  0  0  0  0  0
   20.0915   47.8764   -8.0119 C   0  0  0  0  0  0
   20.0568   49.2855   -8.6266 C   0  0  0  0  0  0
   20.1690   49.3210  -10.1649 C   0  0  0  0  0  0
   18.8703   49.6715  -10.9321 C   0  0  0  0  0  0
   17.8159   48.5503  -11.1152 C   0  0  0  0  0  0
   18.2440   47.3816  -12.0328 C   0  0  0  0  0  0
   19.3858   47.3862  -12.4982 O   0  0  0  0  0  0
   17.3717   46.3695  -12.3129 N   0  0  0  0  0  0
   17.8459   45.2520  -13.1448 C   0  0  0  0  0  0
   14.7303   42.0941  -10.4633 C   0  0  1  0  0  0
   14.7452   40.6587   -9.8787 C   0  0  0  0  0  0
   14.8761   40.6390   -8.3997 N   0  3  0  0  0  0
   15.6503   39.5146   -7.8174 C   0  0  0  0  0  0
   16.8895   39.1627   -8.6219 C   0  0  0  0  0  0
   17.3990   37.8457   -8.6182 C   0  0  0  0  0  0
   18.5505   37.5314   -9.3696 C   0  0  0  0  0  0
   19.2010   38.5301  -10.1190 C   0  0  0  0  0  0
   18.6972   39.8498  -10.1342 C   0  0  0  0  0  0
   17.5315   40.1471   -9.4010 C   0  0  0  0  0  0
   19.4121   40.9558  -10.9015 C   0  0  0  0  0  0
   18.4241   41.8861  -11.6152 C   0  0  0  0  0  0
   20.4625   40.3918  -11.8726 C   0  0  0  0  0  0
   13.5422   42.7113  -10.0278 O   0  0  0  0  0  0
   15.8129   47.0152  -11.0659 H   0  0  0  0  0  0
   16.7967   42.4060  -10.0468 H   0  0  0  0  0  0
   14.7080   42.0407  -11.5499 H   0  0  0  0  0  0
   14.0749   47.2476  -12.7040 H   0  0  0  0  0  0
   15.0389   46.4408  -13.9358 H   0  0  0  0  0  0
   15.5255   48.0209  -13.3234 H   0  0  0  0  0  0
   17.1650   44.3833  -10.9690 H   0  0  0  0  0  0
   14.9541   44.2534   -8.4700 H   0  0  0  0  0  0
   15.4483   42.6971   -7.8770 H   0  0  0  0  0  0
   17.7055   42.2790   -7.0254 H   0  0  0  0  0  0
   19.8627   43.2364   -6.2661 H   0  0  0  0  0  0
   20.4730   45.5567   -6.8300 H   0  0  0  0  0  0
   16.6924   46.0512   -8.8504 H   0  0  0  0  0  0
   20.2274   47.9469   -6.9315 H   0  0  0  0  0  0
   20.9204   47.2963   -8.4199 H   0  0  0  0  0  0
   19.1677   49.8188   -8.2908 H   0  0  0  0  0  0
   20.8992   49.8414   -8.2146 H   0  0  0  0  0  0
   20.8886   50.0995  -10.4111 H   0  0  0  0  0  0
   20.6233   48.4038  -10.5377 H   0  0  0  0  0  0
   18.3969   50.5267  -10.4490 H   0  0  0  0  0  0
   19.1468   50.0338  -11.9242 H   0  0  0  0  0  0
   17.5151   48.1688  -10.1404 H   0  0  0  0  0  0
   16.9275   49.0101  -11.5529 H   0  0  0  0  0  0
   18.4785   44.5885  -12.5594 H   0  0  0  0  0  0
   18.4296   45.5937  -14.0014 H   0  0  0  0  0  0
   17.0230   44.6676  -13.5534 H   0  0  0  0  0  0
   13.7970   40.1710  -10.1087 H   0  0  0  0  0  0
   15.5205   40.0445  -10.3433 H   0  0  0  0  0  0
   15.2684   41.5153   -8.0789 H   0  0  0  0  0  0
   15.9779   39.7988   -6.8231 H   0  0  0  0  0  0
   15.0275   38.6334   -7.6729 H   0  0  0  0  0  0
   16.9191   37.0714   -8.0353 H   0  0  0  0  0  0
   18.9516   36.5270   -9.3650 H   0  0  0  0  0  0
   20.0920   38.2800  -10.6760 H   0  0  0  0  0  0
   17.1368   41.1517   -9.4257 H   0  0  0  0  0  0
   19.9501   41.5668  -10.1750 H   0  0  0  0  0  0
   17.7063   42.3183  -10.9187 H   0  0  0  0  0  0
   17.8719   41.3426  -12.3786 H   0  0  0  0  0  0
   18.9403   42.7096  -12.1088 H   0  0  0  0  0  0
   21.1765   39.7577  -11.3465 H   0  0  0  0  0  0
   21.0258   41.1937  -12.3504 H   0  0  0  0  0  0
   20.0124   39.7946  -12.6647 H   0  0  0  0  0  0
   13.0442   42.0918   -9.5092 H   0  0  0  0  0  0
   13.9504   40.5641   -8.0025 H   0  0  0  0  0  0
  1  2  1  0  0  0
  1 41  1  0  0  0
  1 42  1  0  0  0
  1 43  1  0  0  0
  2 38  1  0  0  0
  2 22  1  0  0  0
  2  3  1  0  0  0
  3  4  2  0  0  0
  3  5  1  0  0  0
  5  6  1  0  0  0
  5 44  1  0  0  0
  6 39  1  0  0  0
  6  7  1  0  0  0
  6 24  1  0  0  0
  7  8  1  0  0  0
  7 45  1  0  0  0
  7 46  1  0  0  0
  8 13  1  0  0  0
  8  9  2  0  0  0
  9 10  1  0  0  0
  9 47  1  0  0  0
 10 11  2  0  0  0
 10 48  1  0  0  0
 11 12  1  0  0  0
 11 49  1  0  0  0
 12 13  2  0  0  0
 12 14  1  0  0  0
 13 50  1  0  0  0
 14 15  1  0  0  0
 15 16  1  0  0  0
 15 51  1  0  0  0
 15 52  1  0  0  0
 16 17  1  0  0  0
 16 53  1  0  0  0
 16 54  1  0  0  0
 17 18  1  0  0  0
 17 55  1  0  0  0
 17 56  1  0  0  0
 18 19  1  0  0  0
 18 57  1  0  0  0
 18 58  1  0  0  0
 19 20  1  0  0  0
 19 59  1  0  0  0
 19 60  1  0  0  0
 20 21  2  0  0  0
 20 22  1  0  0  0
 22 23  1  0  0  0
 23 61  1  0  0  0
 23 62  1  0  0  0
 23 63  1  0  0  0
 24 40  1  0  0  0
 24 25  1  0  0  0
 24 37  1  0  0  0
 25 26  1  0  0  0
 25 64  1  0  0  0
 25 65  1  0  0  0
 26 27  1  0  0  0
 26 66  1  0  0  0
 26 81  1  0  0  0
 27 28  1  0  0  0
 27 67  1  0  0  0
 27 68  1  0  0  0
 28 33  1  0  0  0
 28 29  2  0  0  0
 29 30  1  0  0  0
 29 69  1  0  0  0
 30 31  2  0  0  0
 30 70  1  0  0  0
 31 32  1  0  0  0
 31 71  1  0  0  0
 32 33  2  0  0  0
 32 34  1  0  0  0
 33 72  1  0  0  0
 34 35  1  0  0  0
 34 36  1  0  0  0
 34 73  1  0  0  0
 35 74  1  0  0  0
 35 75  1  0  0  0
 35 76  1  0  0  0
 36 77  1  0  0  0
 36 78  1  0  0  0
 36 79  1  0  0  0
 37 80  1  0  0  0
M  CHG  1  26   1
M  END
> <s_m_source_file>
BACE_11.smi

> <i_m_source_file_index>
1

> <i_lp_mmshare_version>
42013

> <i_f3d_flags>
0

> <s_epik_input>
YzEyW2NIXVtjSF1bY0hdYyhbY0hdMilPW0NIMl1bQ0gyXVtDSDJdW0NIMl1bQ0gyXUMoPU8pTihbQ0gzXSlbQ0BASF0oW0NIM10pQyg9TylbTkhdW0NAQEhdKFtDSDJdMSlbQ0BIXShbT0hdKVtDSDJdW05IXVtDSDJdYzNbY0hdW2NIXVtjSF1jKFtjSF0zKVtDSF0oW0NIM10pW0NIM10=

> <s_epik_cmdline>
J2VwaWtfcHl0aG9uJywgJy1waCcsICc3LjAnLCAnLXRuJywgJzgnLCAnLW1hJywgJzIwMCcsICctaW1hZScsICc8aW5maWxlLm1hZT4nLCAnLW9tYWUnLCAnPG91dGZpbGUubWFlPic=

> <r_lp_tautomer_probability>
1

> <r_epik_Ionization_Penalty>
  0.0210

> <r_epik_Ionization_Penalty_Charging>
  0.0210

> <r_epik_Ionization_Penalty_Neutral>
  0.0000

> <r_epik_State_Penalty>
  0.0169

> <r_epik_Charging_Adjusted_Penalty>
0.0378979

> <i_epik_Tot_Q>
1

> <i_epik_Tot_abs_Q>
1

> <s_lp_Force_Field>
OPLS_2005

> <r_lp_Energy>
36.6322

> <b_lp_Chiralities_Consistent>
1

> <s_lp_Variant>
BACE_11.smi:1-1

> <chiral flag>
1

> <version>
0

> <r_i_glide_lipo>
-0.730831

> <r_i_glide_hbond>
-0.32

> <r_i_glide_metal>
-0

> <r_i_glide_rewards>
-0.348713

> <r_i_glide_erotb>
0.39279

> <r_i_glide_esite>
-0.036294

> <chiral flag>
1

> <s_i_glide_gridfile>
second_dock_grid_2

> <i_i_glide_lignum>
22

> <i_i_glide_rotatable_bonds>
7

> <r_i_docking_score>
-4.16846

> <r_i_glide_ligand_efficiency>
-0.112661

> <r_i_glide_ligand_efficiency_sa>
-0.375412

> <r_i_glide_ligand_efficiency_ln>
-0.904042

> <r_glide_XP_GScore>
-4.18536

> <r_i_glide_gscore>
-4.18536

> <r_i_glide_evdw>
-33.1878

> <r_i_glide_ecoul>
-11.8574

> <r_i_glide_energy>
-45.0451

> <r_i_glide_einternal>
10.796

> <r_i_glide_emodel>
-58.1425

> <r_glide_XP_HBond>
-0.319272

> <i_i_glide_confnum>
1

> <i_i_glide_posenum>
37

> <r_i_glide_eff_state_penalty>
0.0169

> <i_glide_XP_PoseRank>
9

$$$$
BACE_11.smi:1
                    3D
 Structure written by MMmdl.
 81 83  0  0  1  0            999 V2000
   15.2645   46.9149  -12.6873 C   0  0  0  0  0  0
   16.2176   46.3082  -11.6382 C   0  0  1  0  0  0
   15.6828   45.0446  -10.9275 C   0  0  0  0  0  0
   14.4718   44.8842  -10.7790 O   0  0  0  0  0  0
   16.5903   44.1704  -10.4569 N   0  0  0  0  0  0
   16.3976   43.0950   -9.4777 C   0  0  1  0  0  0
   16.4076   43.6906   -8.0444 C   0  0  0  0  0  0
   17.7507   44.3093   -7.6924 C   0  0  0  0  0  0
   18.7280   43.5693   -6.9917 C   0  0  0  0  0  0
   19.9919   44.1375   -6.7354 C   0  0  0  0  0  0
   20.2917   45.4383   -7.1861 C   0  0  0  0  0  0
   19.3143   46.1856   -7.8833 C   0  0  0  0  0  0
   18.0451   45.6223   -8.1045 C   0  0  0  0  0  0
   19.5006   47.4449   -8.3958 O   0  0  0  0  0  0
   20.7630   48.0695   -8.2907 C   0  0  0  0  0  0
   20.6571   49.4319   -8.9959 C   0  0  0  0  0  0
   20.6049   49.3586  -10.5360 C   0  0  0  0  0  0
   19.2305   49.6584  -11.1835 C   0  0  0  0  0  0
   18.1674   48.5304  -11.1740 C   0  0  0  0  0  0
   18.5006   47.2987  -12.0475 C   0  0  0  0  0  0
   19.5864   47.2669  -12.6308 O   0  0  0  0  0  0
   17.6079   46.2722  -12.1613 N   0  0  0  0  0  0
   17.9958   45.0974  -12.9582 C   0  0  0  0  0  0
   15.1968   42.1460   -9.7450 C   0  0  1  0  0  0
   15.4462   40.6484   -9.4333 C   0  0  0  0  0  0
   15.2565   40.3181   -7.9981 N   0  3  0  0  0  0
   16.3040   39.4770   -7.3671 C   0  0  0  0  0  0
   17.5819   39.4011   -8.1844 C   0  0  0  0  0  0
   18.4209   38.2683   -8.1035 C   0  0  0  0  0  0
   19.6050   38.2098   -8.8677 C   0  0  0  0  0  0
   19.9593   39.2830   -9.7072 C   0  0  0  0  0  0
   19.1249   40.4191   -9.8000 C   0  0  0  0  0  0
   17.9314   40.4562   -9.0523 C   0  0  0  0  0  0
   19.5128   41.6111  -10.6670 C   0  0  0  0  0  0
   19.6325   42.9001   -9.8451 C   0  0  0  0  0  0
   18.5584   41.7859  -11.8599 C   0  0  0  0  0  0
   14.1559   42.5813   -8.9028 O   0  0  0  0  0  0
   16.1877   47.0090  -10.8041 H   0  0  0  0  0  0
   17.2943   42.4798   -9.5737 H   0  0  0  0  0  0
   14.8661   42.2494  -10.7766 H   0  0  0  0  0  0
   14.2844   47.1310  -12.2602 H   0  0  0  0  0  0
   15.1154   46.2365  -13.5278 H   0  0  0  0  0  0
   15.6575   47.8541  -13.0833 H   0  0  0  0  0  0
   17.5539   44.3862  -10.6667 H   0  0  0  0  0  0
   15.6218   44.4395   -7.9437 H   0  0  0  0  0  0
   16.1831   42.9273   -7.2987 H   0  0  0  0  0  0
   18.5198   42.5630   -6.6647 H   0  0  0  0  0  0
   20.7414   43.5647   -6.2085 H   0  0  0  0  0  0
   21.2781   45.8376   -6.9959 H   0  0  0  0  0  0
   17.3020   46.2006   -8.6324 H   0  0  0  0  0  0
   21.0128   48.2154   -7.2386 H   0  0  0  0  0  0
   21.5463   47.4595   -8.7428 H   0  0  0  0  0  0
   19.8064   49.9903   -8.6057 H   0  0  0  0  0  0
   21.5361   50.0128   -8.7159 H   0  0  0  0  0  0
   21.2908   50.1156  -10.9115 H   0  0  0  0  0  0
   21.0209   48.4161  -10.8896 H   0  0  0  0  0  0
   18.8073   50.5470  -10.7141 H   0  0  0  0  0  0
   19.3982   49.9491  -12.2223 H   0  0  0  0  0  0
   17.9736   48.2194  -10.1484 H   0  0  0  0  0  0
   17.2356   48.9611  -11.5460 H   0  0  0  0  0  0
   18.6899   44.4747  -12.3982 H   0  0  0  0  0  0
   18.4836   45.3760  -13.8939 H   0  0  0  0  0  0
   17.1366   44.4882  -13.2348 H   0  0  0  0  0  0
   14.7236   40.0450   -9.9844 H   0  0  0  0  0  0
   16.4323   40.3260   -9.7768 H   0  0  0  0  0  0
   15.1454   41.1698   -7.4624 H   0  0  0  0  0  0
   16.5589   39.9067   -6.4042 H   0  0  0  0  0  0
   15.9340   38.4772   -7.1459 H   0  0  0  0  0  0
   18.1698   37.4427   -7.4515 H   0  0  0  0  0  0
   20.2569   37.3491   -8.8047 H   0  0  0  0  0  0
   20.8776   39.2330  -10.2737 H   0  0  0  0  0  0
   17.2853   41.3171   -9.1356 H   0  0  0  0  0  0
   20.5020   41.4098  -11.0813 H   0  0  0  0  0  0
   20.3412   42.7879   -9.0252 H   0  0  0  0  0  0
   18.6676   43.1755   -9.4251 H   0  0  0  0  0  0
   19.9710   43.7333  -10.4610 H   0  0  0  0  0  0
   18.5071   40.8724  -12.4530 H   0  0  0  0  0  0
   18.8962   42.5862  -12.5188 H   0  0  0  0  0  0
   17.5451   42.0312  -11.5442 H   0  0  0  0  0  0
   13.7803   41.8295   -8.4618 H   0  0  0  0  0  0
   14.3977   39.7943   -7.9061 H   0  0  0  0  0  0
  1  2  1  0  0  0
  1 41  1  0  0  0
  1 42  1  0  0  0
  1 43  1  0  0  0
  2 38  1  0  0  0
  2 22  1  0  0  0
  2  3  1  0  0  0
  3  4  2  0  0  0
  3  5  1  0  0  0
  5  6  1  0  0  0
  5 44  1  0  0  0
  6 39  1  0  0  0
  6  7  1  0  0  0
  6 24  1  0  0  0
  7  8  1  0  0  0
  7 45  1  0  0  0
  7 46  1  0  0  0
  8 13  1  0  0  0
  8  9  2  0  0  0
  9 10  1  0  0  0
  9 47  1  0  0  0
 10 11  2  0  0  0
 10 48  1  0  0  0
 11 12  1  0  0  0
 11 49  1  0  0  0
 12 13  2  0  0  0
 12 14  1  0  0  0
 13 50  1  0  0  0
 14 15  1  0  0  0
 15 16  1  0  0  0
 15 51  1  0  0  0
 15 52  1  0  0  0
 16 17  1  0  0  0
 16 53  1  0  0  0
 16 54  1  0  0  0
 17 18  1  0  0  0
 17 55  1  0  0  0
 17 56  1  0  0  0
 18 19  1  0  0  0
 18 57  1  0  0  0
 18 58  1  0  0  0
 19 20  1  0  0  0
 19 59  1  0  0  0
 19 60  1  0  0  0
 20 21  2  0  0  0
 20 22  1  0  0  0
 22 23  1  0  0  0
 23 61  1  0  0  0
 23 62  1  0  0  0
 23 63  1  0  0  0
 24 40  1  0  0  0
 24 25  1  0  0  0
 24 37  1  0  0  0
 25 26  1  0  0  0
 25 64  1  0  0  0
 25 65  1  0  0  0
 26 27  1  0  0  0
 26 66  1  0  0  0
 26 81  1  0  0  0
 27 28  1  0  0  0
 27 67  1  0  0  0
 27 68  1  0  0  0
 28 33  1  0  0  0
 28 29  2  0  0  0
 29 30  1  0  0  0
 29 69  1  0  0  0
 30 31  2  0  0  0
 30 70  1  0  0  0
 31 32  1  0  0  0
 31 71  1  0  0  0
 32 33  2  0  0  0
 32 34  1  0  0  0
 33 72  1  0  0  0
 34 35  1  0  0  0
 34 36  1  0  0  0
 34 73  1  0  0  0
 35 74  1  0  0  0
 35 75  1  0  0  0
 35 76  1  0  0  0
 36 77  1  0  0  0
 36 78  1  0  0  0
 36 79  1  0  0  0
 37 80  1  0  0  0
M  CHG  1  26   1
M  END
> <s_m_source_file>
BACE_11.smi

> <i_m_source_file_index>
1

> <i_lp_mmshare_version>
42013

> <i_f3d_flags>
0

> <s_epik_input>
YzEyW2NIXVtjSF1bY0hdYyhbY0hdMilPW0NIMl1bQ0gyXVtDSDJdW0NIMl1bQ0gyXUMoPU8pTihbQ0gzXSlbQ0BASF0oW0NIM10pQyg9TylbTkhdW0NAQEhdKFtDSDJdMSlbQ0BIXShbT0hdKVtDSDJdW05IXVtDSDJdYzNbY0hdW2NIXVtjSF1jKFtjSF0zKVtDSF0oW0NIM10pW0NIM10=

> <s_epik_cmdline>
J2VwaWtfcHl0aG9uJywgJy1waCcsICc3LjAnLCAnLXRuJywgJzgnLCAnLW1hJywgJzIwMCcsICctaW1hZScsICc8aW5maWxlLm1hZT4nLCAnLW9tYWUnLCAnPG91dGZpbGUubWFlPic=

> <r_lp_tautomer_probability>
1

> <r_epik_Ionization_Penalty>
  0.0210

> <r_epik_Ionization_Penalty_Charging>
  0.0210

> <r_epik_Ionization_Penalty_Neutral>
  0.0000

> <r_epik_State_Penalty>
  0.0169

> <r_epik_Charging_Adjusted_Penalty>
0.0378979

> <i_epik_Tot_Q>
1

> <i_epik_Tot_abs_Q>
1

> <s_lp_Force_Field>
OPLS_2005

> <r_lp_Energy>
36.6322

> <b_lp_Chiralities_Consistent>
1

> <s_lp_Variant>
BACE_11.smi:1-1

> <chiral flag>
1

> <version>
0

> <r_i_glide_lipo>
-0.730831

> <r_i_glide_hbond>
-0.32

> <r_i_glide_metal>
-0

> <r_i_glide_rewards>
-0.348713

> <r_i_glide_erotb>
0.39279

> <r_i_glide_esite>
-0.036294

> <chiral flag>
1

> <s_i_glide_gridfile>
second_dock_grid_2

> <i_i_glide_lignum>
22

> <i_i_glide_rotatable_bonds>
7

> <r_i_docking_score>
-3.76631

> <r_i_glide_ligand_efficiency>
-0.101792

> <r_i_glide_ligand_efficiency_sa>
-0.339194

> <r_i_glide_ligand_efficiency_ln>
-0.816825

> <r_glide_XP_GScore>
-3.78321

> <r_i_glide_gscore>
-3.78321

> <r_i_glide_evdw>
-29.3019

> <r_i_glide_ecoul>
-10.5101

> <r_i_glide_energy>
-39.8121

> <r_i_glide_einternal>
9.86008

> <r_i_glide_emodel>
-51.5368

> <r_glide_XP_HBond>
-0.319272

> <i_i_glide_confnum>
1

> <i_i_glide_posenum>
21

> <r_i_glide_eff_state_penalty>
0.0169

> <i_glide_XP_PoseRank>
10

$$$$
