BACE_9.smi:1
                    3D
 Structure written by MMmdl.
 87 89  0  0  1  0            999 V2000
   18.9980   47.4889   -7.2421 C   0  0  0  0  0  0
   19.4800   46.3057   -8.0997 C   0  0  2  0  0  0
   20.9420   46.5338   -8.5574 C   0  0  0  0  0  0
   21.5807   45.3323   -9.2757 C   0  0  0  0  0  0
   23.0833   45.5192   -9.5669 C   0  0  0  0  0  0
   23.7052   44.3009  -10.2675 C   0  0  0  0  0  0
   23.9636   43.1036   -9.3259 C   0  0  0  0  0  0
   24.2411   41.7786  -10.0658 C   0  0  0  0  0  0
   22.9805   40.9254  -10.2994 C   0  0  0  0  0  0
   22.0636   41.5585  -11.2393 N   0  0  0  0  0  0
   20.6912   41.3194  -11.1412 C   0  0  0  0  0  0
   20.1575   40.0841  -10.7103 C   0  0  0  0  0  0
   18.7622   39.9126  -10.5952 C   0  0  0  0  0  0
   17.8968   40.9803  -10.9282 C   0  0  0  0  0  0
   18.4315   42.2249  -11.3366 C   0  0  0  0  0  0
   19.8240   42.3786  -11.4532 C   0  0  0  0  0  0
   17.5367   43.3793  -11.6692 C   0  0  0  0  0  0
   16.8602   43.3519  -12.6922 O   0  0  0  0  0  0
   17.5201   44.4435  -10.8472 N   0  0  0  0  0  0
   18.0938   44.5733   -9.5062 C   0  0  1  0  0  0
   18.5076   46.0520   -9.2804 C   0  0  0  0  0  0
   17.0853   43.9584   -8.4842 C   0  0  1  0  0  0
   17.6922   43.2308   -7.2652 C   0  0  0  0  0  0
   18.4709   42.0513   -7.6398 N   0  0  0  0  0  0
   19.9138   42.2609   -7.6771 C   0  0  0  0  0  0
   20.6443   41.4092   -6.6638 C   0  0  0  0  0  0
   21.1095   40.1250   -7.0009 C   0  0  0  0  0  0
   21.8148   39.3599   -6.0535 C   0  0  0  0  0  0
   22.0524   39.8773   -4.7642 C   0  0  0  0  0  0
   21.5562   41.1486   -4.4057 C   0  0  0  0  0  0
   20.8599   41.9118   -5.3669 C   0  0  0  0  0  0
   21.7815   41.6989   -3.0082 C   0  0  0  0  0  0
   20.4552   41.9424   -2.2722 C   0  0  0  0  0  0
   22.6551   42.9559   -3.0494 C   0  0  0  0  0  0
   16.2169   44.9467   -7.9647 O   0  0  0  0  0  0
   18.2149   38.5779  -10.1195 C   0  0  0  0  0  0
   18.7659   38.1843   -8.8718 O   0  0  0  0  0  0
   17.9754   38.5646   -7.7515 C   0  0  0  0  0  0
   19.4805   45.4389   -7.4435 H   0  0  0  0  0  0
   19.0145   43.9955   -9.4872 H   0  0  0  0  0  0
   16.4485   43.2255   -8.9858 H   0  0  0  0  0  0
   18.9911   48.4141   -7.8220 H   0  0  0  0  0  0
   19.6377   47.6376   -6.3683 H   0  0  0  0  0  0
   17.9846   47.3183   -6.8706 H   0  0  0  0  0  0
   20.9936   47.4145   -9.2021 H   0  0  0  0  0  0
   21.5442   46.7689   -7.6772 H   0  0  0  0  0  0
   21.4511   44.4448   -8.6632 H   0  0  0  0  0  0
   21.0565   45.1337  -10.2107 H   0  0  0  0  0  0
   23.2057   46.3962  -10.2027 H   0  0  0  0  0  0
   23.6313   45.7352   -8.6473 H   0  0  0  0  0  0
   23.0614   44.0127  -11.0960 H   0  0  0  0  0  0
   24.6568   44.5933  -10.7165 H   0  0  0  0  0  0
   24.8266   43.3468   -8.7030 H   0  0  0  0  0  0
   23.1321   42.9539   -8.6364 H   0  0  0  0  0  0
   24.7592   41.9605  -11.0072 H   0  0  0  0  0  0
   24.9328   41.1907   -9.4647 H   0  0  0  0  0  0
   23.2614   39.9563  -10.7003 H   0  0  0  0  0  0
   22.4921   40.7423   -9.3432 H   0  0  0  0  0  0
   22.3685   42.4379  -11.6322 H   0  0  0  0  0  0
   20.8112   39.2616  -10.4597 H   0  0  0  0  0  0
   16.8278   40.8548  -10.8364 H   0  0  0  0  0  0
   20.2332   43.3283  -11.7679 H   0  0  0  0  0  0
   16.9336   45.2105  -11.1391 H   0  0  0  0  0  0
   17.6118   46.6668   -9.1764 H   0  0  0  0  0  0
   18.9759   46.4251  -10.1936 H   0  0  0  0  0  0
   18.2584   43.9010   -6.6170 H   0  0  0  0  0  0
   16.8600   42.8838   -6.6483 H   0  0  0  0  0  0
   18.2998   41.3533   -6.9171 H   0  0  0  0  0  0
   20.3029   42.0583   -8.6731 H   0  0  0  0  0  0
   20.1620   43.2948   -7.4581 H   0  0  0  0  0  0
   20.9238   39.7175   -7.9817 H   0  0  0  0  0  0
   22.1709   38.3768   -6.3215 H   0  0  0  0  0  0
   22.5928   39.2830   -4.0421 H   0  0  0  0  0  0
   20.4792   42.8880   -5.1101 H   0  0  0  0  0  0
   22.3325   40.9523   -2.4401 H   0  0  0  0  0  0
   19.8813   41.0213   -2.1955 H   0  0  0  0  0  0
   19.8345   42.6804   -2.7814 H   0  0  0  0  0  0
   20.6385   42.3051   -1.2622 H   0  0  0  0  0  0
   23.6089   42.7486   -3.5344 H   0  0  0  0  0  0
   22.8596   43.3358   -2.0470 H   0  0  0  0  0  0
   22.1722   43.7549   -3.6063 H   0  0  0  0  0  0
   15.7346   44.5400   -7.2527 H   0  0  0  0  0  0
   17.1231   38.5706  -10.1098 H   0  0  0  0  0  0
   18.5196   37.8259  -10.8406 H   0  0  0  0  0  0
   17.2110   37.8105   -7.5437 H   0  0  0  0  0  0
   17.4813   39.5308   -7.9003 H   0  0  0  0  0  0
   18.6160   38.6479   -6.8690 H   0  0  0  0  0  0
  1  2  1  0  0  0
  1 42  1  0  0  0
  1 43  1  0  0  0
  1 44  1  0  0  0
  2 39  1  0  0  0
  2 21  1  0  0  0
  2  3  1  0  0  0
  3  4  1  0  0  0
  3 45  1  0  0  0
  3 46  1  0  0  0
  4  5  1  0  0  0
  4 47  1  0  0  0
  4 48  1  0  0  0
  5  6  1  0  0  0
  5 49  1  0  0  0
  5 50  1  0  0  0
  6  7  1  0  0  0
  6 51  1  0  0  0
  6 52  1  0  0  0
  7  8  1  0  0  0
  7 53  1  0  0  0
  7 54  1  0  0  0
  8  9  1  0  0  0
  8 55  1  0  0  0
  8 56  1  0  0  0
  9 10  1  0  0  0
  9 57  1  0  0  0
  9 58  1  0  0  0
 10 11  1  0  0  0
 10 59  1  0  0  0
 11 16  1  0  0  0
 11 12  2  0  0  0
 12 13  1  0  0  0
 12 60  1  0  0  0
 13 14  2  0  0  0
 13 36  1  0  0  0
 14 15  1  0  0  0
 14 61  1  0  0  0
 15 16  2  0  0  0
 15 17  1  0  0  0
 16 62  1  0  0  0
 17 18  2  0  0  0
 17 19  1  0  0  0
 19 20  1  0  0  0
 19 63  1  0  0  0
 20 40  1  0  0  0
 20 21  1  0  0  0
 20 22  1  0  0  0
 21 64  1  0  0  0
 21 65  1  0  0  0
 22 41  1  0  0  0
 22 23  1  0  0  0
 22 35  1  0  0  0
 23 24  1  0  0  0
 23 66  1  0  0  0
 23 67  1  0  0  0
 24 25  1  0  0  0
 24 68  1  0  0  0
 25 26  1  0  0  0
 25 69  1  0  0  0
 25 70  1  0  0  0
 26 31  1  0  0  0
 26 27  2  0  0  0
 27 28  1  0  0  0
 27 71  1  0  0  0
 28 29  2  0  0  0
 28 72  1  0  0  0
 29 30  1  0  0  0
 29 73  1  0  0  0
 30 31  2  0  0  0
 30 32  1  0  0  0
 31 74  1  0  0  0
 32 33  1  0  0  0
 32 34  1  0  0  0
 32 75  1  0  0  0
 33 76  1  0  0  0
 33 77  1  0  0  0
 33 78  1  0  0  0
 34 79  1  0  0  0
 34 80  1  0  0  0
 34 81  1  0  0  0
 35 82  1  0  0  0
 36 37  1  0  0  0
 36 83  1  0  0  0
 36 84  1  0  0  0
 37 38  1  0  0  0
 38 85  1  0  0  0
 38 86  1  0  0  0
 38 87  1  0  0  0
M  END
> <s_m_source_file>
BACE_9.smi

> <i_m_source_file_index>
1

> <i_lp_mmshare_version>
42013

> <i_f3d_flags>
0

> <s_epik_input>
W05IXTFbQ0gyXVtDSDJdW0NIMl1bQ0gyXVtDSDJdW0NIMl1bQ0gyXVtDQEBIXShbQ0gzXSlbQ0gyXVtDQEhdKFtOSF1DKD1PKWMoW2NIXTIpW2NIXWMoW2NIXWMxMilbQ0gyXU9bQ0gzXSlbQ0BIXShbT0hdKVtDSDJdW05IXVtDSDJdYzNbY0hdW2NIXVtjSF1jKFtjSF0zKVtDSF0oW0NIM10pW0NIM10=

> <s_epik_cmdline>
J2VwaWtfcHl0aG9uJywgJy1waCcsICc3LjAnLCAnLXRuJywgJzgnLCAnLW1hJywgJzIwMCcsICctaW1hZScsICc8aW5maWxlLm1hZT4nLCAnLW9tYWUnLCAnPG91dGZpbGUubWFlPic=

> <r_epik_Ionization_Penalty>
  2.1300

> <r_epik_Ionization_Penalty_Charging>
  0.0000

> <r_epik_Ionization_Penalty_Neutral>
  2.1300

> <r_epik_State_Penalty>
  2.2676

> <r_epik_Charging_Adjusted_Penalty>
2.26762

> <i_epik_Tot_Q>
0

> <i_epik_Tot_abs_Q>
0

> <s_lp_Force_Field>
OPLS_2005

> <r_lp_Energy>
47.2954

> <b_lp_Chiralities_Consistent>
1

> <s_lp_Variant>
BACE_9.smi:1-2

> <chiral flag>
1

> <version>
0

> <r_i_glide_lipo>
-0.947222

> <r_i_glide_hbond>
-0.319819

> <r_i_glide_metal>
-0

> <r_i_glide_rewards>
0

> <r_i_glide_erotb>
0.44997

> <r_i_glide_esite>
-0.00440583

> <chiral flag>
1

> <s_i_glide_gridfile>
second_dock_grid_2

> <i_i_glide_lignum>
19

> <i_i_glide_rotatable_bonds>
9

> <r_i_docking_score>
-3.08499

> <r_i_glide_ligand_efficiency>
-0.0811838

> <r_i_glide_ligand_efficiency_sa>
-0.272938

> <r_i_glide_ligand_efficiency_ln>
-0.665214

> <r_glide_XP_GScore>
-5.35259

> <r_i_glide_gscore>
-5.35259

> <r_i_glide_evdw>
-37.3451

> <r_i_glide_ecoul>
-11.1419

> <r_i_glide_energy>
-48.487

> <r_i_glide_einternal>
2.90913

> <r_i_glide_emodel>
-63.8561

> <r_glide_XP_HBond>
-1.62339

> <i_i_glide_confnum>
1

> <i_i_glide_posenum>
44

> <r_i_glide_eff_state_penalty>
2.2676

> <i_glide_XP_PoseRank>
1

$$$$
BACE_9.smi:1
                    3D
 Structure written by MMmdl.
 87 89  0  0  1  0            999 V2000
   20.4739   46.3906   -6.9457 C   0  0  0  0  0  0
   20.3413   44.9989   -7.5864 C   0  0  2  0  0  0
   21.7376   44.3531   -7.7409 C   0  0  0  0  0  0
   21.6966   42.8983   -8.2284 C   0  0  0  0  0  0
   23.0669   42.2028   -8.2032 C   0  0  0  0  0  0
   22.9828   40.7360   -8.6526 C   0  0  0  0  0  0
   22.3608   39.8120   -7.5861 C   0  0  0  0  0  0
   21.9285   38.4346   -8.1115 C   0  0  0  0  0  0
   20.4855   38.3780   -8.6390 C   0  0  0  0  0  0
   20.3177   39.1157   -9.8789 N   0  0  0  0  0  0
   19.0547   39.6738  -10.1016 C   0  0  0  0  0  0
   17.8587   38.9825   -9.7994 C   0  0  0  0  0  0
   16.6065   39.5873  -10.0396 C   0  0  0  0  0  0
   16.5490   40.8824  -10.5950 C   0  0  0  0  0  0
   17.7403   41.5936  -10.8504 C   0  0  0  0  0  0
   18.9875   40.9749  -10.6309 C   0  0  0  0  0  0
   17.6836   42.9961  -11.3664 C   0  0  0  0  0  0
   17.1462   43.2438  -12.4452 O   0  0  0  0  0  0
   18.2452   43.9628  -10.6184 N   0  0  0  0  0  0
   18.5639   43.9405   -9.1807 C   0  0  1  0  0  0
   19.5688   45.0867   -8.9261 C   0  0  0  0  0  0
   17.2878   44.0777   -8.2793 C   0  0  1  0  0  0
   16.1462   44.9353   -8.8949 C   0  0  0  0  0  0
   14.7932   44.6035   -8.4326 N   0  0  0  0  0  0
   14.1458   43.4801   -9.1272 C   0  0  0  0  0  0
   13.6652   43.7359  -10.5524 C   0  0  0  0  0  0
   12.9297   42.7300  -11.2029 C   0  0  0  0  0  0
   12.4548   42.9352  -12.5137 C   0  0  0  0  0  0
   12.7064   44.1487  -13.1803 C   0  0  0  0  0  0
   13.4120   45.1852  -12.5340 C   0  0  0  0  0  0
   13.9081   44.9437  -11.2384 C   0  0  0  0  0  0
   13.6340   46.5680  -13.1557 C   0  0  0  0  0  0
   12.9422   46.7928  -14.5122 C   0  0  0  0  0  0
   15.1271   46.9434  -13.1920 C   0  0  0  0  0  0
   16.8794   42.7892   -7.8622 O   0  0  0  0  0  0
   15.3243   38.8291   -9.7343 C   0  0  0  0  0  0
   15.3085   38.2566   -8.4398 O   0  0  0  0  0  0
   15.0458   39.1888   -7.4026 C   0  0  0  0  0  0
   19.7743   44.3880   -6.8810 H   0  0  0  0  0  0
   19.0647   43.0063   -8.9313 H   0  0  0  0  0  0
   17.5679   44.5617   -7.3430 H   0  0  0  0  0  0
   21.0499   47.0648   -7.5832 H   0  0  0  0  0  0
   20.9764   46.3345   -5.9777 H   0  0  0  0  0  0
   19.4951   46.8423   -6.7769 H   0  0  0  0  0  0
   22.3523   44.9474   -8.4182 H   0  0  0  0  0  0
   22.2448   44.3779   -6.7741 H   0  0  0  0  0  0
   20.9861   42.3472   -7.6131 H   0  0  0  0  0  0
   21.3141   42.8648   -9.2484 H   0  0  0  0  0  0
   23.7465   42.7372   -8.8677 H   0  0  0  0  0  0
   23.5065   42.2592   -7.2073 H   0  0  0  0  0  0
   22.4288   40.6875   -9.5878 H   0  0  0  0  0  0
   23.9829   40.3694   -8.8855 H   0  0  0  0  0  0
   23.1023   39.6746   -6.7990 H   0  0  0  0  0  0
   21.5066   40.2811   -7.0968 H   0  0  0  0  0  0
   22.6322   38.0577   -8.8519 H   0  0  0  0  0  0
   21.9805   37.7501   -7.2669 H   0  0  0  0  0  0
   20.2057   37.3452   -8.8396 H   0  0  0  0  0  0
   19.8009   38.7472   -7.8725 H   0  0  0  0  0  0
   21.1077   39.6876  -10.1402 H   0  0  0  0  0  0
   17.8903   37.9860   -9.3861 H   0  0  0  0  0  0
   15.5936   41.3426  -10.7882 H   0  0  0  0  0  0
   19.8982   41.5122  -10.8470 H   0  0  0  0  0  0
   18.2647   44.8761  -11.0443 H   0  0  0  0  0  0
   19.0243   46.0278   -8.9832 H   0  0  0  0  0  0
   20.2955   45.1331   -9.7383 H   0  0  0  0  0  0
   16.3609   45.9755   -8.6573 H   0  0  0  0  0  0
   16.1653   44.8949   -9.9741 H   0  0  0  0  0  0
   14.8614   44.3583   -7.4500 H   0  0  0  0  0  0
   14.7839   42.5984   -9.1253 H   0  0  0  0  0  0
   13.2644   43.1897   -8.5563 H   0  0  0  0  0  0
   12.7301   41.7978  -10.6950 H   0  0  0  0  0  0
   11.8968   42.1546  -13.0114 H   0  0  0  0  0  0
   12.3272   44.2672  -14.1817 H   0  0  0  0  0  0
   14.4596   45.7363  -10.7601 H   0  0  0  0  0  0
   13.1528   47.2661  -12.4683 H   0  0  0  0  0  0
   11.8742   46.6150  -14.4434 H   0  0  0  0  0  0
   13.3224   46.1497  -15.3012 H   0  0  0  0  0  0
   13.0711   47.8210  -14.8497 H   0  0  0  0  0  0
   15.5258   47.1041  -12.1908 H   0  0  0  0  0  0
   15.2951   47.8635  -13.7489 H   0  0  0  0  0  0
   15.7295   46.1549  -13.6382 H   0  0  0  0  0  0
   16.3729   42.8593   -7.0597 H   0  0  0  0  0  0
   14.4422   39.4512   -9.8968 H   0  0  0  0  0  0
   15.2601   38.0036  -10.4391 H   0  0  0  0  0  0
   15.0573   38.6801   -6.4401 H   0  0  0  0  0  0
   14.0628   39.6451   -7.5210 H   0  0  0  0  0  0
   15.7983   39.9763   -7.3685 H   0  0  0  0  0  0
  1  2  1  0  0  0
  1 42  1  0  0  0
  1 43  1  0  0  0
  1 44  1  0  0  0
  2 39  1  0  0  0
  2 21  1  0  0  0
  2  3  1  0  0  0
  3  4  1  0  0  0
  3 45  1  0  0  0
  3 46  1  0  0  0
  4  5  1  0  0  0
  4 47  1  0  0  0
  4 48  1  0  0  0
  5  6  1  0  0  0
  5 49  1  0  0  0
  5 50  1  0  0  0
  6  7  1  0  0  0
  6 51  1  0  0  0
  6 52  1  0  0  0
  7  8  1  0  0  0
  7 53  1  0  0  0
  7 54  1  0  0  0
  8  9  1  0  0  0
  8 55  1  0  0  0
  8 56  1  0  0  0
  9 10  1  0  0  0
  9 57  1  0  0  0
  9 58  1  0  0  0
 10 11  1  0  0  0
 10 59  1  0  0  0
 11 16  1  0  0  0
 11 12  2  0  0  0
 12 13  1  0  0  0
 12 60  1  0  0  0
 13 14  2  0  0  0
 13 36  1  0  0  0
 14 15  1  0  0  0
 14 61  1  0  0  0
 15 16  2  0  0  0
 15 17  1  0  0  0
 16 62  1  0  0  0
 17 18  2  0  0  0
 17 19  1  0  0  0
 19 20  1  0  0  0
 19 63  1  0  0  0
 20 40  1  0  0  0
 20 21  1  0  0  0
 20 22  1  0  0  0
 21 64  1  0  0  0
 21 65  1  0  0  0
 22 41  1  0  0  0
 22 23  1  0  0  0
 22 35  1  0  0  0
 23 24  1  0  0  0
 23 66  1  0  0  0
 23 67  1  0  0  0
 24 25  1  0  0  0
 24 68  1  0  0  0
 25 26  1  0  0  0
 25 69  1  0  0  0
 25 70  1  0  0  0
 26 31  1  0  0  0
 26 27  2  0  0  0
 27 28  1  0  0  0
 27 71  1  0  0  0
 28 29  2  0  0  0
 28 72  1  0  0  0
 29 30  1  0  0  0
 29 73  1  0  0  0
 30 31  2  0  0  0
 30 32  1  0  0  0
 31 74  1  0  0  0
 32 33  1  0  0  0
 32 34  1  0  0  0
 32 75  1  0  0  0
 33 76  1  0  0  0
 33 77  1  0  0  0
 33 78  1  0  0  0
 34 79  1  0  0  0
 34 80  1  0  0  0
 34 81  1  0  0  0
 35 82  1  0  0  0
 36 37  1  0  0  0
 36 83  1  0  0  0
 36 84  1  0  0  0
 37 38  1  0  0  0
 38 85  1  0  0  0
 38 86  1  0  0  0
 38 87  1  0  0  0
M  END
> <s_m_source_file>
BACE_9.smi

> <i_m_source_file_index>
1

> <i_lp_mmshare_version>
42013

> <i_f3d_flags>
0

> <s_epik_input>
W05IXTFbQ0gyXVtDSDJdW0NIMl1bQ0gyXVtDSDJdW0NIMl1bQ0gyXVtDQEBIXShbQ0gzXSlbQ0gyXVtDQEhdKFtOSF1DKD1PKWMoW2NIXTIpW2NIXWMoW2NIXWMxMilbQ0gyXU9bQ0gzXSlbQ0BIXShbT0hdKVtDSDJdW05IXVtDSDJdYzNbY0hdW2NIXVtjSF1jKFtjSF0zKVtDSF0oW0NIM10pW0NIM10=

> <s_epik_cmdline>
J2VwaWtfcHl0aG9uJywgJy1waCcsICc3LjAnLCAnLXRuJywgJzgnLCAnLW1hJywgJzIwMCcsICctaW1hZScsICc8aW5maWxlLm1hZT4nLCAnLW9tYWUnLCAnPG91dGZpbGUubWFlPic=

> <r_epik_Ionization_Penalty>
  2.1300

> <r_epik_Ionization_Penalty_Charging>
  0.0000

> <r_epik_Ionization_Penalty_Neutral>
  2.1300

> <r_epik_State_Penalty>
  2.2676

> <r_epik_Charging_Adjusted_Penalty>
2.26762

> <i_epik_Tot_Q>
0

> <i_epik_Tot_abs_Q>
0

> <s_lp_Force_Field>
OPLS_2005

> <r_lp_Energy>
47.2954

> <b_lp_Chiralities_Consistent>
1

> <s_lp_Variant>
BACE_9.smi:1-2

> <chiral flag>
1

> <version>
0

> <r_i_glide_lipo>
-0.947222

> <r_i_glide_hbond>
-0.319819

> <r_i_glide_metal>
-0

> <r_i_glide_rewards>
0

> <r_i_glide_erotb>
0.44997

> <r_i_glide_esite>
-0.00440583

> <chiral flag>
1

> <s_i_glide_gridfile>
second_dock_grid_2

> <i_i_glide_lignum>
19

> <i_i_glide_rotatable_bonds>
9

> <r_i_docking_score>
-2.06394

> <r_i_glide_ligand_efficiency>
-0.0543141

> <r_i_glide_ligand_efficiency_sa>
-0.182603

> <r_i_glide_ligand_efficiency_ln>
-0.445045

> <r_glide_XP_GScore>
-4.33154

> <r_i_glide_gscore>
-4.33154

> <r_i_glide_evdw>
-36.8499

> <r_i_glide_ecoul>
-10.3882

> <r_i_glide_energy>
-47.2381

> <r_i_glide_einternal>
9.84208

> <r_i_glide_emodel>
-61.0978

> <r_glide_XP_HBond>
-1.62339

> <i_i_glide_confnum>
1

> <i_i_glide_posenum>
8

> <r_i_glide_eff_state_penalty>
2.2676

> <i_glide_XP_PoseRank>
2

$$$$
BACE_9.smi:1
                    3D
 Structure written by MMmdl.
 87 89  0  0  1  0            999 V2000
   19.2563   46.3524   -6.3568 C   0  0  0  0  0  0
   19.5084   45.0429   -7.1201 C   0  0  2  0  0  0
   21.0126   44.7195   -7.1753 C   0  0  0  0  0  0
   21.2944   43.2911   -7.6640 C   0  0  0  0  0  0
   22.7595   42.8638   -7.4788 C   0  0  0  0  0  0
   23.0095   41.4171   -7.9280 C   0  0  0  0  0  0
   22.4708   40.3669   -6.9318 C   0  0  0  0  0  0
   22.3387   38.9464   -7.5123 C   0  0  0  0  0  0
   20.9741   38.6662   -8.1670 C   0  0  0  0  0  0
   20.7833   39.4311   -9.3874 N   0  0  0  0  0  0
   19.4666   39.7354   -9.7470 C   0  0  0  0  0  0
   18.4342   38.7737   -9.6775 C   0  0  0  0  0  0
   17.1248   39.1085  -10.0736 C   0  0  0  0  0  0
   16.8404   40.4184  -10.5153 C   0  0  0  0  0  0
   17.8619   41.3910  -10.5671 C   0  0  0  0  0  0
   19.1766   41.0356  -10.2021 C   0  0  0  0  0  0
   17.5628   42.7626  -11.0929 C   0  0  0  0  0  0
   17.2482   42.9016  -12.2732 O   0  0  0  0  0  0
   17.6604   43.8239  -10.2715 N   0  0  0  0  0  0
   17.8937   43.8715   -8.8226 C   0  0  1  0  0  0
   18.8362   45.0664   -8.5155 C   0  0  0  0  0  0
   16.5129   43.8801   -8.0920 C   0  0  1  0  0  0
   15.3185   44.3801   -8.9327 C   0  0  0  0  0  0
   14.0453   43.9364   -8.3595 N   0  0  0  0  0  0
   13.2424   43.0890   -9.2443 C   0  0  0  0  0  0
   13.1104   43.5819  -10.6754 C   0  0  0  0  0  0
   12.3621   42.8648  -11.6333 C   0  0  0  0  0  0
   12.2483   43.3579  -12.9447 C   0  0  0  0  0  0
   12.8593   44.5747  -13.3027 C   0  0  0  0  0  0
   13.6056   45.3043  -12.3523 C   0  0  0  0  0  0
   13.7185   44.8020  -11.0381 C   0  0  0  0  0  0
   14.2792   46.6141  -12.7491 C   0  0  0  0  0  0
   13.6728   47.2004  -14.0362 C   0  0  0  0  0  0
   15.8041   46.4573  -12.8627 C   0  0  0  0  0  0
   16.1797   42.5816   -7.6409 O   0  0  0  0  0  0
   16.0303   38.0605  -10.0083 C   0  0  0  0  0  0
   15.5869   37.8404   -8.6755 O   0  0  0  0  0  0
   14.8074   38.9176   -8.1837 C   0  0  0  0  0  0
   19.0785   44.2452   -6.5283 H   0  0  0  0  0  0
   18.4290   42.9685   -8.5320 H   0  0  0  0  0  0
   16.5863   44.5248   -7.2152 H   0  0  0  0  0  0
   19.7021   47.2055   -6.8643 H   0  0  0  0  0  0
   19.6781   46.3103   -5.3513 H   0  0  0  0  0  0
   18.1906   46.5509   -6.2467 H   0  0  0  0  0  0
   21.5452   45.4397   -7.7982 H   0  0  0  0  0  0
   21.4289   44.8227   -6.1719 H   0  0  0  0  0  0
   20.6438   42.6019   -7.1260 H   0  0  0  0  0  0
   21.0239   43.2030   -8.7154 H   0  0  0  0  0  0
   23.3993   43.5301   -8.0600 H   0  0  0  0  0  0
   23.0643   42.9818   -6.4372 H   0  0  0  0  0  0
   22.5846   41.2806   -8.9213 H   0  0  0  0  0  0
   24.0841   41.2548   -8.0493 H   0  0  0  0  0  0
   23.1507   40.3398   -6.0806 H   0  0  0  0  0  0
   21.5090   40.6681   -6.5185 H   0  0  0  0  0  0
   23.1546   38.7310   -8.2038 H   0  0  0  0  0  0
   22.4527   38.2386   -6.6900 H   0  0  0  0  0  0
   20.8928   37.6044   -8.4038 H   0  0  0  0  0  0
   20.1748   38.8990   -7.4632 H   0  0  0  0  0  0
   21.4576   40.1663   -9.5297 H   0  0  0  0  0  0
   18.6443   37.7701   -9.3380 H   0  0  0  0  0  0
   15.8365   40.6761  -10.8208 H   0  0  0  0  0  0
   19.9650   41.7707  -10.2722 H   0  0  0  0  0  0
   17.4362   44.7129  -10.6894 H   0  0  0  0  0  0
   18.2932   45.9987   -8.6613 H   0  0  0  0  0  0
   19.6201   45.0953   -9.2724 H   0  0  0  0  0  0
   15.3507   45.4581   -9.0505 H   0  0  0  0  0  0
   15.4095   43.9951   -9.9481 H   0  0  0  0  0  0
   14.2580   43.4296   -7.5047 H   0  0  0  0  0  0
   13.6883   42.0959   -9.2889 H   0  0  0  0  0  0
   12.2468   42.9446   -8.8199 H   0  0  0  0  0  0
   11.8719   41.9367  -11.3763 H   0  0  0  0  0  0
   11.6823   42.8004  -13.6727 H   0  0  0  0  0  0
   12.7479   44.9465  -14.3140 H   0  0  0  0  0  0
   14.2812   45.3584  -10.3014 H   0  0  0  0  0  0
   14.0938   47.3336  -11.9491 H   0  0  0  0  0  0
   12.5928   47.3246  -13.9459 H   0  0  0  0  0  0
   13.8581   46.5595  -14.8979 H   0  0  0  0  0  0
   14.0992   48.1787  -14.2553 H   0  0  0  0  0  0
   16.2283   46.1079  -11.9234 H   0  0  0  0  0  0
   16.2814   47.4079  -13.0984 H   0  0  0  0  0  0
   16.0780   45.7433  -13.6410 H   0  0  0  0  0  0
   15.8730   42.6390   -6.7475 H   0  0  0  0  0  0
   15.1939   38.4011  -10.6248 H   0  0  0  0  0  0
   16.3889   37.1240  -10.4356 H   0  0  0  0  0  0
   14.4860   38.7040   -7.1642 H   0  0  0  0  0  0
   13.9187   39.0739   -8.7960 H   0  0  0  0  0  0
   15.3894   39.8418   -8.1676 H   0  0  0  0  0  0
  1  2  1  0  0  0
  1 42  1  0  0  0
  1 43  1  0  0  0
  1 44  1  0  0  0
  2 39  1  0  0  0
  2 21  1  0  0  0
  2  3  1  0  0  0
  3  4  1  0  0  0
  3 45  1  0  0  0
  3 46  1  0  0  0
  4  5  1  0  0  0
  4 47  1  0  0  0
  4 48  1  0  0  0
  5  6  1  0  0  0
  5 49  1  0  0  0
  5 50  1  0  0  0
  6  7  1  0  0  0
  6 51  1  0  0  0
  6 52  1  0  0  0
  7  8  1  0  0  0
  7 53  1  0  0  0
  7 54  1  0  0  0
  8  9  1  0  0  0
  8 55  1  0  0  0
  8 56  1  0  0  0
  9 10  1  0  0  0
  9 57  1  0  0  0
  9 58  1  0  0  0
 10 11  1  0  0  0
 10 59  1  0  0  0
 11 16  1  0  0  0
 11 12  2  0  0  0
 12 13  1  0  0  0
 12 60  1  0  0  0
 13 14  2  0  0  0
 13 36  1  0  0  0
 14 15  1  0  0  0
 14 61  1  0  0  0
 15 16  2  0  0  0
 15 17  1  0  0  0
 16 62  1  0  0  0
 17 18  2  0  0  0
 17 19  1  0  0  0
 19 20  1  0  0  0
 19 63  1  0  0  0
 20 40  1  0  0  0
 20 21  1  0  0  0
 20 22  1  0  0  0
 21 64  1  0  0  0
 21 65  1  0  0  0
 22 41  1  0  0  0
 22 23  1  0  0  0
 22 35  1  0  0  0
 23 24  1  0  0  0
 23 66  1  0  0  0
 23 67  1  0  0  0
 24 25  1  0  0  0
 24 68  1  0  0  0
 25 26  1  0  0  0
 25 69  1  0  0  0
 25 70  1  0  0  0
 26 31  1  0  0  0
 26 27  2  0  0  0
 27 28  1  0  0  0
 27 71  1  0  0  0
 28 29  2  0  0  0
 28 72  1  0  0  0
 29 30  1  0  0  0
 29 73  1  0  0  0
 30 31  2  0  0  0
 30 32  1  0  0  0
 31 74  1  0  0  0
 32 33  1  0  0  0
 32 34  1  0  0  0
 32 75  1  0  0  0
 33 76  1  0  0  0
 33 77  1  0  0  0
 33 78  1  0  0  0
 34 79  1  0  0  0
 34 80  1  0  0  0
 34 81  1  0  0  0
 35 82  1  0  0  0
 36 37  1  0  0  0
 36 83  1  0  0  0
 36 84  1  0  0  0
 37 38  1  0  0  0
 38 85  1  0  0  0
 38 86  1  0  0  0
 38 87  1  0  0  0
M  END
> <s_m_source_file>
BACE_9.smi

> <i_m_source_file_index>
1

> <i_lp_mmshare_version>
42013

> <i_f3d_flags>
0

> <s_epik_input>
W05IXTFbQ0gyXVtDSDJdW0NIMl1bQ0gyXVtDSDJdW0NIMl1bQ0gyXVtDQEBIXShbQ0gzXSlbQ0gyXVtDQEhdKFtOSF1DKD1PKWMoW2NIXTIpW2NIXWMoW2NIXWMxMilbQ0gyXU9bQ0gzXSlbQ0BIXShbT0hdKVtDSDJdW05IXVtDSDJdYzNbY0hdW2NIXVtjSF1jKFtjSF0zKVtDSF0oW0NIM10pW0NIM10=

> <s_epik_cmdline>
J2VwaWtfcHl0aG9uJywgJy1waCcsICc3LjAnLCAnLXRuJywgJzgnLCAnLW1hJywgJzIwMCcsICctaW1hZScsICc8aW5maWxlLm1hZT4nLCAnLW9tYWUnLCAnPG91dGZpbGUubWFlPic=

> <r_epik_Ionization_Penalty>
  2.1300

> <r_epik_Ionization_Penalty_Charging>
  0.0000

> <r_epik_Ionization_Penalty_Neutral>
  2.1300

> <r_epik_State_Penalty>
  2.2676

> <r_epik_Charging_Adjusted_Penalty>
2.26762

> <i_epik_Tot_Q>
0

> <i_epik_Tot_abs_Q>
0

> <s_lp_Force_Field>
OPLS_2005

> <r_lp_Energy>
47.2954

> <b_lp_Chiralities_Consistent>
1

> <s_lp_Variant>
BACE_9.smi:1-2

> <chiral flag>
1

> <version>
0

> <r_i_glide_lipo>
-0.947222

> <r_i_glide_hbond>
-0.319819

> <r_i_glide_metal>
-0

> <r_i_glide_rewards>
0

> <r_i_glide_erotb>
0.44997

> <r_i_glide_esite>
-0.00440583

> <chiral flag>
1

> <s_i_glide_gridfile>
second_dock_grid_2

> <i_i_glide_lignum>
19

> <i_i_glide_rotatable_bonds>
9

> <r_i_docking_score>
-1.96021

> <r_i_glide_ligand_efficiency>
-0.0515845

> <r_i_glide_ligand_efficiency_sa>
-0.173426

> <r_i_glide_ligand_efficiency_ln>
-0.422679

> <r_glide_XP_GScore>
-4.22781

> <r_i_glide_gscore>
-4.22781

> <r_i_glide_evdw>
-28.3892

> <r_i_glide_ecoul>
-12.0481

> <r_i_glide_energy>
-40.4373

> <r_i_glide_einternal>
8.95954

> <r_i_glide_emodel>
-58.2138

> <r_glide_XP_HBond>
-1.62339

> <i_i_glide_confnum>
1

> <i_i_glide_posenum>
6

> <r_i_glide_eff_state_penalty>
2.2676

> <i_glide_XP_PoseRank>
3

$$$$
BACE_9.smi:1
                    3D
 Structure written by MMmdl.
 87 89  0  0  1  0            999 V2000
   20.3942   46.3099   -6.6565 C   0  0  0  0  0  0
   20.3373   44.9865   -7.4365 C   0  0  2  0  0  0
   21.7513   44.3678   -7.5287 C   0  0  0  0  0  0
   21.7766   42.9633   -8.1472 C   0  0  0  0  0  0
   23.1359   42.2563   -8.0399 C   0  0  0  0  0  0
   23.0849   40.8294   -8.6067 C   0  0  0  0  0  0
   22.3769   39.8350   -7.6692 C   0  0  0  0  0  0
   22.0598   38.4727   -8.3061 C   0  0  0  0  0  0
   20.6849   38.3863   -8.9902 C   0  0  0  0  0  0
   20.6084   39.1672  -10.2176 N   0  0  0  0  0  0
   19.3867   39.8043  -10.4715 C   0  0  0  0  0  0
   18.1470   39.1814  -10.2040 C   0  0  0  0  0  0
   16.9314   39.8751  -10.4049 C   0  0  0  0  0  0
   16.9650   41.1863  -10.9173 C   0  0  0  0  0  0
   18.1981   41.8178  -11.1833 C   0  0  0  0  0  0
   19.4053   41.1201  -10.9739 C   0  0  0  0  0  0
   18.2204   43.2392  -11.6452 C   0  0  0  0  0  0
   17.9213   43.5156  -12.8064 O   0  0  0  0  0  0
   18.5575   44.1820  -10.7449 N   0  0  0  0  0  0
   18.7594   44.0327   -9.2912 C   0  0  1  0  0  0
   19.6740   45.1922   -8.8246 C   0  0  0  0  0  0
   17.4170   43.9949   -8.4869 C   0  0  1  0  0  0
   16.2347   44.6886   -9.1949 C   0  0  0  0  0  0
   14.9563   44.5597   -8.4915 N   0  0  0  0  0  0
   14.1023   43.4848   -9.0268 C   0  0  0  0  0  0
   13.5573   43.6795  -10.4480 C   0  0  0  0  0  0
   12.7806   42.6484  -11.0093 C   0  0  0  0  0  0
   12.2493   42.7833  -12.3066 C   0  0  0  0  0  0
   12.4781   43.9530  -13.0527 C   0  0  0  0  0  0
   13.2318   45.0179  -12.5047 C   0  0  0  0  0  0
   13.7857   44.8486  -11.2158 C   0  0  0  0  0  0
   13.4037   46.3653  -13.2253 C   0  0  0  0  0  0
   12.8000   46.4439  -14.6445 C   0  0  0  0  0  0
   14.8626   46.8713  -13.2136 C   0  0  0  0  0  0
   17.1153   42.6461   -8.1843 O   0  0  0  0  0  0
   15.5827   39.2603  -10.0489 C   0  0  0  0  0  0
   15.6274   37.8653   -9.7934 O   0  0  0  0  0  0
   15.9003   37.5230   -8.4418 C   0  0  0  0  0  0
   19.7212   44.3083   -6.8464 H   0  0  0  0  0  0
   19.2973   43.1058   -9.1138 H   0  0  0  0  0  0
   17.5610   44.4743   -7.5187 H   0  0  0  0  0  0
   20.9978   47.0522   -7.1795 H   0  0  0  0  0  0
   20.8298   46.1624   -5.6680 H   0  0  0  0  0  0
   19.3971   46.7270   -6.5136 H   0  0  0  0  0  0
   22.4164   45.0264   -8.0909 H   0  0  0  0  0  0
   22.1689   44.3052   -6.5214 H   0  0  0  0  0  0
   21.0080   42.3605   -7.6632 H   0  0  0  0  0  0
   21.5105   43.0242   -9.2016 H   0  0  0  0  0  0
   23.8803   42.8328   -8.5866 H   0  0  0  0  0  0
   23.4701   42.2310   -7.0028 H   0  0  0  0  0  0
   22.6051   40.8533   -9.5844 H   0  0  0  0  0  0
   24.1009   40.4734   -8.7870 H   0  0  0  0  0  0
   23.0248   39.6758   -6.8075 H   0  0  0  0  0  0
   21.4558   40.2521   -7.2633 H   0  0  0  0  0  0
   22.8580   38.1587   -8.9769 H   0  0  0  0  0  0
   22.0507   37.7504   -7.4934 H   0  0  0  0  0  0
   20.4716   37.3481   -9.2417 H   0  0  0  0  0  0
   19.9159   38.6990   -8.2814 H   0  0  0  0  0  0
   21.4395   39.6956  -10.4398 H   0  0  0  0  0  0
   18.1325   38.1674   -9.8350 H   0  0  0  0  0  0
   16.0427   41.7296  -11.0559 H   0  0  0  0  0  0
   20.3473   41.6102  -11.1674 H   0  0  0  0  0  0
   18.5967   45.1279  -11.0964 H   0  0  0  0  0  0
   19.0775   46.1050   -8.8218 H   0  0  0  0  0  0
   20.4588   45.3705   -9.5611 H   0  0  0  0  0  0
   16.4782   45.7464   -9.2963 H   0  0  0  0  0  0
   16.1334   44.3066  -10.2064 H   0  0  0  0  0  0
   15.1484   44.3552   -7.5136 H   0  0  0  0  0  0
   14.6270   42.5307   -8.9893 H   0  0  0  0  0  0
   13.2390   43.3657   -8.3730 H   0  0  0  0  0  0
   12.5904   41.7501  -10.4347 H   0  0  0  0  0  0
   11.6567   41.9904  -12.7343 H   0  0  0  0  0  0
   12.0515   44.0213  -14.0408 H   0  0  0  0  0  0
   14.3750   45.6456  -10.7974 H   0  0  0  0  0  0
   12.8263   47.0741  -12.6322 H   0  0  0  0  0  0
   11.7315   46.2393  -14.6456 H   0  0  0  0  0  0
   13.2599   45.7500  -15.3442 H   0  0  0  0  0  0
   12.9249   47.4436  -15.0622 H   0  0  0  0  0  0
   15.2124   47.0883  -12.2043 H   0  0  0  0  0  0
   14.9608   47.7954  -13.7829 H   0  0  0  0  0  0
   15.5568   46.1503  -13.6399 H   0  0  0  0  0  0
   16.5476   42.6059   -7.4282 H   0  0  0  0  0  0
   15.1344   39.7980   -9.2129 H   0  0  0  0  0  0
   14.9187   39.4072  -10.9013 H   0  0  0  0  0  0
   16.0656   36.4473   -8.4146 H   0  0  0  0  0  0
   15.0571   37.7609   -7.7901 H   0  0  0  0  0  0
   16.7922   38.0165   -8.0532 H   0  0  0  0  0  0
  1  2  1  0  0  0
  1 42  1  0  0  0
  1 43  1  0  0  0
  1 44  1  0  0  0
  2 39  1  0  0  0
  2 21  1  0  0  0
  2  3  1  0  0  0
  3  4  1  0  0  0
  3 45  1  0  0  0
  3 46  1  0  0  0
  4  5  1  0  0  0
  4 47  1  0  0  0
  4 48  1  0  0  0
  5  6  1  0  0  0
  5 49  1  0  0  0
  5 50  1  0  0  0
  6  7  1  0  0  0
  6 51  1  0  0  0
  6 52  1  0  0  0
  7  8  1  0  0  0
  7 53  1  0  0  0
  7 54  1  0  0  0
  8  9  1  0  0  0
  8 55  1  0  0  0
  8 56  1  0  0  0
  9 10  1  0  0  0
  9 57  1  0  0  0
  9 58  1  0  0  0
 10 11  1  0  0  0
 10 59  1  0  0  0
 11 16  1  0  0  0
 11 12  2  0  0  0
 12 13  1  0  0  0
 12 60  1  0  0  0
 13 14  2  0  0  0
 13 36  1  0  0  0
 14 15  1  0  0  0
 14 61  1  0  0  0
 15 16  2  0  0  0
 15 17  1  0  0  0
 16 62  1  0  0  0
 17 18  2  0  0  0
 17 19  1  0  0  0
 19 20  1  0  0  0
 19 63  1  0  0  0
 20 40  1  0  0  0
 20 21  1  0  0  0
 20 22  1  0  0  0
 21 64  1  0  0  0
 21 65  1  0  0  0
 22 41  1  0  0  0
 22 23  1  0  0  0
 22 35  1  0  0  0
 23 24  1  0  0  0
 23 66  1  0  0  0
 23 67  1  0  0  0
 24 25  1  0  0  0
 24 68  1  0  0  0
 25 26  1  0  0  0
 25 69  1  0  0  0
 25 70  1  0  0  0
 26 31  1  0  0  0
 26 27  2  0  0  0
 27 28  1  0  0  0
 27 71  1  0  0  0
 28 29  2  0  0  0
 28 72  1  0  0  0
 29 30  1  0  0  0
 29 73  1  0  0  0
 30 31  2  0  0  0
 30 32  1  0  0  0
 31 74  1  0  0  0
 32 33  1  0  0  0
 32 34  1  0  0  0
 32 75  1  0  0  0
 33 76  1  0  0  0
 33 77  1  0  0  0
 33 78  1  0  0  0
 34 79  1  0  0  0
 34 80  1  0  0  0
 34 81  1  0  0  0
 35 82  1  0  0  0
 36 37  1  0  0  0
 36 83  1  0  0  0
 36 84  1  0  0  0
 37 38  1  0  0  0
 38 85  1  0  0  0
 38 86  1  0  0  0
 38 87  1  0  0  0
M  END
> <s_m_source_file>
BACE_9.smi

> <i_m_source_file_index>
1

> <i_lp_mmshare_version>
42013

> <i_f3d_flags>
0

> <s_epik_input>
W05IXTFbQ0gyXVtDSDJdW0NIMl1bQ0gyXVtDSDJdW0NIMl1bQ0gyXVtDQEBIXShbQ0gzXSlbQ0gyXVtDQEhdKFtOSF1DKD1PKWMoW2NIXTIpW2NIXWMoW2NIXWMxMilbQ0gyXU9bQ0gzXSlbQ0BIXShbT0hdKVtDSDJdW05IXVtDSDJdYzNbY0hdW2NIXVtjSF1jKFtjSF0zKVtDSF0oW0NIM10pW0NIM10=

> <s_epik_cmdline>
J2VwaWtfcHl0aG9uJywgJy1waCcsICc3LjAnLCAnLXRuJywgJzgnLCAnLW1hJywgJzIwMCcsICctaW1hZScsICc8aW5maWxlLm1hZT4nLCAnLW9tYWUnLCAnPG91dGZpbGUubWFlPic=

> <r_epik_Ionization_Penalty>
  2.1300

> <r_epik_Ionization_Penalty_Charging>
  0.0000

> <r_epik_Ionization_Penalty_Neutral>
  2.1300

> <r_epik_State_Penalty>
  2.2676

> <r_epik_Charging_Adjusted_Penalty>
2.26762

> <i_epik_Tot_Q>
0

> <i_epik_Tot_abs_Q>
0

> <s_lp_Force_Field>
OPLS_2005

> <r_lp_Energy>
47.2954

> <b_lp_Chiralities_Consistent>
1

> <s_lp_Variant>
BACE_9.smi:1-2

> <chiral flag>
1

> <version>
0

> <r_i_glide_lipo>
-0.947222

> <r_i_glide_hbond>
-0.319819

> <r_i_glide_metal>
-0

> <r_i_glide_rewards>
0

> <r_i_glide_erotb>
0.44997

> <r_i_glide_esite>
-0.00440583

> <chiral flag>
1

> <s_i_glide_gridfile>
second_dock_grid_2

> <i_i_glide_lignum>
19

> <i_i_glide_rotatable_bonds>
9

> <r_i_docking_score>
-0.928837

> <r_i_glide_ligand_efficiency>
-0.0244431

> <r_i_glide_ligand_efficiency_sa>
-0.082177

> <r_i_glide_ligand_efficiency_ln>
-0.200285

> <r_glide_XP_GScore>
-3.19644

> <r_i_glide_gscore>
-3.19644

> <r_i_glide_evdw>
-36.7251

> <r_i_glide_ecoul>
-9.21334

> <r_i_glide_energy>
-45.9385

> <r_i_glide_einternal>
11.0357

> <r_i_glide_emodel>
-58.3751

> <r_glide_XP_HBond>
-1.62339

> <i_i_glide_confnum>
1

> <i_i_glide_posenum>
3

> <r_i_glide_eff_state_penalty>
2.2676

> <i_glide_XP_PoseRank>
4

$$$$
BACE_9.smi:1
                    3D
 Structure written by MMmdl.
 87 89  0  0  1  0            999 V2000
   21.0688   46.1457   -7.3396 C   0  0  0  0  0  0
   20.7694   44.7996   -8.0164 C   0  0  2  0  0  0
   22.0933   44.1274   -8.4524 C   0  0  0  0  0  0
   21.9066   42.7144   -9.0197 C   0  0  0  0  0  0
   23.2170   41.9670   -9.3042 C   0  0  0  0  0  0
   22.9452   40.5420   -9.8056 C   0  0  0  0  0  0
   22.5902   39.5622   -8.6678 C   0  0  0  0  0  0
   21.9706   38.2333   -9.1399 C   0  0  0  0  0  0
   20.4493   38.2861   -9.3156 C   0  0  0  0  0  0
   20.0823   38.9484  -10.5503 N   0  0  0  0  0  0
   18.8481   39.5984  -10.5286 C   0  0  0  0  0  0
   17.6816   38.9665  -10.0409 C   0  0  0  0  0  0
   16.4492   39.6479  -10.0729 C   0  0  0  0  0  0
   16.3894   40.9609  -10.5793 C   0  0  0  0  0  0
   17.5630   41.6195  -10.9942 C   0  0  0  0  0  0
   18.7849   40.9224  -10.9977 C   0  0  0  0  0  0
   17.5066   43.0456  -11.4388 C   0  0  0  0  0  0
   16.8610   43.3503  -12.4400 O   0  0  0  0  0  0
   18.1879   43.9619  -10.7280 N   0  0  0  0  0  0
   18.7302   43.8530   -9.3628 C   0  0  1  0  0  0
   19.7713   44.9873   -9.1891 C   0  0  0  0  0  0
   17.6160   43.9188   -8.2659 C   0  0  1  0  0  0
   16.4637   44.9113   -8.5814 C   0  0  0  0  0  0
   15.1347   44.5794   -8.0400 N   0  0  0  0  0  0
   14.3725   43.5141   -8.7330 C   0  0  0  0  0  0
   13.8630   43.7694  -10.1560 C   0  0  0  0  0  0
   13.0733   42.7792  -10.7752 C   0  0  0  0  0  0
   12.5760   42.9736  -12.0801 C   0  0  0  0  0  0
   12.8602   44.1616  -12.7827 C   0  0  0  0  0  0
   13.6339   45.1763  -12.1776 C   0  0  0  0  0  0
   14.1363   44.9498  -10.8799 C   0  0  0  0  0  0
   13.8991   46.5366  -12.8357 C   0  0  0  0  0  0
   13.1296   46.8063  -14.1403 C   0  0  0  0  0  0
   15.4018   46.8349  -12.9964 C   0  0  0  0  0  0
   17.1962   42.6024   -7.9753 O   0  0  0  0  0  0
   15.1774   38.9764   -9.5912 C   0  0  0  0  0  0
   14.5426   39.7009   -8.5503 O   0  0  0  0  0  0
   15.1597   39.5372   -7.2784 C   0  0  0  0  0  0
   20.3133   44.1645   -7.2564 H   0  0  0  0  0  0
   19.2508   42.9051   -9.2608 H   0  0  0  0  0  0
   18.0613   44.2456   -7.3272 H   0  0  0  0  0  0
   21.5319   46.8436   -8.0360 H   0  0  0  0  0  0
   21.7452   46.0187   -6.4935 H   0  0  0  0  0  0
   20.1575   46.6081   -6.9612 H   0  0  0  0  0  0
   22.6059   44.7491   -9.1864 H   0  0  0  0  0  0
   22.7581   44.0675   -7.5888 H   0  0  0  0  0  0
   21.2985   42.1369   -8.3243 H   0  0  0  0  0  0
   21.3491   42.7701   -9.9530 H   0  0  0  0  0  0
   23.7785   42.5119  -10.0650 H   0  0  0  0  0  0
   23.8501   41.9377   -8.4164 H   0  0  0  0  0  0
   22.1580   40.5783  -10.5554 H   0  0  0  0  0  0
   23.8226   40.1694  -10.3341 H   0  0  0  0  0  0
   23.5065   39.3499   -8.1124 H   0  0  0  0  0  0
   21.9188   40.0253   -7.9452 H   0  0  0  0  0  0
   22.4600   37.8680  -10.0402 H   0  0  0  0  0  0
   22.1618   37.4830   -8.3793 H   0  0  0  0  0  0
   20.0414   37.2805   -9.3414 H   0  0  0  0  0  0
   19.9918   38.7825   -8.4578 H   0  0  0  0  0  0
   20.8338   39.4667  -10.9809 H   0  0  0  0  0  0
   17.7232   37.9524   -9.6720 H   0  0  0  0  0  0
   15.4429   41.4740  -10.6031 H   0  0  0  0  0  0
   19.6826   41.4127  -11.3483 H   0  0  0  0  0  0
   18.1819   44.8923  -11.1163 H   0  0  0  0  0  0
   19.2259   45.9240   -9.0634 H   0  0  0  0  0  0
   20.3411   45.1190  -10.1109 H   0  0  0  0  0  0
   16.7623   45.8848   -8.1917 H   0  0  0  0  0  0
   16.3955   45.0755   -9.6476 H   0  0  0  0  0  0
   15.2599   44.2690   -7.0717 H   0  0  0  0  0  0
   14.9220   42.5758   -8.7398 H   0  0  0  0  0  0
   13.4827   43.3029   -8.1385 H   0  0  0  0  0  0
   12.8492   41.8635  -10.2454 H   0  0  0  0  0  0
   11.9715   42.2092  -12.5461 H   0  0  0  0  0  0
   12.4627   44.2795  -13.7806 H   0  0  0  0  0  0
   14.6951   45.7494  -10.4254 H   0  0  0  0  0  0
   13.5159   47.2663  -12.1255 H   0  0  0  0  0  0
   12.0603   46.6876  -13.9945 H   0  0  0  0  0  0
   13.4175   46.1497  -14.9573 H   0  0  0  0  0  0
   13.2911   47.8286  -14.4814 H   0  0  0  0  0  0
   15.9212   46.8196  -12.0391 H   0  0  0  0  0  0
   15.5593   47.8227  -13.4290 H   0  0  0  0  0  0
   15.8979   46.1143  -13.6399 H   0  0  0  0  0  0
   16.7228   42.5910   -7.1544 H   0  0  0  0  0  0
   14.4890   38.9494  -10.4378 H   0  0  0  0  0  0
   15.3568   37.9407   -9.2981 H   0  0  0  0  0  0
   14.6287   40.1277   -6.5312 H   0  0  0  0  0  0
   16.1989   39.8715   -7.2912 H   0  0  0  0  0  0
   15.1313   38.4938   -6.9578 H   0  0  0  0  0  0
  1  2  1  0  0  0
  1 42  1  0  0  0
  1 43  1  0  0  0
  1 44  1  0  0  0
  2 39  1  0  0  0
  2 21  1  0  0  0
  2  3  1  0  0  0
  3  4  1  0  0  0
  3 45  1  0  0  0
  3 46  1  0  0  0
  4  5  1  0  0  0
  4 47  1  0  0  0
  4 48  1  0  0  0
  5  6  1  0  0  0
  5 49  1  0  0  0
  5 50  1  0  0  0
  6  7  1  0  0  0
  6 51  1  0  0  0
  6 52  1  0  0  0
  7  8  1  0  0  0
  7 53  1  0  0  0
  7 54  1  0  0  0
  8  9  1  0  0  0
  8 55  1  0  0  0
  8 56  1  0  0  0
  9 10  1  0  0  0
  9 57  1  0  0  0
  9 58  1  0  0  0
 10 11  1  0  0  0
 10 59  1  0  0  0
 11 16  1  0  0  0
 11 12  2  0  0  0
 12 13  1  0  0  0
 12 60  1  0  0  0
 13 14  2  0  0  0
 13 36  1  0  0  0
 14 15  1  0  0  0
 14 61  1  0  0  0
 15 16  2  0  0  0
 15 17  1  0  0  0
 16 62  1  0  0  0
 17 18  2  0  0  0
 17 19  1  0  0  0
 19 20  1  0  0  0
 19 63  1  0  0  0
 20 40  1  0  0  0
 20 21  1  0  0  0
 20 22  1  0  0  0
 21 64  1  0  0  0
 21 65  1  0  0  0
 22 41  1  0  0  0
 22 23  1  0  0  0
 22 35  1  0  0  0
 23 24  1  0  0  0
 23 66  1  0  0  0
 23 67  1  0  0  0
 24 25  1  0  0  0
 24 68  1  0  0  0
 25 26  1  0  0  0
 25 69  1  0  0  0
 25 70  1  0  0  0
 26 31  1  0  0  0
 26 27  2  0  0  0
 27 28  1  0  0  0
 27 71  1  0  0  0
 28 29  2  0  0  0
 28 72  1  0  0  0
 29 30  1  0  0  0
 29 73  1  0  0  0
 30 31  2  0  0  0
 30 32  1  0  0  0
 31 74  1  0  0  0
 32 33  1  0  0  0
 32 34  1  0  0  0
 32 75  1  0  0  0
 33 76  1  0  0  0
 33 77  1  0  0  0
 33 78  1  0  0  0
 34 79  1  0  0  0
 34 80  1  0  0  0
 34 81  1  0  0  0
 35 82  1  0  0  0
 36 37  1  0  0  0
 36 83  1  0  0  0
 36 84  1  0  0  0
 37 38  1  0  0  0
 38 85  1  0  0  0
 38 86  1  0  0  0
 38 87  1  0  0  0
M  END
> <s_m_source_file>
BACE_9.smi

> <i_m_source_file_index>
1

> <i_lp_mmshare_version>
42013

> <i_f3d_flags>
0

> <s_epik_input>
W05IXTFbQ0gyXVtDSDJdW0NIMl1bQ0gyXVtDSDJdW0NIMl1bQ0gyXVtDQEBIXShbQ0gzXSlbQ0gyXVtDQEhdKFtOSF1DKD1PKWMoW2NIXTIpW2NIXWMoW2NIXWMxMilbQ0gyXU9bQ0gzXSlbQ0BIXShbT0hdKVtDSDJdW05IXVtDSDJdYzNbY0hdW2NIXVtjSF1jKFtjSF0zKVtDSF0oW0NIM10pW0NIM10=

> <s_epik_cmdline>
J2VwaWtfcHl0aG9uJywgJy1waCcsICc3LjAnLCAnLXRuJywgJzgnLCAnLW1hJywgJzIwMCcsICctaW1hZScsICc8aW5maWxlLm1hZT4nLCAnLW9tYWUnLCAnPG91dGZpbGUubWFlPic=

> <r_epik_Ionization_Penalty>
  2.1300

> <r_epik_Ionization_Penalty_Charging>
  0.0000

> <r_epik_Ionization_Penalty_Neutral>
  2.1300

> <r_epik_State_Penalty>
  2.2676

> <r_epik_Charging_Adjusted_Penalty>
2.26762

> <i_epik_Tot_Q>
0

> <i_epik_Tot_abs_Q>
0

> <s_lp_Force_Field>
OPLS_2005

> <r_lp_Energy>
47.2954

> <b_lp_Chiralities_Consistent>
1

> <s_lp_Variant>
BACE_9.smi:1-2

> <chiral flag>
1

> <version>
0

> <r_i_glide_lipo>
-0.947222

> <r_i_glide_hbond>
-0.319819

> <r_i_glide_metal>
-0

> <r_i_glide_rewards>
0

> <r_i_glide_erotb>
0.44997

> <r_i_glide_esite>
-0.00440583

> <chiral flag>
1

> <s_i_glide_gridfile>
second_dock_grid_2

> <i_i_glide_lignum>
19

> <i_i_glide_rotatable_bonds>
9

> <r_i_docking_score>
-0.773477

> <r_i_glide_ligand_efficiency>
-0.0203546

> <r_i_glide_ligand_efficiency_sa>
-0.0684318

> <r_i_glide_ligand_efficiency_ln>
-0.166784

> <r_glide_XP_GScore>
-3.04108

> <r_i_glide_gscore>
-3.04108

> <r_i_glide_evdw>
-34.8025

> <r_i_glide_ecoul>
-11.63

> <r_i_glide_energy>
-46.4325

> <r_i_glide_einternal>
9.63722

> <r_i_glide_emodel>
-58.4904

> <r_glide_XP_HBond>
-1.62339

> <i_i_glide_confnum>
1

> <i_i_glide_posenum>
29

> <r_i_glide_eff_state_penalty>
2.2676

> <i_glide_XP_PoseRank>
5

$$$$
BACE_9.smi:1
                    3D
 Structure written by MMmdl.
 87 89  0  0  1  0            999 V2000
   20.7493   46.0781   -7.2247 C   0  0  0  0  0  0
   20.5133   44.7823   -8.0161 C   0  0  2  0  0  0
   21.8467   44.1798   -8.4949 C   0  0  0  0  0  0
   21.6924   42.7488   -9.0304 C   0  0  0  0  0  0
   23.0362   42.0406   -9.2668 C   0  0  0  0  0  0
   22.8596   40.5958   -9.7552 C   0  0  0  0  0  0
   22.4269   39.6220   -8.6371 C   0  0  0  0  0  0
   21.8597   38.2824   -9.1427 C   0  0  0  0  0  0
   20.3386   38.3000   -9.3785 C   0  0  0  0  0  0
   19.9669   39.1445  -10.5009 N   0  0  0  0  0  0
   18.6891   39.7120  -10.4728 C   0  0  0  0  0  0
   17.5496   38.9636  -10.1030 C   0  0  0  0  0  0
   16.2743   39.5612  -10.1123 C   0  0  0  0  0  0
   16.1411   40.9209  -10.4667 C   0  0  0  0  0  0
   17.2775   41.6812  -10.8166 C   0  0  0  0  0  0
   18.5450   41.0638  -10.8383 C   0  0  0  0  0  0
   17.1190   43.1081  -11.2479 C   0  0  0  0  0  0
   16.5190   43.3607  -12.2908 O   0  0  0  0  0  0
   17.6509   44.0908  -10.4983 N   0  0  0  0  0  0
   18.2870   44.0240   -9.1766 C   0  0  1  0  0  0
   19.4940   45.0004   -9.1620 C   0  0  0  0  0  0
   17.1975   44.2621   -8.0827 C   0  0  1  0  0  0
   16.7104   45.7196   -7.9350 C   0  0  0  0  0  0
   17.7795   46.5866   -7.4332 N   0  0  0  0  0  0
   17.4571   48.0155   -7.4392 C   0  0  0  0  0  0
   18.6503   48.9524   -7.5220 C   0  0  0  0  0  0
   18.6073   50.1298   -8.2989 C   0  0  0  0  0  0
   19.7244   50.9820   -8.3407 C   0  0  0  0  0  0
   20.8790   50.6784   -7.5945 C   0  0  0  0  0  0
   20.9324   49.5069   -6.8089 C   0  0  0  0  0  0
   19.8084   48.6540   -6.7739 C   0  0  0  0  0  0
   22.1915   49.1740   -6.0147 C   0  0  0  0  0  0
   22.1999   49.8682   -4.6414 C   0  0  0  0  0  0
   23.4667   49.4863   -6.8141 C   0  0  0  0  0  0
   16.0522   43.4728   -8.3399 O   0  0  0  0  0  0
   15.0583   38.7403   -9.7279 C   0  0  0  0  0  0
   15.1645   38.2230   -8.4079 O   0  0  0  0  0  0
   15.0394   39.2345   -7.4226 C   0  0  0  0  0  0
   20.1188   44.0545   -7.3189 H   0  0  0  0  0  0
   18.6935   43.0225   -9.0423 H   0  0  0  0  0  0
   17.5998   43.9539   -7.1168 H   0  0  0  0  0  0
   21.1933   46.8531   -7.8462 H   0  0  0  0  0  0
   21.4199   45.9083   -6.3809 H   0  0  0  0  0  0
   19.8185   46.4715   -6.8171 H   0  0  0  0  0  0
   22.3136   44.8135   -9.2504 H   0  0  0  0  0  0
   22.5403   44.1536   -7.6529 H   0  0  0  0  0  0
   21.0969   42.1722   -8.3229 H   0  0  0  0  0  0
   21.1251   42.7642   -9.9602 H   0  0  0  0  0  0
   23.6049   42.5989  -10.0124 H   0  0  0  0  0  0
   23.6387   42.0484   -8.3564 H   0  0  0  0  0  0
   22.1542   40.5905  -10.5848 H   0  0  0  0  0  0
   23.8026   40.2367  -10.1764 H   0  0  0  0  0  0
   23.2996   39.4249   -8.0149 H   0  0  0  0  0  0
   21.6993   40.0818   -7.9695 H   0  0  0  0  0  0
   22.3889   37.9478  -10.0362 H   0  0  0  0  0  0
   22.0585   37.5276   -8.3806 H   0  0  0  0  0  0
   19.9864   37.2859   -9.5725 H   0  0  0  0  0  0
   19.8319   38.6478   -8.4782 H   0  0  0  0  0  0
   20.7050   39.7428  -10.8363 H   0  0  0  0  0  0
   17.6446   37.9233   -9.8282 H   0  0  0  0  0  0
   15.1631   41.3802  -10.4756 H   0  0  0  0  0  0
   19.4105   41.6368  -11.1371 H   0  0  0  0  0  0
   17.4980   45.0252  -10.8431 H   0  0  0  0  0  0
   19.1267   46.0253   -9.1555 H   0  0  0  0  0  0
   20.0230   44.9145  -10.1112 H   0  0  0  0  0  0
   16.3005   46.0887   -8.8692 H   0  0  0  0  0  0
   15.8696   45.7474   -7.2420 H   0  0  0  0  0  0
   17.9902   46.2898   -6.4845 H   0  0  0  0  0  0
   16.8199   48.2341   -8.2955 H   0  0  0  0  0  0
   16.8621   48.2671   -6.5590 H   0  0  0  0  0  0
   17.7258   50.3903   -8.8672 H   0  0  0  0  0  0
   19.6870   51.8747   -8.9430 H   0  0  0  0  0  0
   21.7244   51.3549   -7.6272 H   0  0  0  0  0  0
   19.8374   47.7588   -6.1682 H   0  0  0  0  0  0
   22.1885   48.0977   -5.8314 H   0  0  0  0  0  0
   21.3005   49.6316   -4.0711 H   0  0  0  0  0  0
   22.2512   50.9525   -4.7376 H   0  0  0  0  0  0
   23.0575   49.5488   -4.0504 H   0  0  0  0  0  0
   23.4802   48.9349   -7.7523 H   0  0  0  0  0  0
   24.3595   49.2002   -6.2590 H   0  0  0  0  0  0
   23.5444   50.5491   -7.0482 H   0  0  0  0  0  0
   15.7854   43.0521   -7.5353 H   0  0  0  0  0  0
   14.1755   39.3811   -9.8042 H   0  0  0  0  0  0
   14.9269   37.9206  -10.4344 H   0  0  0  0  0  0
   15.1217   38.7931   -6.4293 H   0  0  0  0  0  0
   14.0748   39.7379   -7.4935 H   0  0  0  0  0  0
   15.8322   39.9787   -7.5280 H   0  0  0  0  0  0
  1  2  1  0  0  0
  1 42  1  0  0  0
  1 43  1  0  0  0
  1 44  1  0  0  0
  2 39  1  0  0  0
  2 21  1  0  0  0
  2  3  1  0  0  0
  3  4  1  0  0  0
  3 45  1  0  0  0
  3 46  1  0  0  0
  4  5  1  0  0  0
  4 47  1  0  0  0
  4 48  1  0  0  0
  5  6  1  0  0  0
  5 49  1  0  0  0
  5 50  1  0  0  0
  6  7  1  0  0  0
  6 51  1  0  0  0
  6 52  1  0  0  0
  7  8  1  0  0  0
  7 53  1  0  0  0
  7 54  1  0  0  0
  8  9  1  0  0  0
  8 55  1  0  0  0
  8 56  1  0  0  0
  9 10  1  0  0  0
  9 57  1  0  0  0
  9 58  1  0  0  0
 10 11  1  0  0  0
 10 59  1  0  0  0
 11 16  1  0  0  0
 11 12  2  0  0  0
 12 13  1  0  0  0
 12 60  1  0  0  0
 13 14  2  0  0  0
 13 36  1  0  0  0
 14 15  1  0  0  0
 14 61  1  0  0  0
 15 16  2  0  0  0
 15 17  1  0  0  0
 16 62  1  0  0  0
 17 18  2  0  0  0
 17 19  1  0  0  0
 19 20  1  0  0  0
 19 63  1  0  0  0
 20 40  1  0  0  0
 20 21  1  0  0  0
 20 22  1  0  0  0
 21 64  1  0  0  0
 21 65  1  0  0  0
 22 41  1  0  0  0
 22 23  1  0  0  0
 22 35  1  0  0  0
 23 24  1  0  0  0
 23 66  1  0  0  0
 23 67  1  0  0  0
 24 25  1  0  0  0
 24 68  1  0  0  0
 25 26  1  0  0  0
 25 69  1  0  0  0
 25 70  1  0  0  0
 26 31  1  0  0  0
 26 27  2  0  0  0
 27 28  1  0  0  0
 27 71  1  0  0  0
 28 29  2  0  0  0
 28 72  1  0  0  0
 29 30  1  0  0  0
 29 73  1  0  0  0
 30 31  2  0  0  0
 30 32  1  0  0  0
 31 74  1  0  0  0
 32 33  1  0  0  0
 32 34  1  0  0  0
 32 75  1  0  0  0
 33 76  1  0  0  0
 33 77  1  0  0  0
 33 78  1  0  0  0
 34 79  1  0  0  0
 34 80  1  0  0  0
 34 81  1  0  0  0
 35 82  1  0  0  0
 36 37  1  0  0  0
 36 83  1  0  0  0
 36 84  1  0  0  0
 37 38  1  0  0  0
 38 85  1  0  0  0
 38 86  1  0  0  0
 38 87  1  0  0  0
M  END
> <s_m_source_file>
BACE_9.smi

> <i_m_source_file_index>
1

> <i_lp_mmshare_version>
42013

> <i_f3d_flags>
0

> <s_epik_input>
W05IXTFbQ0gyXVtDSDJdW0NIMl1bQ0gyXVtDSDJdW0NIMl1bQ0gyXVtDQEBIXShbQ0gzXSlbQ0gyXVtDQEhdKFtOSF1DKD1PKWMoW2NIXTIpW2NIXWMoW2NIXWMxMilbQ0gyXU9bQ0gzXSlbQ0BIXShbT0hdKVtDSDJdW05IXVtDSDJdYzNbY0hdW2NIXVtjSF1jKFtjSF0zKVtDSF0oW0NIM10pW0NIM10=

> <s_epik_cmdline>
J2VwaWtfcHl0aG9uJywgJy1waCcsICc3LjAnLCAnLXRuJywgJzgnLCAnLW1hJywgJzIwMCcsICctaW1hZScsICc8aW5maWxlLm1hZT4nLCAnLW9tYWUnLCAnPG91dGZpbGUubWFlPic=

> <r_epik_Ionization_Penalty>
  2.1300

> <r_epik_Ionization_Penalty_Charging>
  0.0000

> <r_epik_Ionization_Penalty_Neutral>
  2.1300

> <r_epik_State_Penalty>
  2.2676

> <r_epik_Charging_Adjusted_Penalty>
2.26762

> <i_epik_Tot_Q>
0

> <i_epik_Tot_abs_Q>
0

> <s_lp_Force_Field>
OPLS_2005

> <r_lp_Energy>
47.2954

> <b_lp_Chiralities_Consistent>
1

> <s_lp_Variant>
BACE_9.smi:1-2

> <chiral flag>
1

> <version>
0

> <r_i_glide_lipo>
-0.947222

> <r_i_glide_hbond>
-0.319819

> <r_i_glide_metal>
-0

> <r_i_glide_rewards>
0

> <r_i_glide_erotb>
0.44997

> <r_i_glide_esite>
-0.00440583

> <chiral flag>
1

> <s_i_glide_gridfile>
second_dock_grid_2

> <i_i_glide_lignum>
19

> <i_i_glide_rotatable_bonds>
9

> <r_i_docking_score>
-0.637112

> <r_i_glide_ligand_efficiency>
-0.0167661

> <r_i_glide_ligand_efficiency_sa>
-0.0563673

> <r_i_glide_ligand_efficiency_ln>
-0.13738

> <r_glide_XP_GScore>
-2.90471

> <r_i_glide_gscore>
-2.90471

> <r_i_glide_evdw>
-34.8808

> <r_i_glide_ecoul>
-8.24871

> <r_i_glide_energy>
-43.1295

> <r_i_glide_einternal>
2.62048

> <r_i_glide_emodel>
-60.4862

> <r_glide_XP_HBond>
-1.62339

> <i_i_glide_confnum>
1

> <i_i_glide_posenum>
32

> <r_i_glide_eff_state_penalty>
2.2676

> <i_glide_XP_PoseRank>
6

$$$$
BACE_9.smi:1
                    3D
 Structure written by MMmdl.
 87 89  0  0  1  0            999 V2000
   18.3547   46.6004   -6.8166 C   0  0  0  0  0  0
   18.8401   45.2424   -7.3470 C   0  0  2  0  0  0
   20.3673   45.1102   -7.2038 C   0  0  0  0  0  0
   20.8634   43.6766   -7.4432 C   0  0  0  0  0  0
   22.3356   43.4702   -7.0520 C   0  0  0  0  0  0
   22.7978   42.0199   -7.2530 C   0  0  0  0  0  0
   22.2685   41.0548   -6.1695 C   0  0  0  0  0  0
   22.3661   39.5634   -6.5415 C   0  0  0  0  0  0
   21.1274   39.0238   -7.2791 C   0  0  0  0  0  0
   20.9952   39.5845   -8.6129 N   0  0  0  0  0  0
   19.7035   39.6655   -9.1427 C   0  0  0  0  0  0
   18.7851   38.5978   -9.0331 C   0  0  0  0  0  0
   17.5015   38.7046   -9.6026 C   0  0  0  0  0  0
   17.1246   39.8947  -10.2610 C   0  0  0  0  0  0
   18.0290   40.9741  -10.3559 C   0  0  0  0  0  0
   19.3238   40.8435   -9.8133 C   0  0  0  0  0  0
   17.6405   42.2115  -11.1077 C   0  0  0  0  0  0
   17.4520   42.1469  -12.3209 O   0  0  0  0  0  0
   17.5214   43.3784  -10.4485 N   0  0  0  0  0  0
   17.5773   43.6525   -9.0070 C   0  0  1  0  0  0
   18.3368   44.9891   -8.7899 C   0  0  0  0  0  0
   16.1287   43.5833   -8.4265 C   0  0  1  0  0  0
   15.2354   44.8078   -8.7193 C   0  0  0  0  0  0
   13.8427   44.5484   -8.3457 N   0  0  0  0  0  0
   13.1788   43.5193   -9.1494 C   0  0  0  0  0  0
   13.0678   43.8229  -10.6340 C   0  0  0  0  0  0
   12.2799   43.0243  -11.4902 C   0  0  0  0  0  0
   12.1874   43.3431  -12.8561 C   0  0  0  0  0  0
   12.8598   44.4677  -13.3712 C   0  0  0  0  0  0
   13.6463   45.2777  -12.5242 C   0  0  0  0  0  0
   13.7374   44.9502  -11.1543 C   0  0  0  0  0  0
   14.3859   46.4859  -13.0899 C   0  0  0  0  0  0
   15.5286   46.9400  -12.1646 C   0  0  0  0  0  0
   13.4245   47.6417  -13.4105 C   0  0  0  0  0  0
   15.4452   42.4502   -8.9261 O   0  0  0  0  0  0
   16.5320   37.5436   -9.4903 C   0  0  0  0  0  0
   15.1823   37.9645   -9.6404 O   0  0  0  0  0  0
   14.7270   38.7163   -8.5281 C   0  0  0  0  0  0
   18.4368   44.4842   -6.6882 H   0  0  0  0  0  0
   18.1735   42.8738   -8.5331 H   0  0  0  0  0  0
   16.1920   43.4784   -7.3426 H   0  0  0  0  0  0
   18.7576   47.4264   -7.3991 H   0  0  0  0  0  0
   18.6584   46.7501   -5.7793 H   0  0  0  0  0  0
   17.2679   46.6736   -6.8436 H   0  0  0  0  0  0
   20.8843   45.8012   -7.8713 H   0  0  0  0  0  0
   20.6495   45.4016   -6.1908 H   0  0  0  0  0  0
   20.2364   42.9894   -6.8755 H   0  0  0  0  0  0
   20.7289   43.4122   -8.4913 H   0  0  0  0  0  0
   22.9597   44.1276   -7.6598 H   0  0  0  0  0  0
   22.5017   43.7670   -6.0146 H   0  0  0  0  0  0
   22.5097   41.6960   -8.2519 H   0  0  0  0  0  0
   23.8906   41.9818   -7.2415 H   0  0  0  0  0  0
   22.8433   41.2314   -5.2607 H   0  0  0  0  0  0
   21.2374   41.2835   -5.9033 H   0  0  0  0  0  0
   23.2761   39.3623   -7.1087 H   0  0  0  0  0  0
   22.4625   38.9947   -5.6155 H   0  0  0  0  0  0
   21.1945   37.9381   -7.3615 H   0  0  0  0  0  0
   20.2304   39.2458   -6.7007 H   0  0  0  0  0  0
   21.5942   40.3739   -8.7958 H   0  0  0  0  0  0
   19.0660   37.6850   -8.5283 H   0  0  0  0  0  0
   16.1406   39.9774  -10.6996 H   0  0  0  0  0  0
   20.0271   41.6572   -9.9139 H   0  0  0  0  0  0
   17.2486   44.1661  -11.0146 H   0  0  0  0  0  0
   17.7129   45.8154   -9.1265 H   0  0  0  0  0  0
   19.1953   45.0150   -9.4611 H   0  0  0  0  0  0
   15.6221   45.6963   -8.2315 H   0  0  0  0  0  0
   15.2851   45.0409   -9.7828 H   0  0  0  0  0  0
   13.8378   44.2715   -7.3680 H   0  0  0  0  0  0
   13.7284   42.5833   -9.0555 H   0  0  0  0  0  0
   12.1839   43.3168   -8.7479 H   0  0  0  0  0  0
   11.7428   42.1657  -11.1133 H   0  0  0  0  0  0
   11.5907   42.7236  -13.5052 H   0  0  0  0  0  0
   12.7645   44.7063  -14.4235 H   0  0  0  0  0  0
   14.3309   45.5700  -10.4964 H   0  0  0  0  0  0
   14.8391   46.1800  -14.0349 H   0  0  0  0  0  0
   16.2170   46.1209  -11.9520 H   0  0  0  0  0  0
   15.1528   47.3084  -11.2103 H   0  0  0  0  0  0
   16.1042   47.7427  -12.6241 H   0  0  0  0  0  0
   12.6621   47.3255  -14.1199 H   0  0  0  0  0  0
   13.9540   48.4816  -13.8591 H   0  0  0  0  0  0
   12.9193   48.0048  -12.5142 H   0  0  0  0  0  0
   15.0239   42.0060   -8.2045 H   0  0  0  0  0  0
   16.7806   36.8146  -10.2665 H   0  0  0  0  0  0
   16.6576   37.0486   -8.5272 H   0  0  0  0  0  0
   13.6928   39.0212   -8.6883 H   0  0  0  0  0  0
   15.3292   39.6140   -8.3849 H   0  0  0  0  0  0
   14.7650   38.1188   -7.6144 H   0  0  0  0  0  0
  1  2  1  0  0  0
  1 42  1  0  0  0
  1 43  1  0  0  0
  1 44  1  0  0  0
  2 39  1  0  0  0
  2 21  1  0  0  0
  2  3  1  0  0  0
  3  4  1  0  0  0
  3 45  1  0  0  0
  3 46  1  0  0  0
  4  5  1  0  0  0
  4 47  1  0  0  0
  4 48  1  0  0  0
  5  6  1  0  0  0
  5 49  1  0  0  0
  5 50  1  0  0  0
  6  7  1  0  0  0
  6 51  1  0  0  0
  6 52  1  0  0  0
  7  8  1  0  0  0
  7 53  1  0  0  0
  7 54  1  0  0  0
  8  9  1  0  0  0
  8 55  1  0  0  0
  8 56  1  0  0  0
  9 10  1  0  0  0
  9 57  1  0  0  0
  9 58  1  0  0  0
 10 11  1  0  0  0
 10 59  1  0  0  0
 11 16  1  0  0  0
 11 12  2  0  0  0
 12 13  1  0  0  0
 12 60  1  0  0  0
 13 14  2  0  0  0
 13 36  1  0  0  0
 14 15  1  0  0  0
 14 61  1  0  0  0
 15 16  2  0  0  0
 15 17  1  0  0  0
 16 62  1  0  0  0
 17 18  2  0  0  0
 17 19  1  0  0  0
 19 20  1  0  0  0
 19 63  1  0  0  0
 20 40  1  0  0  0
 20 21  1  0  0  0
 20 22  1  0  0  0
 21 64  1  0  0  0
 21 65  1  0  0  0
 22 41  1  0  0  0
 22 23  1  0  0  0
 22 35  1  0  0  0
 23 24  1  0  0  0
 23 66  1  0  0  0
 23 67  1  0  0  0
 24 25  1  0  0  0
 24 68  1  0  0  0
 25 26  1  0  0  0
 25 69  1  0  0  0
 25 70  1  0  0  0
 26 31  1  0  0  0
 26 27  2  0  0  0
 27 28  1  0  0  0
 27 71  1  0  0  0
 28 29  2  0  0  0
 28 72  1  0  0  0
 29 30  1  0  0  0
 29 73  1  0  0  0
 30 31  2  0  0  0
 30 32  1  0  0  0
 31 74  1  0  0  0
 32 33  1  0  0  0
 32 34  1  0  0  0
 32 75  1  0  0  0
 33 76  1  0  0  0
 33 77  1  0  0  0
 33 78  1  0  0  0
 34 79  1  0  0  0
 34 80  1  0  0  0
 34 81  1  0  0  0
 35 82  1  0  0  0
 36 37  1  0  0  0
 36 83  1  0  0  0
 36 84  1  0  0  0
 37 38  1  0  0  0
 38 85  1  0  0  0
 38 86  1  0  0  0
 38 87  1  0  0  0
M  END
> <s_m_source_file>
BACE_9.smi

> <i_m_source_file_index>
1

> <i_lp_mmshare_version>
42013

> <i_f3d_flags>
0

> <s_epik_input>
W05IXTFbQ0gyXVtDSDJdW0NIMl1bQ0gyXVtDSDJdW0NIMl1bQ0gyXVtDQEBIXShbQ0gzXSlbQ0gyXVtDQEhdKFtOSF1DKD1PKWMoW2NIXTIpW2NIXWMoW2NIXWMxMilbQ0gyXU9bQ0gzXSlbQ0BIXShbT0hdKVtDSDJdW05IXVtDSDJdYzNbY0hdW2NIXVtjSF1jKFtjSF0zKVtDSF0oW0NIM10pW0NIM10=

> <s_epik_cmdline>
J2VwaWtfcHl0aG9uJywgJy1waCcsICc3LjAnLCAnLXRuJywgJzgnLCAnLW1hJywgJzIwMCcsICctaW1hZScsICc8aW5maWxlLm1hZT4nLCAnLW9tYWUnLCAnPG91dGZpbGUubWFlPic=

> <r_epik_Ionization_Penalty>
  2.1300

> <r_epik_Ionization_Penalty_Charging>
  0.0000

> <r_epik_Ionization_Penalty_Neutral>
  2.1300

> <r_epik_State_Penalty>
  2.2676

> <r_epik_Charging_Adjusted_Penalty>
2.26762

> <i_epik_Tot_Q>
0

> <i_epik_Tot_abs_Q>
0

> <s_lp_Force_Field>
OPLS_2005

> <r_lp_Energy>
47.2954

> <b_lp_Chiralities_Consistent>
1

> <s_lp_Variant>
BACE_9.smi:1-2

> <chiral flag>
1

> <version>
0

> <r_i_glide_lipo>
-0.947222

> <r_i_glide_hbond>
-0.319819

> <r_i_glide_metal>
-0

> <r_i_glide_rewards>
0

> <r_i_glide_erotb>
0.44997

> <r_i_glide_esite>
-0.00440583

> <chiral flag>
1

> <s_i_glide_gridfile>
second_dock_grid_2

> <i_i_glide_lignum>
19

> <i_i_glide_rotatable_bonds>
9

> <r_i_docking_score>
-0.312207

> <r_i_glide_ligand_efficiency>
-0.00821597

> <r_i_glide_ligand_efficiency_sa>
-0.0276219

> <r_i_glide_ligand_efficiency_ln>
-0.067321

> <r_glide_XP_GScore>
-2.57981

> <r_i_glide_gscore>
-2.57981

> <r_i_glide_evdw>
-31.9174

> <r_i_glide_ecoul>
-6.43198

> <r_i_glide_energy>
-38.3494

> <r_i_glide_einternal>
3.08447

> <r_i_glide_emodel>
-57.8843

> <r_glide_XP_HBond>
-1.62339

> <i_i_glide_confnum>
1

> <i_i_glide_posenum>
28

> <r_i_glide_eff_state_penalty>
2.2676

> <i_glide_XP_PoseRank>
7

$$$$
BACE_9.smi:1
                    3D
 Structure written by MMmdl.
 87 89  0  0  1  0            999 V2000
   26.4903   42.4838  -11.7785 C   0  0  0  0  0  0
   25.6040   42.7613  -10.5543 C   0  0  2  0  0  0
   26.4553   43.4149   -9.4467 C   0  0  0  0  0  0
   25.6535   43.8298   -8.2026 C   0  0  0  0  0  0
   26.5024   44.5578   -7.1483 C   0  0  0  0  0  0
   25.6780   44.9916   -5.9258 C   0  0  0  0  0  0
   24.8057   46.2356   -6.1878 C   0  0  0  0  0  0
   23.6983   46.4710   -5.1419 C   0  0  0  0  0  0
   22.3780   45.7494   -5.4692 C   0  0  0  0  0  0
   22.4729   44.3154   -5.2516 N   0  0  0  0  0  0
   21.6699   43.4968   -6.0551 C   0  0  0  0  0  0
   20.3194   43.8122   -6.3205 C   0  0  0  0  0  0
   19.5323   42.9597   -7.1214 C   0  0  0  0  0  0
   20.0975   41.7869   -7.6631 C   0  0  0  0  0  0
   21.4573   41.4852   -7.4391 C   0  0  0  0  0  0
   22.2294   42.3308   -6.6150 C   0  0  0  0  0  0
   22.0666   40.2611   -8.0534 C   0  0  0  0  0  0
   21.7521   39.1455   -7.6501 O   0  0  0  0  0  0
   22.9276   40.4197   -9.0752 N   0  0  0  0  0  0
   23.3695   41.6504   -9.7455 C   0  0  1  0  0  0
   24.8692   41.4704  -10.0936 C   0  0  0  0  0  0
   22.5127   42.0090  -11.0095 C   0  0  1  0  0  0
   21.6641   40.9057  -11.6783 C   0  0  0  0  0  0
   20.4595   40.6108  -10.9126 N   0  0  0  0  0  0
   19.6803   39.4984  -11.4286 C   0  0  0  0  0  0
   18.6338   39.0997  -10.4169 C   0  0  0  0  0  0
   18.8181   37.9515   -9.6225 C   0  0  0  0  0  0
   17.8596   37.6054   -8.6518 C   0  0  0  0  0  0
   16.7286   38.4192   -8.4553 C   0  0  0  0  0  0
   16.5535   39.5887   -9.2272 C   0  0  0  0  0  0
   17.5026   39.9143  -10.2183 C   0  0  0  0  0  0
   15.3665   40.5098   -8.9999 C   0  0  0  0  0  0
   15.1496   40.8110   -7.5069 C   0  0  0  0  0  0
   14.1094   39.9493   -9.6827 C   0  0  0  0  0  0
   21.6792   43.1190  -10.7507 O   0  0  0  0  0  0
   18.0770   43.2982   -7.3783 C   0  0  0  0  0  0
   17.9306   44.6347   -7.8390 O   0  0  0  0  0  0
   16.5857   44.9676   -8.1372 C   0  0  0  0  0  0
   24.8675   43.5035  -10.8657 H   0  0  0  0  0  0
   23.3180   42.4842   -9.0464 H   0  0  0  0  0  0
   23.1933   42.3609  -11.7832 H   0  0  0  0  0  0
   27.2314   41.7111  -11.5678 H   0  0  0  0  0  0
   27.0221   43.3804  -12.0982 H   0  0  0  0  0  0
   25.8909   42.1500  -12.6224 H   0  0  0  0  0  0
   27.2737   42.7474   -9.1780 H   0  0  0  0  0  0
   26.9323   44.3079   -9.8550 H   0  0  0  0  0  0
   24.8243   44.4630   -8.5192 H   0  0  0  0  0  0
   25.2080   42.9501   -7.7387 H   0  0  0  0  0  0
   27.2956   43.8863   -6.8173 H   0  0  0  0  0  0
   26.9980   45.4240   -7.5880 H   0  0  0  0  0  0
   25.0764   44.1469   -5.5948 H   0  0  0  0  0  0
   26.3504   45.2104   -5.0952 H   0  0  0  0  0  0
   25.4634   47.1052   -6.2119 H   0  0  0  0  0  0
   24.3510   46.1922   -7.1776 H   0  0  0  0  0  0
   24.0505   46.2180   -4.1402 H   0  0  0  0  0  0
   23.4865   47.5399   -5.1210 H   0  0  0  0  0  0
   21.5790   46.1388   -4.8403 H   0  0  0  0  0  0
   22.0893   45.9590   -6.5005 H   0  0  0  0  0  0
   23.3987   43.9716   -5.0378 H   0  0  0  0  0  0
   19.8720   44.7002   -5.8991 H   0  0  0  0  0  0
   19.4895   41.1244   -8.2629 H   0  0  0  0  0  0
   23.2601   42.0855   -6.4197 H   0  0  0  0  0  0
   23.3526   39.5683   -9.4226 H   0  0  0  0  0  0
   24.9457   40.6984  -10.8588 H   0  0  0  0  0  0
   25.4008   41.0476   -9.2405 H   0  0  0  0  0  0
   21.3897   41.2205  -12.6862 H   0  0  0  0  0  0
   22.2698   40.0080  -11.7908 H   0  0  0  0  0  0
   20.7167   40.3994   -9.9526 H   0  0  0  0  0  0
   19.2053   39.7604  -12.3737 H   0  0  0  0  0  0
   20.3221   38.6397  -11.6243 H   0  0  0  0  0  0
   19.7060   37.3498   -9.7419 H   0  0  0  0  0  0
   17.9948   36.7281   -8.0372 H   0  0  0  0  0  0
   16.0115   38.1485   -7.6920 H   0  0  0  0  0  0
   17.3819   40.8074  -10.8146 H   0  0  0  0  0  0
   15.6011   41.4611   -9.4781 H   0  0  0  0  0  0
   16.0788   41.1012   -7.0159 H   0  0  0  0  0  0
   14.7495   39.9532   -6.9668 H   0  0  0  0  0  0
   14.4592   41.6394   -7.3704 H   0  0  0  0  0  0
   14.2962   39.7484  -10.7378 H   0  0  0  0  0  0
   13.2729   40.6482   -9.6401 H   0  0  0  0  0  0
   13.7860   39.0160   -9.2185 H   0  0  0  0  0  0
   20.8784   42.7772  -10.3780 H   0  0  0  0  0  0
   17.6728   42.6092   -8.1214 H   0  0  0  0  0  0
   17.5147   43.1520   -6.4537 H   0  0  0  0  0  0
   16.5428   45.9767   -8.5477 H   0  0  0  0  0  0
   15.9672   44.9492   -7.2401 H   0  0  0  0  0  0
   16.1579   44.2850   -8.8738 H   0  0  0  0  0  0
  1  2  1  0  0  0
  1 42  1  0  0  0
  1 43  1  0  0  0
  1 44  1  0  0  0
  2 39  1  0  0  0
  2 21  1  0  0  0
  2  3  1  0  0  0
  3  4  1  0  0  0
  3 45  1  0  0  0
  3 46  1  0  0  0
  4  5  1  0  0  0
  4 47  1  0  0  0
  4 48  1  0  0  0
  5  6  1  0  0  0
  5 49  1  0  0  0
  5 50  1  0  0  0
  6  7  1  0  0  0
  6 51  1  0  0  0
  6 52  1  0  0  0
  7  8  1  0  0  0
  7 53  1  0  0  0
  7 54  1  0  0  0
  8  9  1  0  0  0
  8 55  1  0  0  0
  8 56  1  0  0  0
  9 10  1  0  0  0
  9 57  1  0  0  0
  9 58  1  0  0  0
 10 11  1  0  0  0
 10 59  1  0  0  0
 11 16  1  0  0  0
 11 12  2  0  0  0
 12 13  1  0  0  0
 12 60  1  0  0  0
 13 14  2  0  0  0
 13 36  1  0  0  0
 14 15  1  0  0  0
 14 61  1  0  0  0
 15 16  2  0  0  0
 15 17  1  0  0  0
 16 62  1  0  0  0
 17 18  2  0  0  0
 17 19  1  0  0  0
 19 20  1  0  0  0
 19 63  1  0  0  0
 20 40  1  0  0  0
 20 21  1  0  0  0
 20 22  1  0  0  0
 21 64  1  0  0  0
 21 65  1  0  0  0
 22 41  1  0  0  0
 22 23  1  0  0  0
 22 35  1  0  0  0
 23 24  1  0  0  0
 23 66  1  0  0  0
 23 67  1  0  0  0
 24 25  1  0  0  0
 24 68  1  0  0  0
 25 26  1  0  0  0
 25 69  1  0  0  0
 25 70  1  0  0  0
 26 31  1  0  0  0
 26 27  2  0  0  0
 27 28  1  0  0  0
 27 71  1  0  0  0
 28 29  2  0  0  0
 28 72  1  0  0  0
 29 30  1  0  0  0
 29 73  1  0  0  0
 30 31  2  0  0  0
 30 32  1  0  0  0
 31 74  1  0  0  0
 32 33  1  0  0  0
 32 34  1  0  0  0
 32 75  1  0  0  0
 33 76  1  0  0  0
 33 77  1  0  0  0
 33 78  1  0  0  0
 34 79  1  0  0  0
 34 80  1  0  0  0
 34 81  1  0  0  0
 35 82  1  0  0  0
 36 37  1  0  0  0
 36 83  1  0  0  0
 36 84  1  0  0  0
 37 38  1  0  0  0
 38 85  1  0  0  0
 38 86  1  0  0  0
 38 87  1  0  0  0
M  END
> <s_m_source_file>
BACE_9.smi

> <i_m_source_file_index>
1

> <i_lp_mmshare_version>
42013

> <i_f3d_flags>
0

> <s_epik_input>
W05IXTFbQ0gyXVtDSDJdW0NIMl1bQ0gyXVtDSDJdW0NIMl1bQ0gyXVtDQEBIXShbQ0gzXSlbQ0gyXVtDQEhdKFtOSF1DKD1PKWMoW2NIXTIpW2NIXWMoW2NIXWMxMilbQ0gyXU9bQ0gzXSlbQ0BIXShbT0hdKVtDSDJdW05IXVtDSDJdYzNbY0hdW2NIXVtjSF1jKFtjSF0zKVtDSF0oW0NIM10pW0NIM10=

> <s_epik_cmdline>
J2VwaWtfcHl0aG9uJywgJy1waCcsICc3LjAnLCAnLXRuJywgJzgnLCAnLW1hJywgJzIwMCcsICctaW1hZScsICc8aW5maWxlLm1hZT4nLCAnLW9tYWUnLCAnPG91dGZpbGUubWFlPic=

> <r_epik_Ionization_Penalty>
  2.1300

> <r_epik_Ionization_Penalty_Charging>
  0.0000

> <r_epik_Ionization_Penalty_Neutral>
  2.1300

> <r_epik_State_Penalty>
  2.2676

> <r_epik_Charging_Adjusted_Penalty>
2.26762

> <i_epik_Tot_Q>
0

> <i_epik_Tot_abs_Q>
0

> <s_lp_Force_Field>
OPLS_2005

> <r_lp_Energy>
47.2954

> <b_lp_Chiralities_Consistent>
1

> <s_lp_Variant>
BACE_9.smi:1-2

> <chiral flag>
1

> <version>
0

> <r_i_glide_lipo>
-0.947222

> <r_i_glide_hbond>
-0.319819

> <r_i_glide_metal>
-0

> <r_i_glide_rewards>
0

> <r_i_glide_erotb>
0.44997

> <r_i_glide_esite>
-0.00440583

> <chiral flag>
1

> <s_i_glide_gridfile>
second_dock_grid_2

> <i_i_glide_lignum>
19

> <i_i_glide_rotatable_bonds>
9

> <r_i_docking_score>
0.280038

> <r_i_glide_ligand_efficiency>
0.00736943

> <r_i_glide_ligand_efficiency_sa>
0.0247759

> <r_i_glide_ligand_efficiency_ln>
0.0603845

> <r_glide_XP_GScore>
-1.98756

> <r_i_glide_gscore>
-1.98756

> <r_i_glide_evdw>
-42.6542

> <r_i_glide_ecoul>
-4.50592

> <r_i_glide_energy>
-47.1602

> <r_i_glide_einternal>
3.91708

> <r_i_glide_emodel>
-58.7124

> <r_glide_XP_HBond>
-1.62339

> <i_i_glide_confnum>
1

> <i_i_glide_posenum>
41

> <r_i_glide_eff_state_penalty>
2.2676

> <i_glide_XP_PoseRank>
8

$$$$
BACE_9.smi:1
                    3D
 Structure written by MMmdl.
 87 89  0  0  1  0            999 V2000
   18.7891   46.7451   -6.6500 C   0  0  0  0  0  0
   19.1080   45.3178   -7.1246 C   0  0  2  0  0  0
   20.6196   45.0358   -6.9963 C   0  0  0  0  0  0
   20.9827   43.5794   -7.3067 C   0  0  0  0  0  0
   22.4722   43.2578   -7.1121 C   0  0  0  0  0  0
   22.7940   41.8070   -7.4985 C   0  0  0  0  0  0
   22.2856   40.7821   -6.4624 C   0  0  0  0  0  0
   22.3831   39.3193   -6.9256 C   0  0  0  0  0  0
   21.1449   38.8174   -7.6791 C   0  0  0  0  0  0
   20.9739   39.4760   -8.9634 N   0  0  0  0  0  0
   19.6547   39.6856   -9.3768 C   0  0  0  0  0  0
   18.6653   38.6938   -9.2115 C   0  0  0  0  0  0
   17.3461   38.9187   -9.6414 C   0  0  0  0  0  0
   17.0141   40.1492  -10.2547 C   0  0  0  0  0  0
   17.9881   41.1623  -10.3894 C   0  0  0  0  0  0
   19.3111   40.9188   -9.9629 C   0  0  0  0  0  0
   17.6251   42.4802  -11.0096 C   0  0  0  0  0  0
   17.2637   42.5476  -12.1846 O   0  0  0  0  0  0
   17.6889   43.5913  -10.2547 N   0  0  0  0  0  0
   17.8344   43.7421   -8.8053 C   0  0  1  0  0  0
   18.5799   45.0835   -8.5629 C   0  0  0  0  0  0
   16.4586   43.6731   -8.0753 C   0  0  1  0  0  0
   15.3947   44.7579   -8.4279 C   0  0  0  0  0  0
   14.1674   44.2386   -9.0581 N   0  0  0  0  0  0
   14.2730   43.8154  -10.4573 C   0  0  0  0  0  0
   14.3316   44.9508  -11.4735 C   0  0  0  0  0  0
   13.2192   45.2092  -12.2955 C   0  0  0  0  0  0
   13.2585   46.2621  -13.2303 C   0  0  0  0  0  0
   14.4110   47.0616  -13.3576 C   0  0  0  0  0  0
   15.5417   46.7965  -12.5588 C   0  0  0  0  0  0
   15.4894   45.7467  -11.6209 C   0  0  0  0  0  0
   16.8044   47.6412  -12.7050 C   0  0  0  0  0  0
   18.0788   46.7844  -12.8327 C   0  0  0  0  0  0
   16.9264   48.6533  -11.5562 C   0  0  0  0  0  0
   15.9056   42.3664   -8.1201 O   0  0  0  0  0  0
   16.3246   37.8049   -9.4647 C   0  0  0  0  0  0
   14.9750   38.2116   -9.6397 O   0  0  0  0  0  0
   14.4167   38.8250   -8.4874 C   0  0  0  0  0  0
   18.5980   44.6434   -6.4381 H   0  0  0  0  0  0
   18.4594   42.9372   -8.4180 H   0  0  0  0  0  0
   16.6852   43.8132   -7.0177 H   0  0  0  0  0  0
   19.2812   47.4897   -7.2742 H   0  0  0  0  0  0
   19.1206   46.9006   -5.6232 H   0  0  0  0  0  0
   17.7161   46.9409   -6.6813 H   0  0  0  0  0  0
   21.1838   45.7003   -7.6531 H   0  0  0  0  0  0
   20.9427   45.2657   -5.9797 H   0  0  0  0  0  0
   20.3703   42.9305   -6.6812 H   0  0  0  0  0  0
   20.7204   43.3497   -8.3394 H   0  0  0  0  0  0
   23.0602   43.9255   -7.7439 H   0  0  0  0  0  0
   22.7815   43.4553   -6.0855 H   0  0  0  0  0  0
   22.3672   41.6151   -8.4811 H   0  0  0  0  0  0
   23.8708   41.6887   -7.6309 H   0  0  0  0  0  0
   22.8606   40.9066   -5.5423 H   0  0  0  0  0  0
   21.2530   40.9807   -6.1819 H   0  0  0  0  0  0
   23.2920   39.1519   -7.5018 H   0  0  0  0  0  0
   22.4598   38.6996   -6.0322 H   0  0  0  0  0  0
   21.2397   37.7503   -7.8603 H   0  0  0  0  0  0
   20.2614   38.9551   -7.0525 H   0  0  0  0  0  0
   21.6301   40.2191   -9.1543 H   0  0  0  0  0  0
   18.9203   37.7429   -8.7629 H   0  0  0  0  0  0
   16.0045   40.3262  -10.5957 H   0  0  0  0  0  0
   20.0613   41.6886  -10.0816 H   0  0  0  0  0  0
   17.4934   44.4447  -10.7531 H   0  0  0  0  0  0
   17.9312   45.9080   -8.8545 H   0  0  0  0  0  0
   19.4166   45.1627   -9.2583 H   0  0  0  0  0  0
   15.1026   45.2216   -7.4839 H   0  0  0  0  0  0
   15.8108   45.5788   -9.0003 H   0  0  0  0  0  0
   13.9081   43.4106   -8.5239 H   0  0  0  0  0  0
   15.1154   43.1460  -10.5932 H   0  0  0  0  0  0
   13.3983   43.2084  -10.6932 H   0  0  0  0  0  0
   12.3344   44.5955  -12.2064 H   0  0  0  0  0  0
   12.4053   46.4492  -13.8661 H   0  0  0  0  0  0
   14.4306   47.8636  -14.0817 H   0  0  0  0  0  0
   16.3506   45.5695  -11.0051 H   0  0  0  0  0  0
   16.7115   48.2095  -13.6318 H   0  0  0  0  0  0
   17.9966   46.0593  -13.6397 H   0  0  0  0  0  0
   18.2993   46.2387  -11.9144 H   0  0  0  0  0  0
   18.9461   47.4107  -13.0454 H   0  0  0  0  0  0
   16.0606   49.3134  -11.5300 H   0  0  0  0  0  0
   17.8143   49.2753  -11.6742 H   0  0  0  0  0  0
   16.9995   48.1557  -10.5890 H   0  0  0  0  0  0
   16.1815   41.8766   -7.3487 H   0  0  0  0  0  0
   16.5392   37.0373  -10.2070 H   0  0  0  0  0  0
   16.4519   37.3260   -8.4909 H   0  0  0  0  0  0
   13.3806   39.0889   -8.6946 H   0  0  0  0  0  0
   14.9485   39.7351   -8.2170 H   0  0  0  0  0  0
   14.4281   38.1503   -7.6323 H   0  0  0  0  0  0
  1  2  1  0  0  0
  1 42  1  0  0  0
  1 43  1  0  0  0
  1 44  1  0  0  0
  2 39  1  0  0  0
  2 21  1  0  0  0
  2  3  1  0  0  0
  3  4  1  0  0  0
  3 45  1  0  0  0
  3 46  1  0  0  0
  4  5  1  0  0  0
  4 47  1  0  0  0
  4 48  1  0  0  0
  5  6  1  0  0  0
  5 49  1  0  0  0
  5 50  1  0  0  0
  6  7  1  0  0  0
  6 51  1  0  0  0
  6 52  1  0  0  0
  7  8  1  0  0  0
  7 53  1  0  0  0
  7 54  1  0  0  0
  8  9  1  0  0  0
  8 55  1  0  0  0
  8 56  1  0  0  0
  9 10  1  0  0  0
  9 57  1  0  0  0
  9 58  1  0  0  0
 10 11  1  0  0  0
 10 59  1  0  0  0
 11 16  1  0  0  0
 11 12  2  0  0  0
 12 13  1  0  0  0
 12 60  1  0  0  0
 13 14  2  0  0  0
 13 36  1  0  0  0
 14 15  1  0  0  0
 14 61  1  0  0  0
 15 16  2  0  0  0
 15 17  1  0  0  0
 16 62  1  0  0  0
 17 18  2  0  0  0
 17 19  1  0  0  0
 19 20  1  0  0  0
 19 63  1  0  0  0
 20 40  1  0  0  0
 20 21  1  0  0  0
 20 22  1  0  0  0
 21 64  1  0  0  0
 21 65  1  0  0  0
 22 41  1  0  0  0
 22 23  1  0  0  0
 22 35  1  0  0  0
 23 24  1  0  0  0
 23 66  1  0  0  0
 23 67  1  0  0  0
 24 25  1  0  0  0
 24 68  1  0  0  0
 25 26  1  0  0  0
 25 69  1  0  0  0
 25 70  1  0  0  0
 26 31  1  0  0  0
 26 27  2  0  0  0
 27 28  1  0  0  0
 27 71  1  0  0  0
 28 29  2  0  0  0
 28 72  1  0  0  0
 29 30  1  0  0  0
 29 73  1  0  0  0
 30 31  2  0  0  0
 30 32  1  0  0  0
 31 74  1  0  0  0
 32 33  1  0  0  0
 32 34  1  0  0  0
 32 75  1  0  0  0
 33 76  1  0  0  0
 33 77  1  0  0  0
 33 78  1  0  0  0
 34 79  1  0  0  0
 34 80  1  0  0  0
 34 81  1  0  0  0
 35 82  1  0  0  0
 36 37  1  0  0  0
 36 83  1  0  0  0
 36 84  1  0  0  0
 37 38  1  0  0  0
 38 85  1  0  0  0
 38 86  1  0  0  0
 38 87  1  0  0  0
M  END
> <s_m_source_file>
BACE_9.smi

> <i_m_source_file_index>
1

> <i_lp_mmshare_version>
42013

> <i_f3d_flags>
0

> <s_epik_input>
W05IXTFbQ0gyXVtDSDJdW0NIMl1bQ0gyXVtDSDJdW0NIMl1bQ0gyXVtDQEBIXShbQ0gzXSlbQ0gyXVtDQEhdKFtOSF1DKD1PKWMoW2NIXTIpW2NIXWMoW2NIXWMxMilbQ0gyXU9bQ0gzXSlbQ0BIXShbT0hdKVtDSDJdW05IXVtDSDJdYzNbY0hdW2NIXVtjSF1jKFtjSF0zKVtDSF0oW0NIM10pW0NIM10=

> <s_epik_cmdline>
J2VwaWtfcHl0aG9uJywgJy1waCcsICc3LjAnLCAnLXRuJywgJzgnLCAnLW1hJywgJzIwMCcsICctaW1hZScsICc8aW5maWxlLm1hZT4nLCAnLW9tYWUnLCAnPG91dGZpbGUubWFlPic=

> <r_epik_Ionization_Penalty>
  2.1300

> <r_epik_Ionization_Penalty_Charging>
  0.0000

> <r_epik_Ionization_Penalty_Neutral>
  2.1300

> <r_epik_State_Penalty>
  2.2676

> <r_epik_Charging_Adjusted_Penalty>
2.26762

> <i_epik_Tot_Q>
0

> <i_epik_Tot_abs_Q>
0

> <s_lp_Force_Field>
OPLS_2005

> <r_lp_Energy>
47.2954

> <b_lp_Chiralities_Consistent>
1

> <s_lp_Variant>
BACE_9.smi:1-2

> <chiral flag>
1

> <version>
0

> <r_i_glide_lipo>
-0.947222

> <r_i_glide_hbond>
-0.319819

> <r_i_glide_metal>
-0

> <r_i_glide_rewards>
0

> <r_i_glide_erotb>
0.44997

> <r_i_glide_esite>
-0.00440583

> <chiral flag>
1

> <s_i_glide_gridfile>
second_dock_grid_2

> <i_i_glide_lignum>
19

> <i_i_glide_rotatable_bonds>
9

> <r_i_docking_score>
0.31683

> <r_i_glide_ligand_efficiency>
0.00833764

> <r_i_glide_ligand_efficiency_sa>
0.0280309

> <r_i_glide_ligand_efficiency_ln>
0.0683179

> <r_glide_XP_GScore>
-1.95077

> <r_i_glide_gscore>
-1.95077

> <r_i_glide_evdw>
-37.8474

> <r_i_glide_ecoul>
-8.49745

> <r_i_glide_energy>
-46.3449

> <r_i_glide_einternal>
4.86617

> <r_i_glide_emodel>
-58.8617

> <r_glide_XP_HBond>
-1.62339

> <i_i_glide_confnum>
1

> <i_i_glide_posenum>
30

> <r_i_glide_eff_state_penalty>
2.2676

> <i_glide_XP_PoseRank>
9

$$$$
BACE_9.smi:1
                    3D
 Structure written by MMmdl.
 87 89  0  0  1  0            999 V2000
   20.3914   45.5191   -6.5001 C   0  0  0  0  0  0
   20.3538   44.3444   -7.4917 C   0  0  2  0  0  0
   21.7713   43.7884   -7.6995 C   0  0  0  0  0  0
   21.7290   42.3861   -8.3091 C   0  0  0  0  0  0
   23.1126   41.8227   -8.6425 C   0  0  0  0  0  0
   22.9947   40.5305   -9.4525 C   0  0  0  0  0  0
   22.4754   39.3371   -8.6272 C   0  0  0  0  0  0
   21.8871   38.2079   -9.4869 C   0  0  0  0  0  0
   20.3657   38.3140   -9.7078 C   0  0  0  0  0  0
   20.0314   39.3731  -10.6477 N   0  0  0  0  0  0
   18.7703   39.9789  -10.5781 C   0  0  0  0  0  0
   17.6213   39.3105  -10.0934 C   0  0  0  0  0  0
   16.3774   39.9760  -10.0372 C   0  0  0  0  0  0
   16.2793   41.3122  -10.4742 C   0  0  0  0  0  0
   17.4241   41.9906  -10.9373 C   0  0  0  0  0  0
   18.6607   41.3165  -11.0036 C   0  0  0  0  0  0
   17.3389   43.4368  -11.3116 C   0  0  0  0  0  0
   16.8601   43.7557  -12.4013 O   0  0  0  0  0  0
   17.8125   44.3380  -10.4272 N   0  0  0  0  0  0
   18.2683   44.0925   -9.0464 C   0  0  1  0  0  0
   19.6787   44.7045   -8.8472 C   0  0  0  0  0  0
   17.2157   44.5832   -8.0136 C   0  0  1  0  0  0
   16.6802   46.0212   -8.1864 C   0  0  0  0  0  0
   17.7268   47.0307   -7.9966 N   0  0  0  0  0  0
   17.2576   48.4053   -7.8843 C   0  0  0  0  0  0
   18.3200   49.4596   -8.1421 C   0  0  0  0  0  0
   17.9625   50.6530   -8.8026 C   0  0  0  0  0  0
   18.9301   51.6446   -9.0446 C   0  0  0  0  0  0
   20.2598   51.4491   -8.6283 C   0  0  0  0  0  0
   20.6290   50.2637   -7.9569 C   0  0  0  0  0  0
   19.6509   49.2765   -7.7103 C   0  0  0  0  0  0
   22.0713   50.0493   -7.5175 C   0  0  0  0  0  0
   22.7294   48.8908   -8.2825 C   0  0  0  0  0  0
   22.1794   49.8600   -5.9942 C   0  0  0  0  0  0
   16.1155   43.6958   -8.0400 O   0  0  0  0  0  0
   15.1452   39.2574   -9.5103 C   0  0  0  0  0  0
   15.3738   38.6113   -8.2685 O   0  0  0  0  0  0
   15.4214   39.5034   -7.1631 C   0  0  0  0  0  0
   19.7797   43.5534   -7.0077 H   0  0  0  0  0  0
   18.4000   43.0255   -8.8692 H   0  0  0  0  0  0
   17.6286   44.4807   -7.0099 H   0  0  0  0  0  0
   20.9607   46.3531   -6.9033 H   0  0  0  0  0  0
   20.8643   45.2227   -5.5633 H   0  0  0  0  0  0
   19.3957   45.8706   -6.2437 H   0  0  0  0  0  0
   22.3510   44.4661   -8.3271 H   0  0  0  0  0  0
   22.2967   43.7304   -6.7453 H   0  0  0  0  0  0
   21.2112   41.7258   -7.6137 H   0  0  0  0  0  0
   21.1292   42.3858   -9.2191 H   0  0  0  0  0  0
   23.6642   42.5542   -9.2329 H   0  0  0  0  0  0
   23.6907   41.6542   -7.7338 H   0  0  0  0  0  0
   22.3542   40.7131  -10.3135 H   0  0  0  0  0  0
   23.9697   40.2816   -9.8688 H   0  0  0  0  0  0
   23.3095   38.9508   -8.0403 H   0  0  0  0  0  0
   21.7299   39.6353   -7.8927 H   0  0  0  0  0  0
   22.4188   38.1500  -10.4372 H   0  0  0  0  0  0
   22.0846   37.2684   -8.9751 H   0  0  0  0  0  0
   19.9832   37.3741  -10.1062 H   0  0  0  0  0  0
   19.8644   38.4757   -8.7523 H   0  0  0  0  0  0
   20.7997   39.9499  -10.9559 H   0  0  0  0  0  0
   17.6783   38.2833   -9.7656 H   0  0  0  0  0  0
   15.3328   41.8304  -10.4132 H   0  0  0  0  0  0
   19.5357   41.8416  -11.3599 H   0  0  0  0  0  0
   17.7754   45.3055  -10.7108 H   0  0  0  0  0  0
   19.6762   45.7819   -8.9956 H   0  0  0  0  0  0
   20.2984   44.3500   -9.6707 H   0  0  0  0  0  0
   16.2081   46.1412   -9.1627 H   0  0  0  0  0  0
   15.8916   46.1502   -7.4477 H   0  0  0  0  0  0
   18.2570   46.7913   -7.1653 H   0  0  0  0  0  0
   16.4596   48.5750   -8.6038 H   0  0  0  0  0  0
   16.8601   48.5800   -6.8862 H   0  0  0  0  0  0
   16.9484   50.8082   -9.1389 H   0  0  0  0  0  0
   18.6543   52.5502   -9.5628 H   0  0  0  0  0  0
   20.9927   52.2121   -8.8407 H   0  0  0  0  0  0
   19.9268   48.3709   -7.1951 H   0  0  0  0  0  0
   22.6274   50.9485   -7.7782 H   0  0  0  0  0  0
   22.7033   49.0714   -9.3592 H   0  0  0  0  0  0
   22.2264   47.9424   -8.0947 H   0  0  0  0  0  0
   23.7752   48.7722   -7.9948 H   0  0  0  0  0  0
   21.7269   50.6906   -5.4520 H   0  0  0  0  0  0
   23.2198   49.7807   -5.6782 H   0  0  0  0  0  0
   21.6769   48.9484   -5.6676 H   0  0  0  0  0  0
   15.8000   43.5650   -7.1487 H   0  0  0  0  0  0
   14.2961   39.9397   -9.4350 H   0  0  0  0  0  0
   14.8621   38.4967  -10.2375 H   0  0  0  0  0  0
   15.6503   38.9496   -6.2549 H   0  0  0  0  0  0
   14.4619   39.9997   -7.0152 H   0  0  0  0  0  0
   16.1920   40.2651   -7.2892 H   0  0  0  0  0  0
  1  2  1  0  0  0
  1 42  1  0  0  0
  1 43  1  0  0  0
  1 44  1  0  0  0
  2 39  1  0  0  0
  2 21  1  0  0  0
  2  3  1  0  0  0
  3  4  1  0  0  0
  3 45  1  0  0  0
  3 46  1  0  0  0
  4  5  1  0  0  0
  4 47  1  0  0  0
  4 48  1  0  0  0
  5  6  1  0  0  0
  5 49  1  0  0  0
  5 50  1  0  0  0
  6  7  1  0  0  0
  6 51  1  0  0  0
  6 52  1  0  0  0
  7  8  1  0  0  0
  7 53  1  0  0  0
  7 54  1  0  0  0
  8  9  1  0  0  0
  8 55  1  0  0  0
  8 56  1  0  0  0
  9 10  1  0  0  0
  9 57  1  0  0  0
  9 58  1  0  0  0
 10 11  1  0  0  0
 10 59  1  0  0  0
 11 16  1  0  0  0
 11 12  2  0  0  0
 12 13  1  0  0  0
 12 60  1  0  0  0
 13 14  2  0  0  0
 13 36  1  0  0  0
 14 15  1  0  0  0
 14 61  1  0  0  0
 15 16  2  0  0  0
 15 17  1  0  0  0
 16 62  1  0  0  0
 17 18  2  0  0  0
 17 19  1  0  0  0
 19 20  1  0  0  0
 19 63  1  0  0  0
 20 40  1  0  0  0
 20 21  1  0  0  0
 20 22  1  0  0  0
 21 64  1  0  0  0
 21 65  1  0  0  0
 22 41  1  0  0  0
 22 23  1  0  0  0
 22 35  1  0  0  0
 23 24  1  0  0  0
 23 66  1  0  0  0
 23 67  1  0  0  0
 24 25  1  0  0  0
 24 68  1  0  0  0
 25 26  1  0  0  0
 25 69  1  0  0  0
 25 70  1  0  0  0
 26 31  1  0  0  0
 26 27  2  0  0  0
 27 28  1  0  0  0
 27 71  1  0  0  0
 28 29  2  0  0  0
 28 72  1  0  0  0
 29 30  1  0  0  0
 29 73  1  0  0  0
 30 31  2  0  0  0
 30 32  1  0  0  0
 31 74  1  0  0  0
 32 33  1  0  0  0
 32 34  1  0  0  0
 32 75  1  0  0  0
 33 76  1  0  0  0
 33 77  1  0  0  0
 33 78  1  0  0  0
 34 79  1  0  0  0
 34 80  1  0  0  0
 34 81  1  0  0  0
 35 82  1  0  0  0
 36 37  1  0  0  0
 36 83  1  0  0  0
 36 84  1  0  0  0
 37 38  1  0  0  0
 38 85  1  0  0  0
 38 86  1  0  0  0
 38 87  1  0  0  0
M  END
> <s_m_source_file>
BACE_9.smi

> <i_m_source_file_index>
1

> <i_lp_mmshare_version>
42013

> <i_f3d_flags>
0

> <s_epik_input>
W05IXTFbQ0gyXVtDSDJdW0NIMl1bQ0gyXVtDSDJdW0NIMl1bQ0gyXVtDQEBIXShbQ0gzXSlbQ0gyXVtDQEhdKFtOSF1DKD1PKWMoW2NIXTIpW2NIXWMoW2NIXWMxMilbQ0gyXU9bQ0gzXSlbQ0BIXShbT0hdKVtDSDJdW05IXVtDSDJdYzNbY0hdW2NIXVtjSF1jKFtjSF0zKVtDSF0oW0NIM10pW0NIM10=

> <s_epik_cmdline>
J2VwaWtfcHl0aG9uJywgJy1waCcsICc3LjAnLCAnLXRuJywgJzgnLCAnLW1hJywgJzIwMCcsICctaW1hZScsICc8aW5maWxlLm1hZT4nLCAnLW9tYWUnLCAnPG91dGZpbGUubWFlPic=

> <r_epik_Ionization_Penalty>
  2.1300

> <r_epik_Ionization_Penalty_Charging>
  0.0000

> <r_epik_Ionization_Penalty_Neutral>
  2.1300

> <r_epik_State_Penalty>
  2.2676

> <r_epik_Charging_Adjusted_Penalty>
2.26762

> <i_epik_Tot_Q>
0

> <i_epik_Tot_abs_Q>
0

> <s_lp_Force_Field>
OPLS_2005

> <r_lp_Energy>
47.2954

> <b_lp_Chiralities_Consistent>
1

> <s_lp_Variant>
BACE_9.smi:1-2

> <chiral flag>
1

> <version>
0

> <r_i_glide_lipo>
-0.947222

> <r_i_glide_hbond>
-0.319819

> <r_i_glide_metal>
-0

> <r_i_glide_rewards>
0

> <r_i_glide_erotb>
0.44997

> <r_i_glide_esite>
-0.00440583

> <chiral flag>
1

> <s_i_glide_gridfile>
second_dock_grid_2

> <i_i_glide_lignum>
19

> <i_i_glide_rotatable_bonds>
9

> <r_i_docking_score>
0.431064

> <r_i_glide_ligand_efficiency>
0.0113438

> <r_i_glide_ligand_efficiency_sa>
0.0381375

> <r_i_glide_ligand_efficiency_ln>
0.09295

> <r_glide_XP_GScore>
-1.83654

> <r_i_glide_gscore>
-1.83654

> <r_i_glide_evdw>
-37.1557

> <r_i_glide_ecoul>
-7.61064

> <r_i_glide_energy>
-44.7664

> <r_i_glide_einternal>
3.12897

> <r_i_glide_emodel>
-59.5148

> <r_glide_XP_HBond>
-1.62339

> <i_i_glide_confnum>
1

> <i_i_glide_posenum>
39

> <r_i_glide_eff_state_penalty>
2.2676

> <i_glide_XP_PoseRank>
10

$$$$
BACE_10.smi:1
                    3D
 Structure written by MMmdl.
 86 88  0  0  1  0            999 V2000
   20.2993   38.5498   -7.0544 C   0  0  0  0  0  0
   19.7845   39.3296   -8.2760 C   0  0  2  0  0  0
   19.1348   38.3812   -9.3183 C   0  0  0  0  0  0
   17.7645   37.8366   -8.8866 C   0  0  0  0  0  0
   16.9585   38.9625   -8.6026 O   0  0  0  0  0  0
   15.6287   38.6661   -8.2166 C   0  0  0  0  0  0
   15.1235   39.8358   -7.3585 C   0  0  0  0  0  0
   15.3969   41.2239   -7.9646 C   0  0  0  0  0  0
   14.8181   41.4078   -9.3743 C   0  0  0  0  0  0
   15.0744   42.7444   -9.8937 N   0  0  0  0  0  0
   16.2278   43.0727  -10.6214 C   0  0  0  0  0  0
   16.3005   44.3768  -11.1526 C   0  0  0  0  0  0
   17.3904   44.7766  -11.9500 C   0  0  0  0  0  0
   18.4266   43.8571  -12.2135 C   0  0  0  0  0  0
   18.3908   42.5584  -11.6652 C   0  0  0  0  0  0
   17.2903   42.1652  -10.8670 C   0  0  0  0  0  0
   19.4629   41.5802  -12.0448 C   0  0  0  0  0  0
   19.6647   41.3500  -13.2340 O   0  0  0  0  0  0
   20.1989   40.9813  -11.0920 N   0  0  0  0  0  0
   20.4438   41.4199   -9.7151 C   0  0  1  0  0  0
   20.9128   40.2078   -8.8629 C   0  0  0  0  0  0
   21.4971   42.5737   -9.6674 C   0  0  1  0  0  0
   22.6751   42.5025  -10.6727 C   0  0  0  0  0  0
   23.5834   41.3560  -10.4400 N   0  3  0  0  0  0
   24.5732   41.5036   -9.3495 C   0  0  0  0  0  0
   25.6522   42.5308   -9.6426 C   0  0  0  0  0  0
   25.5602   43.8318   -9.1040 C   0  0  0  0  0  0
   26.5871   44.7640   -9.3412 C   0  0  0  0  0  0
   27.7039   44.4019  -10.1166 C   0  0  0  0  0  0
   27.8110   43.1051  -10.6604 C   0  0  0  0  0  0
   26.7767   42.1706  -10.4234 C   0  0  0  0  0  0
   29.0477   42.7445  -11.4819 C   0  0  0  0  0  0
   28.7000   42.0018  -12.7784 C   0  0  0  0  0  0
   30.0598   41.9377  -10.6608 C   0  0  0  0  0  0
   20.8335   43.8065   -9.8643 O   0  0  0  0  0  0
   17.4267   46.1873  -12.5117 C   0  0  0  0  0  0
   18.4549   46.3736  -13.4681 O   0  0  0  0  0  0
   18.4395   47.6676  -14.0469 C   0  0  0  0  0  0
   19.0228   40.0144   -7.8994 H   0  0  0  0  0  0
   19.5156   41.7816   -9.2697 H   0  0  0  0  0  0
   21.8974   42.6551   -8.6573 H   0  0  0  0  0  0
   21.1053   37.8692   -7.3222 H   0  0  0  0  0  0
   19.5068   37.9666   -6.5885 H   0  0  0  0  0  0
   20.6810   39.2234   -6.2854 H   0  0  0  0  0  0
   18.9759   38.9044  -10.2586 H   0  0  0  0  0  0
   19.8082   37.5546   -9.5472 H   0  0  0  0  0  0
   17.3187   37.2452   -9.6900 H   0  0  0  0  0  0
   17.8493   37.1940   -8.0093 H   0  0  0  0  0  0
   15.0120   38.5232   -9.1076 H   0  0  0  0  0  0
   15.5687   37.7473   -7.6400 H   0  0  0  0  0  0
   14.0579   39.7094   -7.1671 H   0  0  0  0  0  0
   15.6043   39.7853   -6.3784 H   0  0  0  0  0  0
   14.9767   41.9748   -7.2945 H   0  0  0  0  0  0
   16.4724   41.4064   -7.9776 H   0  0  0  0  0  0
   15.2000   40.6552  -10.0625 H   0  0  0  0  0  0
   13.7389   41.2599   -9.3442 H   0  0  0  0  0  0
   14.3815   43.4523   -9.7040 H   0  0  0  0  0  0
   15.5024   45.0795  -10.9644 H   0  0  0  0  0  0
   19.2593   44.1509  -12.8382 H   0  0  0  0  0  0
   17.2612   41.1580  -10.4758 H   0  0  0  0  0  0
   20.7876   40.2347  -11.4305 H   0  0  0  0  0  0
   21.4754   40.5938   -8.0129 H   0  0  0  0  0  0
   21.6200   39.5858   -9.4116 H   0  0  0  0  0  0
   22.2994   42.4341  -11.6944 H   0  0  0  0  0  0
   23.2463   43.4318  -10.6466 H   0  0  0  0  0  0
   23.0301   40.5308  -10.2590 H   0  0  0  0  0  0
   24.0782   41.7295   -8.4030 H   0  0  0  0  0  0
   25.0666   40.5474   -9.2153 H   0  0  0  0  0  0
   24.7118   44.1149   -8.4987 H   0  0  0  0  0  0
   26.5206   45.7576   -8.9251 H   0  0  0  0  0  0
   28.4870   45.1278  -10.2825 H   0  0  0  0  0  0
   26.8555   41.1645  -10.8138 H   0  0  0  0  0  0
   29.5309   43.6810  -11.7700 H   0  0  0  0  0  0
   27.9489   42.5466  -13.3479 H   0  0  0  0  0  0
   28.3156   41.0039  -12.5712 H   0  0  0  0  0  0
   29.5792   41.8848  -13.4112 H   0  0  0  0  0  0
   30.3021   42.4372   -9.7210 H   0  0  0  0  0  0
   30.9872   41.7953  -11.2148 H   0  0  0  0  0  0
   29.6602   40.9502  -10.4403 H   0  0  0  0  0  0
   20.1224   43.8762   -9.2423 H   0  0  0  0  0  0
   16.4575   46.3975  -12.9694 H   0  0  0  0  0  0
   17.5572   46.8868  -11.6844 H   0  0  0  0  0  0
   19.2517   47.7560  -14.7675 H   0  0  0  0  0  0
   18.5738   48.4423  -13.2905 H   0  0  0  0  0  0
   17.5021   47.8507  -14.5742 H   0  0  0  0  0  0
   24.0713   41.1943  -11.3158 H   0  0  0  0  0  0
  1  2  1  0  0  0
  1 42  1  0  0  0
  1 43  1  0  0  0
  1 44  1  0  0  0
  2 39  1  0  0  0
  2 21  1  0  0  0
  2  3  1  0  0  0
  3  4  1  0  0  0
  3 45  1  0  0  0
  3 46  1  0  0  0
  4  5  1  0  0  0
  4 47  1  0  0  0
  4 48  1  0  0  0
  5  6  1  0  0  0
  6  7  1  0  0  0
  6 49  1  0  0  0
  6 50  1  0  0  0
  7  8  1  0  0  0
  7 51  1  0  0  0
  7 52  1  0  0  0
  8  9  1  0  0  0
  8 53  1  0  0  0
  8 54  1  0  0  0
  9 10  1  0  0  0
  9 55  1  0  0  0
  9 56  1  0  0  0
 10 11  1  0  0  0
 10 57  1  0  0  0
 11 16  1  0  0  0
 11 12  2  0  0  0
 12 13  1  0  0  0
 12 58  1  0  0  0
 13 14  2  0  0  0
 13 36  1  0  0  0
 14 15  1  0  0  0
 14 59  1  0  0  0
 15 16  2  0  0  0
 15 17  1  0  0  0
 16 60  1  0  0  0
 17 18  2  0  0  0
 17 19  1  0  0  0
 19 20  1  0  0  0
 19 61  1  0  0  0
 20 40  1  0  0  0
 20 21  1  0  0  0
 20 22  1  0  0  0
 21 62  1  0  0  0
 21 63  1  0  0  0
 22 41  1  0  0  0
 22 23  1  0  0  0
 22 35  1  0  0  0
 23 24  1  0  0  0
 23 64  1  0  0  0
 23 65  1  0  0  0
 24 25  1  0  0  0
 24 66  1  0  0  0
 24 86  1  0  0  0
 25 26  1  0  0  0
 25 67  1  0  0  0
 25 68  1  0  0  0
 26 31  1  0  0  0
 26 27  2  0  0  0
 27 28  1  0  0  0
 27 69  1  0  0  0
 28 29  2  0  0  0
 28 70  1  0  0  0
 29 30  1  0  0  0
 29 71  1  0  0  0
 30 31  2  0  0  0
 30 32  1  0  0  0
 31 72  1  0  0  0
 32 33  1  0  0  0
 32 34  1  0  0  0
 32 73  1  0  0  0
 33 74  1  0  0  0
 33 75  1  0  0  0
 33 76  1  0  0  0
 34 77  1  0  0  0
 34 78  1  0  0  0
 34 79  1  0  0  0
 35 80  1  0  0  0
 36 37  1  0  0  0
 36 81  1  0  0  0
 36 82  1  0  0  0
 37 38  1  0  0  0
 38 83  1  0  0  0
 38 84  1  0  0  0
 38 85  1  0  0  0
M  CHG  1  24   1
M  END
> <s_m_source_file>
BACE_10.smi

> <i_m_source_file_index>
1

> <i_lp_mmshare_version>
42013

> <i_f3d_flags>
0

> <s_epik_input>
W05IXTFbQ0gyXVtDSDJdW0NIMl1bQ0gyXU9bQ0gyXVtDSDJdW0NAQEhdKFtDSDNdKVtDSDJdW0NASF0oW05IXUMoPU8pYyhbY0hdMilbY0hdYyhbY0hdYzEyKVtDSDJdT1tDSDNdKVtDQEhdKFtPSF0pW0NIMl1bTkhdW0NIMl1jM1tjSF1bY0hdW2NIXWMoW2NIXTMpW0NIXShbQ0gzXSlbQ0gzXQ==

> <s_epik_cmdline>
J2VwaWtfcHl0aG9uJywgJy1waCcsICc3LjAnLCAnLXRuJywgJzgnLCAnLW1hJywgJzIwMCcsICctaW1hZScsICc8aW5maWxlLm1hZT4nLCAnLW9tYWUnLCAnPG91dGZpbGUubWFlPic=

> <r_epik_Ionization_Penalty>
  0.0171

> <r_epik_Ionization_Penalty_Charging>
  0.0167

> <r_epik_Ionization_Penalty_Neutral>
  0.0004

> <r_epik_State_Penalty>
  0.0132

> <r_epik_Charging_Adjusted_Penalty>
0.0299522

> <i_epik_Tot_Q>
1

> <i_epik_Tot_abs_Q>
1

> <s_lp_Force_Field>
OPLS_2005

> <r_lp_Energy>
35.5902

> <b_lp_Chiralities_Consistent>
1

> <s_lp_Variant>
BACE_10.smi:1-1

> <chiral flag>
1

> <version>
0

> <r_i_glide_lipo>
-0.737388

> <r_i_glide_hbond>
-0.0549666

> <r_i_glide_metal>
-0

> <r_i_glide_rewards>
0

> <r_i_glide_erotb>
0.445295

> <r_i_glide_esite>
-0.000706045

> <chiral flag>
1

> <s_i_glide_gridfile>
second_dock_grid_2

> <i_i_glide_lignum>
20

> <i_i_glide_rotatable_bonds>
9

> <r_i_docking_score>
-3.77577

> <r_i_glide_ligand_efficiency>
-0.0993624

> <r_i_glide_ligand_efficiency_sa>
-0.334054

> <r_i_glide_ligand_efficiency_ln>
-0.814167

> <r_glide_XP_GScore>
-3.78897

> <r_i_glide_gscore>
-3.78897

> <r_i_glide_evdw>
-38.9994

> <r_i_glide_ecoul>
-11.7244

> <r_i_glide_energy>
-50.7238

> <r_i_glide_einternal>
4.0299

> <r_i_glide_emodel>
-66.8765

> <r_glide_XP_HBond>
-0.7

> <i_i_glide_confnum>
1

> <i_i_glide_posenum>
8

> <r_i_glide_eff_state_penalty>
0.0132

> <i_glide_XP_PoseRank>
1

$$$$
BACE_10.smi:1
                    3D
 Structure written by MMmdl.
 86 88  0  0  1  0            999 V2000
   20.8722   38.5990   -7.2491 C   0  0  0  0  0  0
   20.2094   39.4491   -8.3471 C   0  0  2  0  0  0
   19.4980   38.5464   -9.3876 C   0  0  0  0  0  0
   18.1714   37.9515   -8.8916 C   0  0  0  0  0  0
   17.3446   39.0386   -8.5140 O   0  0  0  0  0  0
   16.0139   38.6795   -8.1940 C   0  0  0  0  0  0
   15.4055   39.7931   -7.3313 C   0  0  0  0  0  0
   15.5777   41.2025   -7.9235 C   0  0  0  0  0  0
   14.9536   41.3534   -9.3182 C   0  0  0  0  0  0
   15.1462   42.6894   -9.8567 N   0  0  0  0  0  0
   16.2852   43.0556  -10.5913 C   0  0  0  0  0  0
   16.3032   44.3526  -11.1433 C   0  0  0  0  0  0
   17.3723   44.7762  -11.9541 C   0  0  0  0  0  0
   18.4416   43.8966  -12.2049 C   0  0  0  0  0  0
   18.4534   42.6007  -11.6503 C   0  0  0  0  0  0
   17.3799   42.1869  -10.8303 C   0  0  0  0  0  0
   19.5393   41.6472  -12.0551 C   0  0  0  0  0  0
   19.6608   41.3503  -13.2391 O   0  0  0  0  0  0
   20.3789   41.1352  -11.1417 N   0  0  0  0  0  0
   20.6634   41.6005   -9.7860 C   0  0  1  0  0  0
   21.2456   40.4199   -8.9595 C   0  0  0  0  0  0
   21.6465   42.8165   -9.8074 C   0  0  1  0  0  0
   22.7273   42.8387  -10.9215 C   0  0  0  0  0  0
   23.6963   41.7235  -10.8202 N   0  3  0  0  0  0
   24.7474   41.8327   -9.7803 C   0  0  0  0  0  0
   25.8446   42.8074  -10.1601 C   0  0  0  0  0  0
   25.7128   44.1822   -9.8646 C   0  0  0  0  0  0
   26.7269   45.0826  -10.2291 C   0  0  0  0  0  0
   27.8879   44.6155  -10.8710 C   0  0  0  0  0  0
   28.0494   43.2389  -11.1466 C   0  0  0  0  0  0
   27.0197   42.3399  -10.7885 C   0  0  0  0  0  0
   29.3538   42.7625  -11.7772 C   0  0  0  0  0  0
   29.1952   41.5510  -12.7143 C   0  0  0  0  0  0
   30.4083   42.5019  -10.6943 C   0  0  0  0  0  0
   20.8849   44.0020   -9.8974 O   0  0  0  0  0  0
   17.3773   46.1706  -12.5471 C   0  0  0  0  0  0
   16.0721   46.5967  -12.9170 O   0  0  0  0  0  0
   16.0706   47.8832  -13.5034 C   0  0  0  0  0  0
   19.4617   40.0714   -7.8505 H   0  0  0  0  0  0
   19.7382   41.9091   -9.2930 H   0  0  0  0  0  0
   22.1364   42.8962   -8.8362 H   0  0  0  0  0  0
   21.6543   37.9604   -7.6619 H   0  0  0  0  0  0
   20.1463   37.9658   -6.7390 H   0  0  0  0  0  0
   21.3320   39.2275   -6.4840 H   0  0  0  0  0  0
   19.2457   39.1098  -10.2804 H   0  0  0  0  0  0
   20.1686   37.7512   -9.7182 H   0  0  0  0  0  0
   17.7008   37.3775   -9.6939 H   0  0  0  0  0  0
   18.3238   37.2752   -8.0477 H   0  0  0  0  0  0
   15.4445   38.5233   -9.1097 H   0  0  0  0  0  0
   15.9849   37.7487   -7.6400 H   0  0  0  0  0  0
   14.3473   39.5849   -7.1609 H   0  0  0  0  0  0
   15.8705   39.7722   -6.3441 H   0  0  0  0  0  0
   15.1268   41.9208   -7.2403 H   0  0  0  0  0  0
   16.6373   41.4522   -7.9596 H   0  0  0  0  0  0
   15.3443   40.6114  -10.0110 H   0  0  0  0  0  0
   13.8813   41.1623   -9.2548 H   0  0  0  0  0  0
   14.4141   43.3645   -9.6920 H   0  0  0  0  0  0
   15.4800   45.0272  -10.9596 H   0  0  0  0  0  0
   19.2526   44.2183  -12.8375 H   0  0  0  0  0  0
   17.3922   41.1846  -10.4218 H   0  0  0  0  0  0
   20.9794   40.4050  -11.4927 H   0  0  0  0  0  0
   21.8028   40.8410   -8.1228 H   0  0  0  0  0  0
   21.9829   39.8563   -9.5328 H   0  0  0  0  0  0
   22.2573   42.7854  -11.9041 H   0  0  0  0  0  0
   23.2569   43.7905  -10.9248 H   0  0  0  0  0  0
   23.1725   40.8792  -10.6376 H   0  0  0  0  0  0
   24.3183   42.0999   -8.8131 H   0  0  0  0  0  0
   25.1889   40.8434   -9.6488 H   0  0  0  0  0  0
   24.8335   44.5512   -9.3571 H   0  0  0  0  0  0
   26.6215   46.1351  -10.0070 H   0  0  0  0  0  0
   28.6669   45.3168  -11.1332 H   0  0  0  0  0  0
   27.1324   41.2826  -10.9756 H   0  0  0  0  0  0
   29.7228   43.5786  -12.4009 H   0  0  0  0  0  0
   28.4601   41.7616  -13.4884 H   0  0  0  0  0  0
   28.8869   40.6495  -12.1843 H   0  0  0  0  0  0
   30.1341   41.3187  -13.2198 H   0  0  0  0  0  0
   30.6240   43.4079  -10.1287 H   0  0  0  0  0  0
   31.3447   42.1504  -11.1293 H   0  0  0  0  0  0
   30.0588   41.7531   -9.9857 H   0  0  0  0  0  0
   21.4040   44.7339   -9.5979 H   0  0  0  0  0  0
   17.7961   46.8573  -11.8105 H   0  0  0  0  0  0
   18.0314   46.1899  -13.4188 H   0  0  0  0  0  0
   15.0548   48.1612  -13.7837 H   0  0  0  0  0  0
   16.6870   47.9068  -14.4035 H   0  0  0  0  0  0
   16.4443   48.6339  -12.8038 H   0  0  0  0  0  0
   24.1357   41.5883  -11.7280 H   0  0  0  0  0  0
  1  2  1  0  0  0
  1 42  1  0  0  0
  1 43  1  0  0  0
  1 44  1  0  0  0
  2 39  1  0  0  0
  2 21  1  0  0  0
  2  3  1  0  0  0
  3  4  1  0  0  0
  3 45  1  0  0  0
  3 46  1  0  0  0
  4  5  1  0  0  0
  4 47  1  0  0  0
  4 48  1  0  0  0
  5  6  1  0  0  0
  6  7  1  0  0  0
  6 49  1  0  0  0
  6 50  1  0  0  0
  7  8  1  0  0  0
  7 51  1  0  0  0
  7 52  1  0  0  0
  8  9  1  0  0  0
  8 53  1  0  0  0
  8 54  1  0  0  0
  9 10  1  0  0  0
  9 55  1  0  0  0
  9 56  1  0  0  0
 10 11  1  0  0  0
 10 57  1  0  0  0
 11 16  1  0  0  0
 11 12  2  0  0  0
 12 13  1  0  0  0
 12 58  1  0  0  0
 13 14  2  0  0  0
 13 36  1  0  0  0
 14 15  1  0  0  0
 14 59  1  0  0  0
 15 16  2  0  0  0
 15 17  1  0  0  0
 16 60  1  0  0  0
 17 18  2  0  0  0
 17 19  1  0  0  0
 19 20  1  0  0  0
 19 61  1  0  0  0
 20 40  1  0  0  0
 20 21  1  0  0  0
 20 22  1  0  0  0
 21 62  1  0  0  0
 21 63  1  0  0  0
 22 41  1  0  0  0
 22 23  1  0  0  0
 22 35  1  0  0  0
 23 24  1  0  0  0
 23 64  1  0  0  0
 23 65  1  0  0  0
 24 25  1  0  0  0
 24 66  1  0  0  0
 24 86  1  0  0  0
 25 26  1  0  0  0
 25 67  1  0  0  0
 25 68  1  0  0  0
 26 31  1  0  0  0
 26 27  2  0  0  0
 27 28  1  0  0  0
 27 69  1  0  0  0
 28 29  2  0  0  0
 28 70  1  0  0  0
 29 30  1  0  0  0
 29 71  1  0  0  0
 30 31  2  0  0  0
 30 32  1  0  0  0
 31 72  1  0  0  0
 32 33  1  0  0  0
 32 34  1  0  0  0
 32 73  1  0  0  0
 33 74  1  0  0  0
 33 75  1  0  0  0
 33 76  1  0  0  0
 34 77  1  0  0  0
 34 78  1  0  0  0
 34 79  1  0  0  0
 35 80  1  0  0  0
 36 37  1  0  0  0
 36 81  1  0  0  0
 36 82  1  0  0  0
 37 38  1  0  0  0
 38 83  1  0  0  0
 38 84  1  0  0  0
 38 85  1  0  0  0
M  CHG  1  24   1
M  END
> <s_m_source_file>
BACE_10.smi

> <i_m_source_file_index>
1

> <i_lp_mmshare_version>
42013

> <i_f3d_flags>
0

> <s_epik_input>
W05IXTFbQ0gyXVtDSDJdW0NIMl1bQ0gyXU9bQ0gyXVtDSDJdW0NAQEhdKFtDSDNdKVtDSDJdW0NASF0oW05IXUMoPU8pYyhbY0hdMilbY0hdYyhbY0hdYzEyKVtDSDJdT1tDSDNdKVtDQEhdKFtPSF0pW0NIMl1bTkhdW0NIMl1jM1tjSF1bY0hdW2NIXWMoW2NIXTMpW0NIXShbQ0gzXSlbQ0gzXQ==

> <s_epik_cmdline>
J2VwaWtfcHl0aG9uJywgJy1waCcsICc3LjAnLCAnLXRuJywgJzgnLCAnLW1hJywgJzIwMCcsICctaW1hZScsICc8aW5maWxlLm1hZT4nLCAnLW9tYWUnLCAnPG91dGZpbGUubWFlPic=

> <r_epik_Ionization_Penalty>
  0.0171

> <r_epik_Ionization_Penalty_Charging>
  0.0167

> <r_epik_Ionization_Penalty_Neutral>
  0.0004

> <r_epik_State_Penalty>
  0.0132

> <r_epik_Charging_Adjusted_Penalty>
0.0299522

> <i_epik_Tot_Q>
1

> <i_epik_Tot_abs_Q>
1

> <s_lp_Force_Field>
OPLS_2005

> <r_lp_Energy>
35.5902

> <b_lp_Chiralities_Consistent>
1

> <s_lp_Variant>
BACE_10.smi:1-1

> <chiral flag>
1

> <version>
0

> <r_i_glide_lipo>
-0.737388

> <r_i_glide_hbond>
-0.0549666

> <r_i_glide_metal>
-0

> <r_i_glide_rewards>
0

> <r_i_glide_erotb>
0.445295

> <r_i_glide_esite>
-0.000706045

> <chiral flag>
1

> <s_i_glide_gridfile>
second_dock_grid_2

> <i_i_glide_lignum>
20

> <i_i_glide_rotatable_bonds>
9

> <r_i_docking_score>
-3.74629

> <r_i_glide_ligand_efficiency>
-0.0985866

> <r_i_glide_ligand_efficiency_sa>
-0.331446

> <r_i_glide_ligand_efficiency_ln>
-0.807811

> <r_glide_XP_GScore>
-3.75949

> <r_i_glide_gscore>
-3.75949

> <r_i_glide_evdw>
-38.4642

> <r_i_glide_ecoul>
-11.7704

> <r_i_glide_energy>
-50.2346

> <r_i_glide_einternal>
4.50035

> <r_i_glide_emodel>
-66.3817

> <r_glide_XP_HBond>
-0.7

> <i_i_glide_confnum>
1

> <i_i_glide_posenum>
5

> <r_i_glide_eff_state_penalty>
0.0132

> <i_glide_XP_PoseRank>
2

$$$$
BACE_10.smi:1
                    3D
 Structure written by MMmdl.
 86 88  0  0  1  0            999 V2000
   21.0389   38.5598   -7.2983 C   0  0  0  0  0  0
   20.3683   39.4110   -8.3911 C   0  0  2  0  0  0
   19.6497   38.5111   -9.4256 C   0  0  0  0  0  0
   18.3400   37.8999   -8.9113 C   0  0  0  0  0  0
   17.5082   38.9713   -8.5089 O   0  0  0  0  0  0
   16.1924   38.5846   -8.1538 C   0  0  0  0  0  0
   15.5978   39.6384   -7.2136 C   0  0  0  0  0  0
   15.7817   41.0793   -7.7105 C   0  0  0  0  0  0
   15.1359   41.3373   -9.0764 C   0  0  0  0  0  0
   15.3648   42.7003   -9.5282 N   0  0  0  0  0  0
   16.4366   43.0469  -10.3611 C   0  0  0  0  0  0
   16.3987   44.3307  -10.9351 C   0  0  0  0  0  0
   17.3984   44.7514  -11.8308 C   0  0  0  0  0  0
   18.4489   43.8692  -12.1538 C   0  0  0  0  0  0
   18.5191   42.5860  -11.5761 C   0  0  0  0  0  0
   17.5115   42.1754  -10.6716 C   0  0  0  0  0  0
   19.5950   41.6449  -12.0387 C   0  0  0  0  0  0
   19.6610   41.3502  -13.2273 O   0  0  0  0  0  0
   20.4933   41.1577  -11.1672 N   0  0  0  0  0  0
   20.7975   41.5827   -9.8001 C   0  0  1  0  0  0
   21.4002   40.3781   -9.0208 C   0  0  0  0  0  0
   21.7641   42.8102   -9.7880 C   0  0  1  0  0  0
   22.8649   42.8668  -10.8800 C   0  0  0  0  0  0
   23.8189   41.7395  -10.7989 N   0  3  0  0  0  0
   24.8425   41.7830   -9.7313 C   0  0  0  0  0  0
   25.9664   42.7504  -10.0559 C   0  0  0  0  0  0
   25.8860   44.0957   -9.6390 C   0  0  0  0  0  0
   26.9249   44.9936   -9.9474 C   0  0  0  0  0  0
   28.0555   44.5463  -10.6547 C   0  0  0  0  0  0
   28.1630   43.1997  -11.0585 C   0  0  0  0  0  0
   27.1111   42.3019  -10.7536 C   0  0  0  0  0  0
   29.4244   42.7383  -11.7819 C   0  0  0  0  0  0
   29.1531   41.7361  -12.9144 C   0  0  0  0  0  0
   30.4594   42.1976  -10.7857 C   0  0  0  0  0  0
   21.0032   43.9982   -9.8798 O   0  0  0  0  0  0
   17.2895   46.1184  -12.4810 C   0  0  0  0  0  0
   18.4791   46.5531  -13.1229 O   0  0  0  0  0  0
   19.4565   47.0529  -12.2192 C   0  0  0  0  0  0
   19.6261   40.0317   -7.8877 H   0  0  0  0  0  0
   19.8785   41.8656   -9.2816 H   0  0  0  0  0  0
   22.2388   42.8808   -8.8064 H   0  0  0  0  0  0
   21.8300   37.9353   -7.7150 H   0  0  0  0  0  0
   20.3185   37.9098   -6.8039 H   0  0  0  0  0  0
   21.4837   39.1836   -6.5218 H   0  0  0  0  0  0
   19.3859   39.0787  -10.3133 H   0  0  0  0  0  0
   20.3214   37.7239   -9.7672 H   0  0  0  0  0  0
   17.8590   37.3252   -9.7042 H   0  0  0  0  0  0
   18.5124   37.2235   -8.0733 H   0  0  0  0  0  0
   15.5916   38.4623   -9.0560 H   0  0  0  0  0  0
   16.1977   37.6320   -7.6416 H   0  0  0  0  0  0
   14.5403   39.4292   -7.0476 H   0  0  0  0  0  0
   16.0718   39.5475   -6.2354 H   0  0  0  0  0  0
   15.3477   41.7500   -6.9705 H   0  0  0  0  0  0
   16.8446   41.3216   -7.7455 H   0  0  0  0  0  0
   15.4836   40.6319   -9.8287 H   0  0  0  0  0  0
   14.0602   41.1810   -8.9997 H   0  0  0  0  0  0
   14.6429   43.3768   -9.3292 H   0  0  0  0  0  0
   15.5824   44.9987  -10.7055 H   0  0  0  0  0  0
   19.2165   44.1785  -12.8444 H   0  0  0  0  0  0
   17.5548   41.1781  -10.2494 H   0  0  0  0  0  0
   21.0995   40.4486  -11.5533 H   0  0  0  0  0  0
   22.0029   40.7713   -8.2025 H   0  0  0  0  0  0
   22.0980   39.8143   -9.6430 H   0  0  0  0  0  0
   22.4109   42.8579  -11.8695 H   0  0  0  0  0  0
   23.4092   43.8106  -10.8247 H   0  0  0  0  0  0
   23.2870   40.8892  -10.6805 H   0  0  0  0  0  0
   24.3971   42.0283   -8.7670 H   0  0  0  0  0  0
   25.2621   40.7819   -9.6235 H   0  0  0  0  0  0
   25.0282   44.4460   -9.0824 H   0  0  0  0  0  0
   26.8592   46.0253   -9.6327 H   0  0  0  0  0  0
   28.8506   45.2423  -10.8760 H   0  0  0  0  0  0
   27.1806   41.2626  -11.0414 H   0  0  0  0  0  0
   29.8629   43.6218  -12.2471 H   0  0  0  0  0  0
   28.4574   42.1519  -13.6415 H   0  0  0  0  0  0
   28.7444   40.7942  -12.5439 H   0  0  0  0  0  0
   30.0734   41.4940  -13.4485 H   0  0  0  0  0  0
   30.7432   42.9559  -10.0541 H   0  0  0  0  0  0
   31.3639   41.8705  -11.3005 H   0  0  0  0  0  0
   30.0585   41.3501  -10.2426 H   0  0  0  0  0  0
   20.3566   43.9990   -9.1902 H   0  0  0  0  0  0
   16.5061   46.0618  -13.2370 H   0  0  0  0  0  0
   16.9606   46.8585  -11.7444 H   0  0  0  0  0  0
   20.3535   47.3350  -12.7719 H   0  0  0  0  0  0
   19.7423   46.3079  -11.4754 H   0  0  0  0  0  0
   19.0919   47.9396  -11.6988 H   0  0  0  0  0  0
   24.2852   41.6504  -11.6988 H   0  0  0  0  0  0
  1  2  1  0  0  0
  1 42  1  0  0  0
  1 43  1  0  0  0
  1 44  1  0  0  0
  2 39  1  0  0  0
  2 21  1  0  0  0
  2  3  1  0  0  0
  3  4  1  0  0  0
  3 45  1  0  0  0
  3 46  1  0  0  0
  4  5  1  0  0  0
  4 47  1  0  0  0
  4 48  1  0  0  0
  5  6  1  0  0  0
  6  7  1  0  0  0
  6 49  1  0  0  0
  6 50  1  0  0  0
  7  8  1  0  0  0
  7 51  1  0  0  0
  7 52  1  0  0  0
  8  9  1  0  0  0
  8 53  1  0  0  0
  8 54  1  0  0  0
  9 10  1  0  0  0
  9 55  1  0  0  0
  9 56  1  0  0  0
 10 11  1  0  0  0
 10 57  1  0  0  0
 11 16  1  0  0  0
 11 12  2  0  0  0
 12 13  1  0  0  0
 12 58  1  0  0  0
 13 14  2  0  0  0
 13 36  1  0  0  0
 14 15  1  0  0  0
 14 59  1  0  0  0
 15 16  2  0  0  0
 15 17  1  0  0  0
 16 60  1  0  0  0
 17 18  2  0  0  0
 17 19  1  0  0  0
 19 20  1  0  0  0
 19 61  1  0  0  0
 20 40  1  0  0  0
 20 21  1  0  0  0
 20 22  1  0  0  0
 21 62  1  0  0  0
 21 63  1  0  0  0
 22 41  1  0  0  0
 22 23  1  0  0  0
 22 35  1  0  0  0
 23 24  1  0  0  0
 23 64  1  0  0  0
 23 65  1  0  0  0
 24 25  1  0  0  0
 24 66  1  0  0  0
 24 86  1  0  0  0
 25 26  1  0  0  0
 25 67  1  0  0  0
 25 68  1  0  0  0
 26 31  1  0  0  0
 26 27  2  0  0  0
 27 28  1  0  0  0
 27 69  1  0  0  0
 28 29  2  0  0  0
 28 70  1  0  0  0
 29 30  1  0  0  0
 29 71  1  0  0  0
 30 31  2  0  0  0
 30 32  1  0  0  0
 31 72  1  0  0  0
 32 33  1  0  0  0
 32 34  1  0  0  0
 32 73  1  0  0  0
 33 74  1  0  0  0
 33 75  1  0  0  0
 33 76  1  0  0  0
 34 77  1  0  0  0
 34 78  1  0  0  0
 34 79  1  0  0  0
 35 80  1  0  0  0
 36 37  1  0  0  0
 36 81  1  0  0  0
 36 82  1  0  0  0
 37 38  1  0  0  0
 38 83  1  0  0  0
 38 84  1  0  0  0
 38 85  1  0  0  0
M  CHG  1  24   1
M  END
> <s_m_source_file>
BACE_10.smi

> <i_m_source_file_index>
1

> <i_lp_mmshare_version>
42013

> <i_f3d_flags>
0

> <s_epik_input>
W05IXTFbQ0gyXVtDSDJdW0NIMl1bQ0gyXU9bQ0gyXVtDSDJdW0NAQEhdKFtDSDNdKVtDSDJdW0NASF0oW05IXUMoPU8pYyhbY0hdMilbY0hdYyhbY0hdYzEyKVtDSDJdT1tDSDNdKVtDQEhdKFtPSF0pW0NIMl1bTkhdW0NIMl1jM1tjSF1bY0hdW2NIXWMoW2NIXTMpW0NIXShbQ0gzXSlbQ0gzXQ==

> <s_epik_cmdline>
J2VwaWtfcHl0aG9uJywgJy1waCcsICc3LjAnLCAnLXRuJywgJzgnLCAnLW1hJywgJzIwMCcsICctaW1hZScsICc8aW5maWxlLm1hZT4nLCAnLW9tYWUnLCAnPG91dGZpbGUubWFlPic=

> <r_epik_Ionization_Penalty>
  0.0171

> <r_epik_Ionization_Penalty_Charging>
  0.0167

> <r_epik_Ionization_Penalty_Neutral>
  0.0004

> <r_epik_State_Penalty>
  0.0132

> <r_epik_Charging_Adjusted_Penalty>
0.0299522

> <i_epik_Tot_Q>
1

> <i_epik_Tot_abs_Q>
1

> <s_lp_Force_Field>
OPLS_2005

> <r_lp_Energy>
35.5902

> <b_lp_Chiralities_Consistent>
1

> <s_lp_Variant>
BACE_10.smi:1-1

> <chiral flag>
1

> <version>
0

> <r_i_glide_lipo>
-0.737388

> <r_i_glide_hbond>
-0.0549666

> <r_i_glide_metal>
-0

> <r_i_glide_rewards>
0

> <r_i_glide_erotb>
0.445295

> <r_i_glide_esite>
-0.000706045

> <chiral flag>
1

> <s_i_glide_gridfile>
second_dock_grid_2

> <i_i_glide_lignum>
20

> <i_i_glide_rotatable_bonds>
9

> <r_i_docking_score>
-3.17277

> <r_i_glide_ligand_efficiency>
-0.0834941

> <r_i_glide_ligand_efficiency_sa>
-0.280705

> <r_i_glide_ligand_efficiency_ln>
-0.684143

> <r_glide_XP_GScore>
-3.18597

> <r_i_glide_gscore>
-3.18597

> <r_i_glide_evdw>
-38.1146

> <r_i_glide_ecoul>
-11.1111

> <r_i_glide_energy>
-49.2257

> <r_i_glide_einternal>
3.9544

> <r_i_glide_emodel>
-66.8672

> <r_glide_XP_HBond>
-0.7

> <i_i_glide_confnum>
1

> <i_i_glide_posenum>
3

> <r_i_glide_eff_state_penalty>
0.0132

> <i_glide_XP_PoseRank>
3

$$$$
BACE_10.smi:1
                    3D
 Structure written by MMmdl.
 86 88  0  0  1  0            999 V2000
   20.7010   38.4600   -7.2326 C   0  0  0  0  0  0
   20.0551   39.3164   -8.3361 C   0  0  2  0  0  0
   19.3258   38.4233   -9.3729 C   0  0  0  0  0  0
   17.9794   37.8711   -8.8794 C   0  0  0  0  0  0
   17.1823   38.9856   -8.5218 O   0  0  0  0  0  0
   15.8397   38.6718   -8.1982 C   0  0  0  0  0  0
   15.2617   39.8000   -7.3357 C   0  0  0  0  0  0
   15.5058   41.1992   -7.9184 C   0  0  0  0  0  0
   14.8911   41.3921   -9.3076 C   0  0  0  0  0  0
   15.1419   42.7339   -9.8064 N   0  0  0  0  0  0
   16.3037   43.0734  -10.5148 C   0  0  0  0  0  0
   16.4039   44.4069  -10.9511 C   0  0  0  0  0  0
   17.4718   44.8227  -11.7669 C   0  0  0  0  0  0
   18.4601   43.8912  -12.1407 C   0  0  0  0  0  0
   18.4269   42.5711  -11.6386 C   0  0  0  0  0  0
   17.3407   42.1604  -10.8290 C   0  0  0  0  0  0
   19.4913   41.5986  -12.0522 C   0  0  0  0  0  0
   19.6601   41.3497  -13.2399 O   0  0  0  0  0  0
   20.2720   41.0191  -11.1289 N   0  0  0  0  0  0
   20.5621   41.4645   -9.7672 C   0  0  1  0  0  0
   21.1139   40.2614   -8.9529 C   0  0  0  0  0  0
   21.5765   42.6577   -9.7715 C   0  0  1  0  0  0
   22.6535   42.6809  -10.8889 C   0  0  0  0  0  0
   23.5786   41.5264  -10.8396 N   0  3  0  0  0  0
   24.6115   41.5399   -9.7781 C   0  0  0  0  0  0
   25.7186   42.5439  -10.0397 C   0  0  0  0  0  0
   25.6105   43.8578   -9.5392 C   0  0  0  0  0  0
   26.6457   44.7848   -9.7562 C   0  0  0  0  0  0
   27.7983   44.3996  -10.4643 C   0  0  0  0  0  0
   27.9274   43.0841  -10.9580 C   0  0  0  0  0  0
   26.8816   42.1570  -10.7418 C   0  0  0  0  0  0
   29.2050   42.6857  -11.6887 C   0  0  0  0  0  0
   28.9271   41.9447  -13.0046 C   0  0  0  0  0  0
   30.1357   41.8781  -10.7748 C   0  0  0  0  0  0
   20.8575   43.8705   -9.8429 O   0  0  0  0  0  0
   17.5657   46.2667  -12.2256 C   0  0  0  0  0  0
   16.6252   46.5816  -13.2399 O   0  0  0  0  0  0
   15.4392   47.2099  -12.7846 C   0  0  0  0  0  0
   19.3191   39.9549   -7.8449 H   0  0  0  0  0  0
   19.6421   41.7856   -9.2751 H   0  0  0  0  0  0
   22.0728   42.7119   -8.8026 H   0  0  0  0  0  0
   21.5347   37.8769   -7.6250 H   0  0  0  0  0  0
   19.9895   37.7636   -6.7876 H   0  0  0  0  0  0
   21.0859   39.0831   -6.4241 H   0  0  0  0  0  0
   19.0998   38.9845  -10.2752 H   0  0  0  0  0  0
   19.9750   37.6037   -9.6854 H   0  0  0  0  0  0
   17.4969   37.3008   -9.6756 H   0  0  0  0  0  0
   18.1071   37.2051   -8.0242 H   0  0  0  0  0  0
   15.2619   38.5289   -9.1125 H   0  0  0  0  0  0
   15.7799   37.7449   -7.6398 H   0  0  0  0  0  0
   14.1944   39.6329   -7.1806 H   0  0  0  0  0  0
   15.7152   39.7546   -6.3435 H   0  0  0  0  0  0
   15.0849   41.9393   -7.2401 H   0  0  0  0  0  0
   16.5791   41.3995   -7.9500 H   0  0  0  0  0  0
   15.2540   40.6495  -10.0182 H   0  0  0  0  0  0
   13.8116   41.2464   -9.2438 H   0  0  0  0  0  0
   14.4796   43.4512   -9.5536 H   0  0  0  0  0  0
   15.6409   45.1151  -10.6669 H   0  0  0  0  0  0
   19.2595   44.1996  -12.8031 H   0  0  0  0  0  0
   17.3045   41.1370  -10.4840 H   0  0  0  0  0  0
   20.8467   40.2689  -11.4805 H   0  0  0  0  0  0
   21.6961   40.6567   -8.1191 H   0  0  0  0  0  0
   21.8250   39.6813   -9.5419 H   0  0  0  0  0  0
   22.1830   42.6920  -11.8717 H   0  0  0  0  0  0
   23.2241   43.6073  -10.8467 H   0  0  0  0  0  0
   23.0264   40.6923  -10.7177 H   0  0  0  0  0  0
   24.1636   41.7158   -8.8007 H   0  0  0  0  0  0
   25.0630   40.5501   -9.7243 H   0  0  0  0  0  0
   24.7354   44.1610   -8.9837 H   0  0  0  0  0  0
   26.5581   45.7916   -9.3726 H   0  0  0  0  0  0
   28.5913   45.1174  -10.6128 H   0  0  0  0  0  0
   26.9763   41.1398  -11.0979 H   0  0  0  0  0  0
   29.7303   43.6038  -11.9548 H   0  0  0  0  0  0
   28.2700   42.5375  -13.6399 H   0  0  0  0  0  0
   28.4602   40.9752  -12.8382 H   0  0  0  0  0  0
   29.8497   41.7639  -13.5579 H   0  0  0  0  0  0
   30.3866   42.4405   -9.8747 H   0  0  0  0  0  0
   31.0672   41.6296  -11.2815 H   0  0  0  0  0  0
   29.6616   40.9481  -10.4768 H   0  0  0  0  0  0
   20.2259   43.8976   -9.1374 H   0  0  0  0  0  0
   17.4810   46.9374  -11.3692 H   0  0  0  0  0  0
   18.5600   46.4344  -12.6387 H   0  0  0  0  0  0
   14.8105   47.4499  -13.6420 H   0  0  0  0  0  0
   15.6624   48.1416  -12.2625 H   0  0  0  0  0  0
   14.8596   46.5650  -12.1256 H   0  0  0  0  0  0
   24.0447   41.4301  -11.7409 H   0  0  0  0  0  0
  1  2  1  0  0  0
  1 42  1  0  0  0
  1 43  1  0  0  0
  1 44  1  0  0  0
  2 39  1  0  0  0
  2 21  1  0  0  0
  2  3  1  0  0  0
  3  4  1  0  0  0
  3 45  1  0  0  0
  3 46  1  0  0  0
  4  5  1  0  0  0
  4 47  1  0  0  0
  4 48  1  0  0  0
  5  6  1  0  0  0
  6  7  1  0  0  0
  6 49  1  0  0  0
  6 50  1  0  0  0
  7  8  1  0  0  0
  7 51  1  0  0  0
  7 52  1  0  0  0
  8  9  1  0  0  0
  8 53  1  0  0  0
  8 54  1  0  0  0
  9 10  1  0  0  0
  9 55  1  0  0  0
  9 56  1  0  0  0
 10 11  1  0  0  0
 10 57  1  0  0  0
 11 16  1  0  0  0
 11 12  2  0  0  0
 12 13  1  0  0  0
 12 58  1  0  0  0
 13 14  2  0  0  0
 13 36  1  0  0  0
 14 15  1  0  0  0
 14 59  1  0  0  0
 15 16  2  0  0  0
 15 17  1  0  0  0
 16 60  1  0  0  0
 17 18  2  0  0  0
 17 19  1  0  0  0
 19 20  1  0  0  0
 19 61  1  0  0  0
 20 40  1  0  0  0
 20 21  1  0  0  0
 20 22  1  0  0  0
 21 62  1  0  0  0
 21 63  1  0  0  0
 22 41  1  0  0  0
 22 23  1  0  0  0
 22 35  1  0  0  0
 23 24  1  0  0  0
 23 64  1  0  0  0
 23 65  1  0  0  0
 24 25  1  0  0  0
 24 66  1  0  0  0
 24 86  1  0  0  0
 25 26  1  0  0  0
 25 67  1  0  0  0
 25 68  1  0  0  0
 26 31  1  0  0  0
 26 27  2  0  0  0
 27 28  1  0  0  0
 27 69  1  0  0  0
 28 29  2  0  0  0
 28 70  1  0  0  0
 29 30  1  0  0  0
 29 71  1  0  0  0
 30 31  2  0  0  0
 30 32  1  0  0  0
 31 72  1  0  0  0
 32 33  1  0  0  0
 32 34  1  0  0  0
 32 73  1  0  0  0
 33 74  1  0  0  0
 33 75  1  0  0  0
 33 76  1  0  0  0
 34 77  1  0  0  0
 34 78  1  0  0  0
 34 79  1  0  0  0
 35 80  1  0  0  0
 36 37  1  0  0  0
 36 81  1  0  0  0
 36 82  1  0  0  0
 37 38  1  0  0  0
 38 83  1  0  0  0
 38 84  1  0  0  0
 38 85  1  0  0  0
M  CHG  1  24   1
M  END
> <s_m_source_file>
BACE_10.smi

> <i_m_source_file_index>
1

> <i_lp_mmshare_version>
42013

> <i_f3d_flags>
0

> <s_epik_input>
W05IXTFbQ0gyXVtDSDJdW0NIMl1bQ0gyXU9bQ0gyXVtDSDJdW0NAQEhdKFtDSDNdKVtDSDJdW0NASF0oW05IXUMoPU8pYyhbY0hdMilbY0hdYyhbY0hdYzEyKVtDSDJdT1tDSDNdKVtDQEhdKFtPSF0pW0NIMl1bTkhdW0NIMl1jM1tjSF1bY0hdW2NIXWMoW2NIXTMpW0NIXShbQ0gzXSlbQ0gzXQ==

> <s_epik_cmdline>
J2VwaWtfcHl0aG9uJywgJy1waCcsICc3LjAnLCAnLXRuJywgJzgnLCAnLW1hJywgJzIwMCcsICctaW1hZScsICc8aW5maWxlLm1hZT4nLCAnLW9tYWUnLCAnPG91dGZpbGUubWFlPic=

> <r_epik_Ionization_Penalty>
  0.0171

> <r_epik_Ionization_Penalty_Charging>
  0.0167

> <r_epik_Ionization_Penalty_Neutral>
  0.0004

> <r_epik_State_Penalty>
  0.0132

> <r_epik_Charging_Adjusted_Penalty>
0.0299522

> <i_epik_Tot_Q>
1

> <i_epik_Tot_abs_Q>
1

> <s_lp_Force_Field>
OPLS_2005

> <r_lp_Energy>
35.5902

> <b_lp_Chiralities_Consistent>
1

> <s_lp_Variant>
BACE_10.smi:1-1

> <chiral flag>
1

> <version>
0

> <r_i_glide_lipo>
-0.737388

> <r_i_glide_hbond>
-0.0549666

> <r_i_glide_metal>
-0

> <r_i_glide_rewards>
0

> <r_i_glide_erotb>
0.445295

> <r_i_glide_esite>
-0.000706045

> <chiral flag>
1

> <s_i_glide_gridfile>
second_dock_grid_2

> <i_i_glide_lignum>
20

> <i_i_glide_rotatable_bonds>
9

> <r_i_docking_score>
-3.14153

> <r_i_glide_ligand_efficiency>
-0.082672

> <r_i_glide_ligand_efficiency_sa>
-0.277941

> <r_i_glide_ligand_efficiency_ln>
-0.677407

> <r_glide_XP_GScore>
-3.15473

> <r_i_glide_gscore>
-3.15473

> <r_i_glide_evdw>
-38.3318

> <r_i_glide_ecoul>
-13.2465

> <r_i_glide_energy>
-51.5783

> <r_i_glide_einternal>
3.8433

> <r_i_glide_emodel>
-69.7763

> <r_glide_XP_HBond>
-0.7

> <i_i_glide_confnum>
1

> <i_i_glide_posenum>
9

> <r_i_glide_eff_state_penalty>
0.0132

> <i_glide_XP_PoseRank>
4

$$$$
BACE_10.smi:1
                    3D
 Structure written by MMmdl.
 86 88  0  0  1  0            999 V2000
   20.4445   38.7804   -6.9980 C   0  0  0  0  0  0
   19.8621   39.5060   -8.2246 C   0  0  2  0  0  0
   19.2795   38.4880   -9.2379 C   0  0  0  0  0  0
   17.9300   37.8976   -8.8036 C   0  0  0  0  0  0
   17.0552   38.9916   -8.6107 O   0  0  0  0  0  0
   15.7307   38.6412   -8.2589 C   0  0  0  0  0  0
   15.1190   39.8104   -7.4756 C   0  0  0  0  0  0
   15.3058   41.1781   -8.1540 C   0  0  0  0  0  0
   14.7202   41.2350   -9.5727 C   0  0  0  0  0  0
   14.8689   42.5526  -10.1730 N   0  0  0  0  0  0
   16.0425   42.9516  -10.8281 C   0  0  0  0  0  0
   16.0775   44.2597  -11.3491 C   0  0  0  0  0  0
   17.1918   44.7162  -12.0789 C   0  0  0  0  0  0
   18.2878   43.8554  -12.2820 C   0  0  0  0  0  0
   18.2805   42.5497  -11.7500 C   0  0  0  0  0  0
   17.1609   42.1014  -11.0159 C   0  0  0  0  0  0
   19.4072   41.6139  -12.0704 C   0  0  0  0  0  0
   19.6602   41.3500  -13.2400 O   0  0  0  0  0  0
   20.1281   41.0681  -11.0820 N   0  0  0  0  0  0
   20.3612   41.5981   -9.7394 C   0  0  1  0  0  0
   20.9161   40.4624   -8.8318 C   0  0  0  0  0  0
   21.3425   42.8190   -9.7824 C   0  0  1  0  0  0
   22.4422   42.8197  -10.8809 C   0  0  0  0  0  0
   23.3046   41.6206  -10.8387 N   0  3  0  0  0  0
   24.2898   41.5825   -9.7360 C   0  0  0  0  0  0
   25.5938   42.2540  -10.1056 C   0  0  0  0  0  0
   26.5435   41.5586  -10.8803 C   0  0  0  0  0  0
   27.7756   42.1597  -11.1955 C   0  0  0  0  0  0
   28.0646   43.4574  -10.7319 C   0  0  0  0  0  0
   27.1217   44.1621   -9.9522 C   0  0  0  0  0  0
   25.8847   43.5541   -9.6428 C   0  0  0  0  0  0
   27.4493   45.5569   -9.4359 C   0  0  0  0  0  0
   27.5740   45.5731   -7.9042 C   0  0  0  0  0  0
   26.4374   46.6002   -9.9337 C   0  0  0  0  0  0
   20.5943   44.0095   -9.9186 O   0  0  0  0  0  0
   17.2215   46.1316  -12.6264 C   0  0  0  0  0  0
   15.9396   46.5695  -13.0575 O   0  0  0  0  0  0
   15.9719   47.8787  -13.5986 C   0  0  0  0  0  0
   19.0541   40.1376   -7.8515 H   0  0  0  0  0  0
   19.4161   41.9233   -9.3010 H   0  0  0  0  0  0
   21.8188   42.9275   -8.8081 H   0  0  0  0  0  0
   21.2902   38.1494   -7.2712 H   0  0  0  0  0  0
   19.6994   38.1491   -6.5142 H   0  0  0  0  0  0
   20.7899   39.4891   -6.2453 H   0  0  0  0  0  0
   19.1077   38.9550  -10.2033 H   0  0  0  0  0  0
   19.9963   37.6868   -9.4192 H   0  0  0  0  0  0
   17.5390   37.2349   -9.5772 H   0  0  0  0  0  0
   18.0258   37.3166   -7.8854 H   0  0  0  0  0  0
   15.1598   38.4147   -9.1597 H   0  0  0  0  0  0
   15.7068   37.7498   -7.6400 H   0  0  0  0  0  0
   14.0599   39.6162   -7.3082 H   0  0  0  0  0  0
   15.5712   39.8493   -6.4834 H   0  0  0  0  0  0
   14.8368   41.9399   -7.5295 H   0  0  0  0  0  0
   16.3668   41.4262   -8.1803 H   0  0  0  0  0  0
   15.1622   40.4762  -10.2174 H   0  0  0  0  0  0
   13.6594   40.9984   -9.5358 H   0  0  0  0  0  0
   14.1280   43.2187  -10.0157 H   0  0  0  0  0  0
   15.2352   44.9207  -11.2023 H   0  0  0  0  0  0
   19.1447   44.2034  -12.8398 H   0  0  0  0  0  0
   17.1623   41.0909  -10.6332 H   0  0  0  0  0  0
   20.7198   40.3034  -11.3678 H   0  0  0  0  0  0
   21.4287   40.9297   -7.9905 H   0  0  0  0  0  0
   21.6826   39.8826   -9.3470 H   0  0  0  0  0  0
   21.9893   42.8733  -11.8713 H   0  0  0  0  0  0
   23.0651   43.7118  -10.7946 H   0  0  0  0  0  0
   22.7034   40.8174  -10.7382 H   0  0  0  0  0  0
   23.8861   42.0036   -8.8152 H   0  0  0  0  0  0
   24.5114   40.5469   -9.5056 H   0  0  0  0  0  0
   26.3392   40.5572  -11.2340 H   0  0  0  0  0  0
   28.5025   41.6187  -11.7858 H   0  0  0  0  0  0
   29.0163   43.9068  -10.9727 H   0  0  0  0  0  0
   25.1653   44.0826   -9.0350 H   0  0  0  0  0  0
   28.4229   45.8396   -9.8393 H   0  0  0  0  0  0
   28.3390   44.8725   -7.5678 H   0  0  0  0  0  0
   26.6367   45.2977   -7.4200 H   0  0  0  0  0  0
   27.8548   46.5626   -7.5436 H   0  0  0  0  0  0
   26.3894   46.6065  -11.0242 H   0  0  0  0  0  0
   26.7189   47.6023   -9.6119 H   0  0  0  0  0  0
   25.4329   46.4031   -9.5579 H   0  0  0  0  0  0
   19.9580   44.0555   -9.2186 H   0  0  0  0  0  0
   17.5975   46.7950  -11.8454 H   0  0  0  0  0  0
   17.9274   46.1800  -13.4572 H   0  0  0  0  0  0
   14.9718   48.1668  -13.9232 H   0  0  0  0  0  0
   16.6323   47.9305  -14.4646 H   0  0  0  0  0  0
   16.3095   48.6041  -12.8572 H   0  0  0  0  0  0
   23.7939   41.5117  -11.7246 H   0  0  0  0  0  0
  1  2  1  0  0  0
  1 42  1  0  0  0
  1 43  1  0  0  0
  1 44  1  0  0  0
  2 39  1  0  0  0
  2 21  1  0  0  0
  2  3  1  0  0  0
  3  4  1  0  0  0
  3 45  1  0  0  0
  3 46  1  0  0  0
  4  5  1  0  0  0
  4 47  1  0  0  0
  4 48  1  0  0  0
  5  6  1  0  0  0
  6  7  1  0  0  0
  6 49  1  0  0  0
  6 50  1  0  0  0
  7  8  1  0  0  0
  7 51  1  0  0  0
  7 52  1  0  0  0
  8  9  1  0  0  0
  8 53  1  0  0  0
  8 54  1  0  0  0
  9 10  1  0  0  0
  9 55  1  0  0  0
  9 56  1  0  0  0
 10 11  1  0  0  0
 10 57  1  0  0  0
 11 16  1  0  0  0
 11 12  2  0  0  0
 12 13  1  0  0  0
 12 58  1  0  0  0
 13 14  2  0  0  0
 13 36  1  0  0  0
 14 15  1  0  0  0
 14 59  1  0  0  0
 15 16  2  0  0  0
 15 17  1  0  0  0
 16 60  1  0  0  0
 17 18  2  0  0  0
 17 19  1  0  0  0
 19 20  1  0  0  0
 19 61  1  0  0  0
 20 40  1  0  0  0
 20 21  1  0  0  0
 20 22  1  0  0  0
 21 62  1  0  0  0
 21 63  1  0  0  0
 22 41  1  0  0  0
 22 23  1  0  0  0
 22 35  1  0  0  0
 23 24  1  0  0  0
 23 64  1  0  0  0
 23 65  1  0  0  0
 24 25  1  0  0  0
 24 66  1  0  0  0
 24 86  1  0  0  0
 25 26  1  0  0  0
 25 67  1  0  0  0
 25 68  1  0  0  0
 26 31  1  0  0  0
 26 27  2  0  0  0
 27 28  1  0  0  0
 27 69  1  0  0  0
 28 29  2  0  0  0
 28 70  1  0  0  0
 29 30  1  0  0  0
 29 71  1  0  0  0
 30 31  2  0  0  0
 30 32  1  0  0  0
 31 72  1  0  0  0
 32 33  1  0  0  0
 32 34  1  0  0  0
 32 73  1  0  0  0
 33 74  1  0  0  0
 33 75  1  0  0  0
 33 76  1  0  0  0
 34 77  1  0  0  0
 34 78  1  0  0  0
 34 79  1  0  0  0
 35 80  1  0  0  0
 36 37  1  0  0  0
 36 81  1  0  0  0
 36 82  1  0  0  0
 37 38  1  0  0  0
 38 83  1  0  0  0
 38 84  1  0  0  0
 38 85  1  0  0  0
M  CHG  1  24   1
M  END
> <s_m_source_file>
BACE_10.smi

> <i_m_source_file_index>
1

> <i_lp_mmshare_version>
42013

> <i_f3d_flags>
0

> <s_epik_input>
W05IXTFbQ0gyXVtDSDJdW0NIMl1bQ0gyXU9bQ0gyXVtDSDJdW0NAQEhdKFtDSDNdKVtDSDJdW0NASF0oW05IXUMoPU8pYyhbY0hdMilbY0hdYyhbY0hdYzEyKVtDSDJdT1tDSDNdKVtDQEhdKFtPSF0pW0NIMl1bTkhdW0NIMl1jM1tjSF1bY0hdW2NIXWMoW2NIXTMpW0NIXShbQ0gzXSlbQ0gzXQ==

> <s_epik_cmdline>
J2VwaWtfcHl0aG9uJywgJy1waCcsICc3LjAnLCAnLXRuJywgJzgnLCAnLW1hJywgJzIwMCcsICctaW1hZScsICc8aW5maWxlLm1hZT4nLCAnLW9tYWUnLCAnPG91dGZpbGUubWFlPic=

> <r_epik_Ionization_Penalty>
  0.0171

> <r_epik_Ionization_Penalty_Charging>
  0.0167

> <r_epik_Ionization_Penalty_Neutral>
  0.0004

> <r_epik_State_Penalty>
  0.0132

> <r_epik_Charging_Adjusted_Penalty>
0.0299522

> <i_epik_Tot_Q>
1

> <i_epik_Tot_abs_Q>
1

> <s_lp_Force_Field>
OPLS_2005

> <r_lp_Energy>
35.5902

> <b_lp_Chiralities_Consistent>
1

> <s_lp_Variant>
BACE_10.smi:1-1

> <chiral flag>
1

> <version>
0

> <r_i_glide_lipo>
-0.737388

> <r_i_glide_hbond>
-0.0549666

> <r_i_glide_metal>
-0

> <r_i_glide_rewards>
0

> <r_i_glide_erotb>
0.445295

> <r_i_glide_esite>
-0.000706045

> <chiral flag>
1

> <s_i_glide_gridfile>
second_dock_grid_2

> <i_i_glide_lignum>
20

> <i_i_glide_rotatable_bonds>
9

> <r_i_docking_score>
-3.12849

> <r_i_glide_ligand_efficiency>
-0.0823288

> <r_i_glide_ligand_efficiency_sa>
-0.276787

> <r_i_glide_ligand_efficiency_ln>
-0.674595

> <r_glide_XP_GScore>
-3.14169

> <r_i_glide_gscore>
-3.14169

> <r_i_glide_evdw>
-38.0952

> <r_i_glide_ecoul>
-13.0493

> <r_i_glide_energy>
-51.1445

> <r_i_glide_einternal>
3.49335

> <r_i_glide_emodel>
-67.9044

> <r_glide_XP_HBond>
-0.7

> <i_i_glide_confnum>
1

> <i_i_glide_posenum>
4

> <r_i_glide_eff_state_penalty>
0.0132

> <i_glide_XP_PoseRank>
5

$$$$
BACE_10.smi:1
                    3D
 Structure written by MMmdl.
 86 88  0  0  1  0            999 V2000
   21.2547   38.4987   -7.5065 C   0  0  0  0  0  0
   20.4838   39.4066   -8.4794 C   0  0  2  0  0  0
   19.7377   38.5580   -9.5401 C   0  0  0  0  0  0
   18.4464   37.9164   -9.0170 C   0  0  0  0  0  0
   17.6119   38.9526   -8.5334 O   0  0  0  0  0  0
   16.3172   38.5209   -8.1632 C   0  0  0  0  0  0
   15.6883   39.5451   -7.2085 C   0  0  0  0  0  0
   15.8091   41.0007   -7.6851 C   0  0  0  0  0  0
   15.1521   41.2524   -9.0478 C   0  0  0  0  0  0
   15.3482   42.6242   -9.4892 N   0  0  0  0  0  0
   16.3927   42.9966  -10.3496 C   0  0  0  0  0  0
   16.3130   44.2805  -10.9245 C   0  0  0  0  0  0
   17.2847   44.7191  -11.8449 C   0  0  0  0  0  0
   18.3601   43.8696  -12.1706 C   0  0  0  0  0  0
   18.4731   42.5872  -11.5957 C   0  0  0  0  0  0
   17.4854   42.1524  -10.6790 C   0  0  0  0  0  0
   19.5811   41.6771  -12.0529 C   0  0  0  0  0  0
   19.6600   41.3503  -13.2349 O   0  0  0  0  0  0
   20.5095   41.2397  -11.1924 N   0  0  0  0  0  0
   20.7794   41.6495   -9.8184 C   0  0  1  0  0  0
   21.4459   40.4627   -9.0681 C   0  0  0  0  0  0
   21.6850   42.9203   -9.7833 C   0  0  1  0  0  0
   22.7982   43.0265  -10.8597 C   0  0  0  0  0  0
   23.7579   41.8989  -10.8291 N   0  3  0  0  0  0
   24.7784   41.9084   -9.7638 C   0  0  0  0  0  0
   25.9349   42.8446  -10.0708 C   0  0  0  0  0  0
   25.9083   44.1763   -9.6069 C   0  0  0  0  0  0
   26.9939   45.0330   -9.8624 C   0  0  0  0  0  0
   28.1071   44.5640  -10.5839 C   0  0  0  0  0  0
   28.1466   43.2369  -11.0619 C   0  0  0  0  0  0
   27.0555   42.3762  -10.7937 C   0  0  0  0  0  0
   29.3829   42.7703  -11.8313 C   0  0  0  0  0  0
   29.0667   41.7965  -12.9754 C   0  0  0  0  0  0
   30.4338   42.1763  -10.8895 C   0  0  0  0  0  0
   20.8605   44.0609   -9.8950 O   0  0  0  0  0  0
   17.1794   46.1009  -12.4684 C   0  0  0  0  0  0
   15.8435   46.4241  -12.8280 O   0  0  0  0  0  0
   15.7348   47.7013  -13.4344 C   0  0  0  0  0  0
   19.7511   39.9572   -7.8888 H   0  0  0  0  0  0
   19.8458   41.8674   -9.2965 H   0  0  0  0  0  0
   22.1372   43.0109   -8.7964 H   0  0  0  0  0  0
   22.0117   37.9140   -8.0321 H   0  0  0  0  0  0
   20.5877   37.8038   -6.9963 H   0  0  0  0  0  0
   21.7633   39.0756   -6.7329 H   0  0  0  0  0  0
   19.4409   39.1602  -10.3919 H   0  0  0  0  0  0
   20.3984   37.7882   -9.9399 H   0  0  0  0  0  0
   17.9476   37.3775   -9.8245 H   0  0  0  0  0  0
   18.6533   37.2008   -8.2222 H   0  0  0  0  0  0
   15.7085   38.3747   -9.0540 H   0  0  0  0  0  0
   16.3743   37.5648   -7.6567 H   0  0  0  0  0  0
   14.6405   39.2921   -7.0382 H   0  0  0  0  0  0
   16.1722   39.4597   -6.2338 H   0  0  0  0  0  0
   15.3538   41.6507   -6.9358 H   0  0  0  0  0  0
   16.8619   41.2808   -7.7226 H   0  0  0  0  0  0
   15.5204   40.5599   -9.8034 H   0  0  0  0  0  0
   14.0792   41.0672   -8.9739 H   0  0  0  0  0  0
   14.6196   43.2865   -9.2675 H   0  0  0  0  0  0
   15.4865   44.9313  -10.6728 H   0  0  0  0  0  0
   19.1067   44.2118  -12.8676 H   0  0  0  0  0  0
   17.5633   41.1619  -10.2550 H   0  0  0  0  0  0
   21.1578   40.5779  -11.5922 H   0  0  0  0  0  0
   22.0029   40.8730   -8.2238 H   0  0  0  0  0  0
   22.1922   39.9688   -9.6920 H   0  0  0  0  0  0
   22.3483   43.0585  -11.8544 H   0  0  0  0  0  0
   23.3376   43.9688  -10.7553 H   0  0  0  0  0  0
   23.2247   41.0483  -10.7473 H   0  0  0  0  0  0
   24.3283   42.1574   -8.8011 H   0  0  0  0  0  0
   25.1666   40.8937   -9.6646 H   0  0  0  0  0  0
   25.0625   44.5497   -9.0477 H   0  0  0  0  0  0
   26.9784   46.0502   -9.5002 H   0  0  0  0  0  0
   28.9386   45.2316  -10.7633 H   0  0  0  0  0  0
   27.0764   41.3504  -11.1293 H   0  0  0  0  0  0
   29.8218   43.6572  -12.2943 H   0  0  0  0  0  0
   28.3356   42.2391  -13.6456 H   0  0  0  0  0  0
   28.6720   40.8457  -12.6166 H   0  0  0  0  0  0
   29.9596   41.5685  -13.5596 H   0  0  0  0  0  0
   30.7014   42.8816  -10.1022 H   0  0  0  0  0  0
   31.3436   41.9187  -11.4318 H   0  0  0  0  0  0
   30.0550   41.2670  -10.4306 H   0  0  0  0  0  0
   20.1630   43.9996   -9.2588 H   0  0  0  0  0  0
   17.5617   46.8334  -11.7560 H   0  0  0  0  0  0
   17.8192   46.1451  -13.3495 H   0  0  0  0  0  0
   14.6856   47.9180  -13.6406 H   0  0  0  0  0  0
   16.2773   47.7418  -14.3800 H   0  0  0  0  0  0
   16.1166   48.4867  -12.7786 H   0  0  0  0  0  0
   24.2290   41.8501  -11.7270 H   0  0  0  0  0  0
  1  2  1  0  0  0
  1 42  1  0  0  0
  1 43  1  0  0  0
  1 44  1  0  0  0
  2 39  1  0  0  0
  2 21  1  0  0  0
  2  3  1  0  0  0
  3  4  1  0  0  0
  3 45  1  0  0  0
  3 46  1  0  0  0
  4  5  1  0  0  0
  4 47  1  0  0  0
  4 48  1  0  0  0
  5  6  1  0  0  0
  6  7  1  0  0  0
  6 49  1  0  0  0
  6 50  1  0  0  0
  7  8  1  0  0  0
  7 51  1  0  0  0
  7 52  1  0  0  0
  8  9  1  0  0  0
  8 53  1  0  0  0
  8 54  1  0  0  0
  9 10  1  0  0  0
  9 55  1  0  0  0
  9 56  1  0  0  0
 10 11  1  0  0  0
 10 57  1  0  0  0
 11 16  1  0  0  0
 11 12  2  0  0  0
 12 13  1  0  0  0
 12 58  1  0  0  0
 13 14  2  0  0  0
 13 36  1  0  0  0
 14 15  1  0  0  0
 14 59  1  0  0  0
 15 16  2  0  0  0
 15 17  1  0  0  0
 16 60  1  0  0  0
 17 18  2  0  0  0
 17 19  1  0  0  0
 19 20  1  0  0  0
 19 61  1  0  0  0
 20 40  1  0  0  0
 20 21  1  0  0  0
 20 22  1  0  0  0
 21 62  1  0  0  0
 21 63  1  0  0  0
 22 41  1  0  0  0
 22 23  1  0  0  0
 22 35  1  0  0  0
 23 24  1  0  0  0
 23 64  1  0  0  0
 23 65  1  0  0  0
 24 25  1  0  0  0
 24 66  1  0  0  0
 24 86  1  0  0  0
 25 26  1  0  0  0
 25 67  1  0  0  0
 25 68  1  0  0  0
 26 31  1  0  0  0
 26 27  2  0  0  0
 27 28  1  0  0  0
 27 69  1  0  0  0
 28 29  2  0  0  0
 28 70  1  0  0  0
 29 30  1  0  0  0
 29 71  1  0  0  0
 30 31  2  0  0  0
 30 32  1  0  0  0
 31 72  1  0  0  0
 32 33  1  0  0  0
 32 34  1  0  0  0
 32 73  1  0  0  0
 33 74  1  0  0  0
 33 75  1  0  0  0
 33 76  1  0  0  0
 34 77  1  0  0  0
 34 78  1  0  0  0
 34 79  1  0  0  0
 35 80  1  0  0  0
 36 37  1  0  0  0
 36 81  1  0  0  0
 36 82  1  0  0  0
 37 38  1  0  0  0
 38 83  1  0  0  0
 38 84  1  0  0  0
 38 85  1  0  0  0
M  CHG  1  24   1
M  END
> <s_m_source_file>
BACE_10.smi

> <i_m_source_file_index>
1

> <i_lp_mmshare_version>
42013

> <i_f3d_flags>
0

> <s_epik_input>
W05IXTFbQ0gyXVtDSDJdW0NIMl1bQ0gyXU9bQ0gyXVtDSDJdW0NAQEhdKFtDSDNdKVtDSDJdW0NASF0oW05IXUMoPU8pYyhbY0hdMilbY0hdYyhbY0hdYzEyKVtDSDJdT1tDSDNdKVtDQEhdKFtPSF0pW0NIMl1bTkhdW0NIMl1jM1tjSF1bY0hdW2NIXWMoW2NIXTMpW0NIXShbQ0gzXSlbQ0gzXQ==

> <s_epik_cmdline>
J2VwaWtfcHl0aG9uJywgJy1waCcsICc3LjAnLCAnLXRuJywgJzgnLCAnLW1hJywgJzIwMCcsICctaW1hZScsICc8aW5maWxlLm1hZT4nLCAnLW9tYWUnLCAnPG91dGZpbGUubWFlPic=

> <r_epik_Ionization_Penalty>
  0.0171

> <r_epik_Ionization_Penalty_Charging>
  0.0167

> <r_epik_Ionization_Penalty_Neutral>
  0.0004

> <r_epik_State_Penalty>
  0.0132

> <r_epik_Charging_Adjusted_Penalty>
0.0299522

> <i_epik_Tot_Q>
1

> <i_epik_Tot_abs_Q>
1

> <s_lp_Force_Field>
OPLS_2005

> <r_lp_Energy>
35.5902

> <b_lp_Chiralities_Consistent>
1

> <s_lp_Variant>
BACE_10.smi:1-1

> <chiral flag>
1

> <version>
0

> <r_i_glide_lipo>
-0.737388

> <r_i_glide_hbond>
-0.0549666

> <r_i_glide_metal>
-0

> <r_i_glide_rewards>
0

> <r_i_glide_erotb>
0.445295

> <r_i_glide_esite>
-0.000706045

> <chiral flag>
1

> <s_i_glide_gridfile>
second_dock_grid_2

> <i_i_glide_lignum>
20

> <i_i_glide_rotatable_bonds>
9

> <r_i_docking_score>
-1.69474

> <r_i_glide_ligand_efficiency>
-0.0445984

> <r_i_glide_ligand_efficiency_sa>
-0.149939

> <r_i_glide_ligand_efficiency_ln>
-0.365435

> <r_glide_XP_GScore>
-1.70794

> <r_i_glide_gscore>
-1.70794

> <r_i_glide_evdw>
-38.3196

> <r_i_glide_ecoul>
-11.0237

> <r_i_glide_energy>
-49.3433

> <r_i_glide_einternal>
5.15374

> <r_i_glide_emodel>
-67.0697

> <r_glide_XP_HBond>
-0.7

> <i_i_glide_confnum>
1

> <i_i_glide_posenum>
1

> <r_i_glide_eff_state_penalty>
0.0132

> <i_glide_XP_PoseRank>
6

$$$$
