BACE_18.smi:1
                    3D
 Structure written by MMmdl.
 66 67  0  0  1  0            999 V2000
   15.4983   43.3605   -8.0401 O   0  0  0  0  0  0
   15.9287   42.0793   -8.4463 C   0  0  0  0  0  0
   16.7535   42.1926   -9.7468 C   0  0  2  0  0  0
   15.8473   42.5675  -10.7735 O   0  0  0  0  0  0
   17.4625   40.8793  -10.1824 C   0  0  1  0  0  0
   18.0931   40.9185  -11.5192 N   0  0  0  0  0  0
   19.0870   41.6673  -12.0400 C   0  0  0  0  0  0
   19.6598   41.3473  -13.0792 O   0  0  0  0  0  0
   18.4366   40.3098   -9.1171 C   0  0  0  0  0  0
   19.0663   38.9283   -9.4220 C   0  0  2  0  0  0
   18.0236   37.8976   -9.8901 C   0  0  0  0  0  0
   19.7855   38.3464   -8.1865 C   0  0  0  0  0  0
   20.9743   39.1491   -7.6324 C   0  0  0  0  0  0
   22.2058   39.1153   -8.5458 C   0  0  0  0  0  0
   23.4295   39.8203   -7.9305 C   0  0  0  0  0  0
   23.8568   41.0758   -8.7017 C   0  0  0  0  0  0
   22.9281   42.2759   -8.4845 C   0  0  0  0  0  0
   23.2522   43.4225   -9.4593 C   0  0  0  0  0  0
   22.2716   44.4540   -9.4147 O   0  0  0  0  0  0
   21.0883   44.2721  -10.1000 C   0  0  0  0  0  0
   20.7071   43.0604  -10.7291 C   0  0  0  0  0  0
   19.4705   42.9547  -11.3902 C   0  0  0  0  0  0
   20.2095   45.3731  -10.1633 C   0  0  0  0  0  0
   18.9805   45.2827  -10.8550 C   0  0  0  0  0  0
   18.6408   44.0848  -11.5097 C   0  0  0  0  0  0
   18.0352   46.4444  -10.9180 C   0  0  0  0  0  0
   17.6947   46.8765  -12.0216 O   0  0  0  0  0  0
   17.5668   46.9469   -9.7507 N   0  0  0  0  0  0
   16.6685   48.0984   -9.7539 C   0  0  0  0  0  0
   17.7655   46.3212   -8.4384 C   0  0  0  0  0  0
   17.4900   42.9720   -9.5804 H   0  0  0  0  0  0
   16.6540   40.1562  -10.2860 H   0  0  0  0  0  0
   19.7937   39.0454  -10.2259 H   0  0  0  0  0  0
   15.3456   43.3187   -7.0917 H   0  0  0  0  0  0
   16.5303   41.7051   -7.6212 H   0  0  0  0  0  0
   15.0770   41.4043   -8.5527 H   0  0  0  0  0  0
   15.0108   42.1784  -10.5571 H   0  0  0  0  0  0
   17.8673   40.1166  -12.0904 H   0  0  0  0  0  0
   19.2257   41.0406   -8.9420 H   0  0  0  0  0  0
   17.9157   40.2055   -8.1691 H   0  0  0  0  0  0
   17.2200   37.7852   -9.1600 H   0  0  0  0  0  0
   18.4729   36.9163  -10.0400 H   0  0  0  0  0  0
   17.5804   38.1836  -10.8400 H   0  0  0  0  0  0
   19.0578   38.2093   -7.3847 H   0  0  0  0  0  0
   20.1369   37.3500   -8.4395 H   0  0  0  0  0  0
   20.6843   40.1781   -7.4200 H   0  0  0  0  0  0
   21.2486   38.7184   -6.6693 H   0  0  0  0  0  0
   22.4596   38.0751   -8.7558 H   0  0  0  0  0  0
   21.9649   39.5500   -9.5166 H   0  0  0  0  0  0
   23.2597   40.0619   -6.8807 H   0  0  0  0  0  0
   24.2649   39.1206   -7.9325 H   0  0  0  0  0  0
   24.8600   41.3624   -8.3993 H   0  0  0  0  0  0
   23.9280   40.8319   -9.7628 H   0  0  0  0  0  0
   21.8949   41.9554   -8.5947 H   0  0  0  0  0  0
   23.0156   42.6328   -7.4575 H   0  0  0  0  0  0
   24.2111   43.8632   -9.1833 H   0  0  0  0  0  0
   23.3818   43.0638  -10.4821 H   0  0  0  0  0  0
   21.3428   42.1886  -10.7153 H   0  0  0  0  0  0
   20.4915   46.2976   -9.6808 H   0  0  0  0  0  0
   17.7093   44.0129  -12.0548 H   0  0  0  0  0  0
   16.9583   48.8422  -10.4996 H   0  0  0  0  0  0
   16.6500   48.6040   -8.7867 H   0  0  0  0  0  0
   15.6602   47.7550   -9.9862 H   0  0  0  0  0  0
   17.7288   45.2331   -8.5000 H   0  0  0  0  0  0
   16.9893   46.6114   -7.7286 H   0  0  0  0  0  0
   18.7268   46.6104   -8.0150 H   0  0  0  0  0  0
  1  2  1  0  0  0
  1 34  1  0  0  0
  2  3  1  0  0  0
  2 35  1  0  0  0
  2 36  1  0  0  0
  3 31  1  0  0  0
  3  4  1  0  0  0
  3  5  1  0  0  0
  4 37  1  0  0  0
  5 32  1  0  0  0
  5  6  1  0  0  0
  5  9  1  0  0  0
  6  7  1  0  0  0
  6 38  1  0  0  0
  7 22  1  0  0  0
  7  8  2  0  0  0
  9 10  1  0  0  0
  9 39  1  0  0  0
  9 40  1  0  0  0
 10 33  1  0  0  0
 10 11  1  0  0  0
 10 12  1  0  0  0
 11 41  1  0  0  0
 11 42  1  0  0  0
 11 43  1  0  0  0
 12 13  1  0  0  0
 12 44  1  0  0  0
 12 45  1  0  0  0
 13 14  1  0  0  0
 13 46  1  0  0  0
 13 47  1  0  0  0
 14 15  1  0  0  0
 14 48  1  0  0  0
 14 49  1  0  0  0
 15 16  1  0  0  0
 15 50  1  0  0  0
 15 51  1  0  0  0
 16 17  1  0  0  0
 16 52  1  0  0  0
 16 53  1  0  0  0
 17 18  1  0  0  0
 17 54  1  0  0  0
 17 55  1  0  0  0
 18 19  1  0  0  0
 18 56  1  0  0  0
 18 57  1  0  0  0
 19 20  1  0  0  0
 20 21  1  0  0  0
 20 23  2  0  0  0
 21 22  2  0  0  0
 21 58  1  0  0  0
 22 25  1  0  0  0
 23 24  1  0  0  0
 23 59  1  0  0  0
 24 25  2  0  0  0
 24 26  1  0  0  0
 25 60  1  0  0  0
 26 27  2  0  0  0
 26 28  1  0  0  0
 28 29  1  0  0  0
 28 30  1  0  0  0
 29 61  1  0  0  0
 29 62  1  0  0  0
 29 63  1  0  0  0
 30 64  1  0  0  0
 30 65  1  0  0  0
 30 66  1  0  0  0
M  END
> <s_m_source_file>
BACE_18.smi

> <i_m_source_file_index>
1

> <i_lp_mmshare_version>
42013

> <i_f3d_flags>
0

> <s_epik_input>
W0NIM11OKFtDSDNdKUMoPU8pYyhbY0hdMSlbY0hdYyhbY0hdYzEyKUMoPU8pW05IXVtDQEhdKFtDQEBIXShbT0hdKVtDSDJdW09IXSlbQ0gyXVtDQEhdKFtDSDNdKVtDSDJdW0NIMl1bQ0gyXVtDSDJdW0NIMl1bQ0gyXVtDSDJdTzI=

> <s_epik_cmdline>
J2VwaWtfcHl0aG9uJywgJy1waCcsICc3LjAnLCAnLXRuJywgJzgnLCAnLW1hJywgJzIwMCcsICctaW1hZScsICc8aW5maWxlLm1hZT4nLCAnLW9tYWUnLCAnPG91dGZpbGUubWFlPic=

> <r_lp_tautomer_probability>
1

> <r_epik_Ionization_Penalty>
  0.0000

> <r_epik_Ionization_Penalty_Charging>
  0.0000

> <r_epik_Ionization_Penalty_Neutral>
  0.0000

> <r_epik_State_Penalty>
 -0.0000

> <r_epik_Charging_Adjusted_Penalty>
0

> <i_epik_Tot_Q>
0

> <i_epik_Tot_abs_Q>
0

> <s_lp_Force_Field>
OPLS_2005

> <r_lp_Energy>
54.3118

> <b_lp_Chiralities_Consistent>
1

> <s_lp_Variant>
BACE_18.smi:1-1

> <chiral flag>
1

> <version>
0

> <r_i_glide_lipo>
-0.185503

> <r_i_glide_hbond>
-0.470777

> <r_i_glide_metal>
-0

> <r_i_glide_rewards>
-0.541757

> <r_i_glide_erotb>
0.335754

> <r_i_glide_esite>
-0.0180469

> <chiral flag>
1

> <s_i_glide_gridfile>
second_dock_grid_2

> <i_i_glide_lignum>
35

> <i_i_glide_rotatable_bonds>
6

> <r_i_docking_score>
-4.43729

> <r_i_glide_ligand_efficiency>
-0.14791

> <r_i_glide_ligand_efficiency_sa>
-0.459589

> <r_i_glide_ligand_efficiency_ln>
-1.0082

> <r_glide_XP_GScore>
-4.43729

> <r_i_glide_gscore>
-4.43729

> <r_i_glide_evdw>
-24.6219

> <r_i_glide_ecoul>
-12.747

> <r_i_glide_energy>
-37.3689

> <r_i_glide_einternal>
6.51418

> <r_i_glide_emodel>
-47.1277

> <r_glide_XP_HBond>
-0.70108

> <i_i_glide_confnum>
1

> <i_i_glide_posenum>
8

> <r_i_glide_eff_state_penalty>
-0

> <i_glide_XP_PoseRank>
1

$$$$
BACE_18.smi:1
                    3D
 Structure written by MMmdl.
 66 67  0  0  1  0            999 V2000
   17.1973   44.5877   -8.6979 O   0  0  0  0  0  0
   16.1139   44.6729   -7.7995 C   0  0  0  0  0  0
   14.8485   43.9899   -8.3887 C   0  0  2  0  0  0
   13.6686   44.5172   -7.7789 O   0  0  0  0  0  0
   14.8085   42.4188   -8.3642 C   0  0  1  0  0  0
   14.2720   41.8745   -9.6137 N   0  0  0  0  0  0
   14.8328   41.7500  -10.8273 C   0  0  0  0  0  0
   14.3933   40.9495  -11.6405 O   0  0  0  0  0  0
   16.0560   41.6156   -7.8714 C   0  0  0  0  0  0
   15.9547   40.0515   -7.9070 C   0  0  2  0  0  0
   14.5990   39.5048   -7.4135 C   0  0  0  0  0  0
   17.0473   39.3527   -7.0637 C   0  0  0  0  0  0
   18.4983   39.4822   -7.5650 C   0  0  0  0  0  0
   18.8343   38.4432   -8.6530 C   0  0  0  0  0  0
   20.2841   38.5110   -9.1726 C   0  0  0  0  0  0
   20.4087   39.1350  -10.5715 C   0  0  0  0  0  0
   20.1361   40.6463  -10.5988 C   0  0  0  0  0  0
   19.9045   41.1610  -12.0252 C   0  0  0  0  0  0
   19.6088   42.5517  -12.0390 O   0  0  0  0  0  0
   18.3067   42.9693  -11.8621 C   0  0  0  0  0  0
   17.2581   42.1431  -11.3857 C   0  0  0  0  0  0
   15.9548   42.6565  -11.2401 C   0  0  0  0  0  0
   18.0274   44.3129  -12.1906 C   0  0  0  0  0  0
   16.7237   44.8451  -12.0546 C   0  0  0  0  0  0
   15.6880   43.9857  -11.6345 C   0  0  0  0  0  0
   16.3940   46.2739  -12.4157 C   0  0  0  0  0  0
   15.3528   46.4971  -13.0395 O   0  0  0  0  0  0
   17.2121   47.2814  -12.0185 N   0  0  0  0  0  0
   18.3243   47.1624  -11.0724 C   0  0  0  0  0  0
   16.9369   48.6529  -12.4591 C   0  0  0  0  0  0
   14.7353   44.3571   -9.3978 H   0  0  0  0  0  0
   14.0604   42.1570   -7.6188 H   0  0  0  0  0  0
   16.0699   39.7255   -8.9419 H   0  0  0  0  0  0
   17.4438   43.6804   -8.7914 H   0  0  0  0  0  0
   16.4602   44.2637   -6.8501 H   0  0  0  0  0  0
   15.9154   45.7326   -7.6395 H   0  0  0  0  0  0
   12.9396   43.9793   -8.0537 H   0  0  0  0  0  0
   13.4583   41.2878   -9.4681 H   0  0  0  0  0  0
   16.9301   41.9106   -8.4485 H   0  0  0  0  0  0
   16.2595   41.9139   -6.8415 H   0  0  0  0  0  0
   14.3522   39.8959   -6.4257 H   0  0  0  0  0  0
   14.6057   38.4160   -7.3331 H   0  0  0  0  0  0
   13.7847   39.7388   -8.0960 H   0  0  0  0  0  0
   16.9663   39.7118   -6.0403 H   0  0  0  0  0  0
   16.8271   38.2853   -6.9828 H   0  0  0  0  0  0
   18.6987   40.5006   -7.8915 H   0  0  0  0  0  0
   19.1672   39.3117   -6.7188 H   0  0  0  0  0  0
   18.6720   37.4505   -8.2301 H   0  0  0  0  0  0
   18.1272   38.5218   -9.4803 H   0  0  0  0  0  0
   20.9338   39.0266   -8.4648 H   0  0  0  0  0  0
   20.6705   37.4943   -9.2366 H   0  0  0  0  0  0
   21.4093   38.9503  -10.9663 H   0  0  0  0  0  0
   19.7260   38.6158  -11.2476 H   0  0  0  0  0  0
   19.2675   40.8757   -9.9897 H   0  0  0  0  0  0
   20.9680   41.1807  -10.1411 H   0  0  0  0  0  0
   20.8123   41.0122  -12.6093 H   0  0  0  0  0  0
   19.1284   40.5896  -12.5324 H   0  0  0  0  0  0
   17.4201   41.1018  -11.1433 H   0  0  0  0  0  0
   18.8317   44.9303  -12.5606 H   0  0  0  0  0  0
   14.6742   44.3594  -11.5910 H   0  0  0  0  0  0
   18.1912   46.3437  -10.3681 H   0  0  0  0  0  0
   18.4331   48.0667  -10.4720 H   0  0  0  0  0  0
   19.2628   47.0077  -11.6051 H   0  0  0  0  0  0
   16.7595   48.6885  -13.5367 H   0  0  0  0  0  0
   17.7738   49.3237  -12.2604 H   0  0  0  0  0  0
   16.0551   49.0487  -11.9541 H   0  0  0  0  0  0
  1  2  1  0  0  0
  1 34  1  0  0  0
  2  3  1  0  0  0
  2 35  1  0  0  0
  2 36  1  0  0  0
  3 31  1  0  0  0
  3  4  1  0  0  0
  3  5  1  0  0  0
  4 37  1  0  0  0
  5 32  1  0  0  0
  5  6  1  0  0  0
  5  9  1  0  0  0
  6  7  1  0  0  0
  6 38  1  0  0  0
  7 22  1  0  0  0
  7  8  2  0  0  0
  9 10  1  0  0  0
  9 39  1  0  0  0
  9 40  1  0  0  0
 10 33  1  0  0  0
 10 11  1  0  0  0
 10 12  1  0  0  0
 11 41  1  0  0  0
 11 42  1  0  0  0
 11 43  1  0  0  0
 12 13  1  0  0  0
 12 44  1  0  0  0
 12 45  1  0  0  0
 13 14  1  0  0  0
 13 46  1  0  0  0
 13 47  1  0  0  0
 14 15  1  0  0  0
 14 48  1  0  0  0
 14 49  1  0  0  0
 15 16  1  0  0  0
 15 50  1  0  0  0
 15 51  1  0  0  0
 16 17  1  0  0  0
 16 52  1  0  0  0
 16 53  1  0  0  0
 17 18  1  0  0  0
 17 54  1  0  0  0
 17 55  1  0  0  0
 18 19  1  0  0  0
 18 56  1  0  0  0
 18 57  1  0  0  0
 19 20  1  0  0  0
 20 21  1  0  0  0
 20 23  2  0  0  0
 21 22  2  0  0  0
 21 58  1  0  0  0
 22 25  1  0  0  0
 23 24  1  0  0  0
 23 59  1  0  0  0
 24 25  2  0  0  0
 24 26  1  0  0  0
 25 60  1  0  0  0
 26 27  2  0  0  0
 26 28  1  0  0  0
 28 29  1  0  0  0
 28 30  1  0  0  0
 29 61  1  0  0  0
 29 62  1  0  0  0
 29 63  1  0  0  0
 30 64  1  0  0  0
 30 65  1  0  0  0
 30 66  1  0  0  0
M  END
> <s_m_source_file>
BACE_18.smi

> <i_m_source_file_index>
1

> <i_lp_mmshare_version>
42013

> <i_f3d_flags>
0

> <s_epik_input>
W0NIM11OKFtDSDNdKUMoPU8pYyhbY0hdMSlbY0hdYyhbY0hdYzEyKUMoPU8pW05IXVtDQEhdKFtDQEBIXShbT0hdKVtDSDJdW09IXSlbQ0gyXVtDQEhdKFtDSDNdKVtDSDJdW0NIMl1bQ0gyXVtDSDJdW0NIMl1bQ0gyXVtDSDJdTzI=

> <s_epik_cmdline>
J2VwaWtfcHl0aG9uJywgJy1waCcsICc3LjAnLCAnLXRuJywgJzgnLCAnLW1hJywgJzIwMCcsICctaW1hZScsICc8aW5maWxlLm1hZT4nLCAnLW9tYWUnLCAnPG91dGZpbGUubWFlPic=

> <r_lp_tautomer_probability>
1

> <r_epik_Ionization_Penalty>
  0.0000

> <r_epik_Ionization_Penalty_Charging>
  0.0000

> <r_epik_Ionization_Penalty_Neutral>
  0.0000

> <r_epik_State_Penalty>
 -0.0000

> <r_epik_Charging_Adjusted_Penalty>
0

> <i_epik_Tot_Q>
0

> <i_epik_Tot_abs_Q>
0

> <s_lp_Force_Field>
OPLS_2005

> <r_lp_Energy>
54.3118

> <b_lp_Chiralities_Consistent>
1

> <s_lp_Variant>
BACE_18.smi:1-1

> <chiral flag>
1

> <version>
0

> <r_i_glide_lipo>
-0.185503

> <r_i_glide_hbond>
-0.470777

> <r_i_glide_metal>
-0

> <r_i_glide_rewards>
-0.541757

> <r_i_glide_erotb>
0.335754

> <r_i_glide_esite>
-0.0180469

> <chiral flag>
1

> <s_i_glide_gridfile>
second_dock_grid_2

> <i_i_glide_lignum>
35

> <i_i_glide_rotatable_bonds>
6

> <r_i_docking_score>
-3.83594

> <r_i_glide_ligand_efficiency>
-0.127865

> <r_i_glide_ligand_efficiency_sa>
-0.397305

> <r_i_glide_ligand_efficiency_ln>
-0.871568

> <r_glide_XP_GScore>
-3.83594

> <r_i_glide_gscore>
-3.83594

> <r_i_glide_evdw>
-27.503

> <r_i_glide_ecoul>
-16.0135

> <r_i_glide_energy>
-43.5165

> <r_i_glide_einternal>
5.66963

> <r_i_glide_emodel>
-46.718

> <r_glide_XP_HBond>
-0.70108

> <i_i_glide_confnum>
1

> <i_i_glide_posenum>
1

> <r_i_glide_eff_state_penalty>
-0

> <i_glide_XP_PoseRank>
2

$$$$
BACE_18.smi:1
                    3D
 Structure written by MMmdl.
 66 67  0  0  1  0            999 V2000
   13.4899   44.5526   -7.8867 O   0  0  0  0  0  0
   14.6674   44.6845   -8.6550 C   0  0  0  0  0  0
   15.7811   43.6877   -8.2613 C   0  0  2  0  0  0
   16.9996   44.0191   -8.8881 O   0  0  0  0  0  0
   15.4420   42.1657   -8.3476 C   0  0  1  0  0  0
   14.6983   41.7008   -9.5309 N   0  0  0  0  0  0
   15.0454   41.6537  -10.8298 C   0  0  0  0  0  0
   14.4466   40.9500  -11.6398 O   0  0  0  0  0  0
   16.6190   41.2410   -7.9475 C   0  0  0  0  0  0
   16.3392   39.7172   -7.8118 C   0  0  2  0  0  0
   15.0193   39.4056   -7.0748 C   0  0  0  0  0  0
   17.4878   38.9854   -7.0697 C   0  0  0  0  0  0
   18.9039   39.1144   -7.6557 C   0  0  0  0  0  0
   19.1293   38.2560   -8.9095 C   0  0  0  0  0  0
   20.5689   38.3564   -9.4537 C   0  0  0  0  0  0
   20.6573   39.0677  -10.8106 C   0  0  0  0  0  0
   20.3455   40.5670  -10.7327 C   0  0  0  0  0  0
   20.1136   41.1661  -12.1253 C   0  0  0  0  0  0
   19.7957   42.5480  -12.0398 O   0  0  0  0  0  0
   18.4806   42.9276  -11.8999 C   0  0  0  0  0  0
   17.4466   42.0656  -11.4620 C   0  0  0  0  0  0
   16.1346   42.5521  -11.3200 C   0  0  0  0  0  0
   18.1777   44.2733  -12.1931 C   0  0  0  0  0  0
   16.8613   44.7711  -12.0700 C   0  0  0  0  0  0
   15.8374   43.8786  -11.6974 C   0  0  0  0  0  0
   16.5197   46.2110  -12.3619 C   0  0  0  0  0  0
   15.5178   46.4612  -13.0370 O   0  0  0  0  0  0
   17.2987   47.1938  -11.8442 N   0  0  0  0  0  0
   17.0793   48.5878  -12.2363 C   0  0  0  0  0  0
   18.3020   47.0115  -10.7904 C   0  0  0  0  0  0
   16.0600   43.9019   -7.2400 H   0  0  0  0  0  0
   14.7051   42.0357   -7.5547 H   0  0  0  0  0  0
   16.2561   39.2972   -8.8145 H   0  0  0  0  0  0
   13.1313   43.6890   -8.0395 H   0  0  0  0  0  0
   14.3683   44.5730   -9.6879 H   0  0  0  0  0  0
   15.0357   45.7047   -8.5413 H   0  0  0  0  0  0
   17.6634   43.4221   -8.5763 H   0  0  0  0  0  0
   13.8894   41.1353   -9.3014 H   0  0  0  0  0  0
   17.4351   41.3820   -8.6538 H   0  0  0  0  0  0
   16.9872   41.6049   -6.9906 H   0  0  0  0  0  0
   14.9939   39.8649   -6.0846 H   0  0  0  0  0  0
   14.8890   38.3319   -6.9324 H   0  0  0  0  0  0
   14.1446   39.7480   -7.6251 H   0  0  0  0  0  0
   17.5113   39.3407   -6.0403 H   0  0  0  0  0  0
   17.2600   37.9231   -6.9923 H   0  0  0  0  0  0
   19.1556   40.1570   -7.8425 H   0  0  0  0  0  0
   19.6080   38.7820   -6.8918 H   0  0  0  0  0  0
   18.9168   37.2159   -8.6615 H   0  0  0  0  0  0
   18.4066   38.5230   -9.6811 H   0  0  0  0  0  0
   21.2277   38.8419   -8.7327 H   0  0  0  0  0  0
   20.9674   37.3501   -9.5712 H   0  0  0  0  0  0
   21.6599   38.9502  -11.2218 H   0  0  0  0  0  0
   19.9819   38.5760  -11.5123 H   0  0  0  0  0  0
   19.4715   40.7331  -10.1079 H   0  0  0  0  0  0
   21.1658   41.0876  -10.2372 H   0  0  0  0  0  0
   21.0299   41.0769  -12.7100 H   0  0  0  0  0  0
   19.3527   40.6160  -12.6821 H   0  0  0  0  0  0
   17.6351   41.0316  -11.2169 H   0  0  0  0  0  0
   18.9755   44.9250  -12.5167 H   0  0  0  0  0  0
   14.8157   44.2254  -11.6777 H   0  0  0  0  0  0
   16.9408   48.6782  -13.3149 H   0  0  0  0  0  0
   17.9256   49.2229  -11.9722 H   0  0  0  0  0  0
   16.1915   48.9849  -11.7445 H   0  0  0  0  0  0
   18.0649   46.1765  -10.1312 H   0  0  0  0  0  0
   18.3696   47.8926  -10.1510 H   0  0  0  0  0  0
   19.2878   46.8424  -11.2238 H   0  0  0  0  0  0
  1  2  1  0  0  0
  1 34  1  0  0  0
  2  3  1  0  0  0
  2 35  1  0  0  0
  2 36  1  0  0  0
  3 31  1  0  0  0
  3  4  1  0  0  0
  3  5  1  0  0  0
  4 37  1  0  0  0
  5 32  1  0  0  0
  5  6  1  0  0  0
  5  9  1  0  0  0
  6  7  1  0  0  0
  6 38  1  0  0  0
  7 22  1  0  0  0
  7  8  2  0  0  0
  9 10  1  0  0  0
  9 39  1  0  0  0
  9 40  1  0  0  0
 10 33  1  0  0  0
 10 11  1  0  0  0
 10 12  1  0  0  0
 11 41  1  0  0  0
 11 42  1  0  0  0
 11 43  1  0  0  0
 12 13  1  0  0  0
 12 44  1  0  0  0
 12 45  1  0  0  0
 13 14  1  0  0  0
 13 46  1  0  0  0
 13 47  1  0  0  0
 14 15  1  0  0  0
 14 48  1  0  0  0
 14 49  1  0  0  0
 15 16  1  0  0  0
 15 50  1  0  0  0
 15 51  1  0  0  0
 16 17  1  0  0  0
 16 52  1  0  0  0
 16 53  1  0  0  0
 17 18  1  0  0  0
 17 54  1  0  0  0
 17 55  1  0  0  0
 18 19  1  0  0  0
 18 56  1  0  0  0
 18 57  1  0  0  0
 19 20  1  0  0  0
 20 21  1  0  0  0
 20 23  2  0  0  0
 21 22  2  0  0  0
 21 58  1  0  0  0
 22 25  1  0  0  0
 23 24  1  0  0  0
 23 59  1  0  0  0
 24 25  2  0  0  0
 24 26  1  0  0  0
 25 60  1  0  0  0
 26 27  2  0  0  0
 26 28  1  0  0  0
 28 29  1  0  0  0
 28 30  1  0  0  0
 29 61  1  0  0  0
 29 62  1  0  0  0
 29 63  1  0  0  0
 30 64  1  0  0  0
 30 65  1  0  0  0
 30 66  1  0  0  0
M  END
> <s_m_source_file>
BACE_18.smi

> <i_m_source_file_index>
1

> <i_lp_mmshare_version>
42013

> <i_f3d_flags>
0

> <s_epik_input>
W0NIM11OKFtDSDNdKUMoPU8pYyhbY0hdMSlbY0hdYyhbY0hdYzEyKUMoPU8pW05IXVtDQEhdKFtDQEBIXShbT0hdKVtDSDJdW09IXSlbQ0gyXVtDQEhdKFtDSDNdKVtDSDJdW0NIMl1bQ0gyXVtDSDJdW0NIMl1bQ0gyXVtDSDJdTzI=

> <s_epik_cmdline>
J2VwaWtfcHl0aG9uJywgJy1waCcsICc3LjAnLCAnLXRuJywgJzgnLCAnLW1hJywgJzIwMCcsICctaW1hZScsICc8aW5maWxlLm1hZT4nLCAnLW9tYWUnLCAnPG91dGZpbGUubWFlPic=

> <r_lp_tautomer_probability>
1

> <r_epik_Ionization_Penalty>
  0.0000

> <r_epik_Ionization_Penalty_Charging>
  0.0000

> <r_epik_Ionization_Penalty_Neutral>
  0.0000

> <r_epik_State_Penalty>
 -0.0000

> <r_epik_Charging_Adjusted_Penalty>
0

> <i_epik_Tot_Q>
0

> <i_epik_Tot_abs_Q>
0

> <s_lp_Force_Field>
OPLS_2005

> <r_lp_Energy>
54.3118

> <b_lp_Chiralities_Consistent>
1

> <s_lp_Variant>
BACE_18.smi:1-1

> <chiral flag>
1

> <version>
0

> <r_i_glide_lipo>
-0.185503

> <r_i_glide_hbond>
-0.470777

> <r_i_glide_metal>
-0

> <r_i_glide_rewards>
-0.541757

> <r_i_glide_erotb>
0.335754

> <r_i_glide_esite>
-0.0180469

> <chiral flag>
1

> <s_i_glide_gridfile>
second_dock_grid_2

> <i_i_glide_lignum>
35

> <i_i_glide_rotatable_bonds>
6

> <r_i_docking_score>
-3.728

> <r_i_glide_ligand_efficiency>
-0.124267

> <r_i_glide_ligand_efficiency_sa>
-0.386126

> <r_i_glide_ligand_efficiency_ln>
-0.847043

> <r_glide_XP_GScore>
-3.728

> <r_i_glide_gscore>
-3.728

> <r_i_glide_evdw>
-29.2178

> <r_i_glide_ecoul>
-16.4663

> <r_i_glide_energy>
-45.684

> <r_i_glide_einternal>
0

> <r_i_glide_emodel>
-52.3675

> <r_glide_XP_HBond>
-0.70108

> <i_i_glide_confnum>
1

> <i_i_glide_posenum>
6

> <r_i_glide_eff_state_penalty>
-0

> <i_glide_XP_PoseRank>
3

$$$$
BACE_18.smi:1
                    3D
 Structure written by MMmdl.
 66 67  0  0  1  0            999 V2000
   17.9162   41.9619   -7.6393 O   0  0  0  0  0  0
   17.1017   40.9786   -8.2439 C   0  0  0  0  0  0
   17.4722   40.7444   -9.7277 C   0  0  2  0  0  0
   16.4449   39.9495  -10.2959 O   0  0  0  0  0  0
   18.8399   40.0351   -9.9691 C   0  0  1  0  0  0
   19.3464   40.1014  -11.3556 N   0  0  0  0  0  0
   19.6301   41.1289  -12.1803 C   0  0  0  0  0  0
   20.2380   40.9505  -13.2341 O   0  0  0  0  0  0
   19.9456   40.4085   -8.9413 C   0  0  0  0  0  0
   21.3103   39.6799   -9.0800 C   0  0  2  0  0  0
   21.1410   38.1562   -9.1950 C   0  0  0  0  0  0
   22.2472   39.9688   -7.8814 C   0  0  0  0  0  0
   22.7735   41.4088   -7.7545 C   0  0  0  0  0  0
   23.8409   41.7661   -8.8060 C   0  0  0  0  0  0
   24.4593   43.1667   -8.6202 C   0  0  0  0  0  0
   23.9000   44.2354   -9.5741 C   0  0  0  0  0  0
   22.4480   44.6419   -9.2832 C   0  0  0  0  0  0
   21.8656   45.5329  -10.3903 C   0  0  0  0  0  0
   20.4539   45.6733  -10.2784 O   0  0  0  0  0  0
   19.6431   44.7152  -10.8526 C   0  0  0  0  0  0
   20.0785   43.4221  -11.2408 C   0  0  0  0  0  0
   19.1756   42.5089  -11.8180 C   0  0  0  0  0  0
   18.2909   45.0638  -11.0475 C   0  0  0  0  0  0
   17.3876   44.1791  -11.6751 C   0  0  0  0  0  0
   17.8483   42.9073  -12.0782 C   0  0  0  0  0  0
   15.9330   44.5505  -11.7940 C   0  0  0  0  0  0
   15.6355   45.5938  -12.3812 O   0  0  0  0  0  0
   14.9996   43.7368  -11.2424 N   0  0  0  0  0  0
   15.4017   42.5679  -10.4575 C   0  0  0  0  0  0
   13.5548   43.9848  -11.2698 C   0  0  0  0  0  0
   17.4597   41.7154  -10.2181 H   0  0  0  0  0  0
   18.6230   38.9771   -9.8277 H   0  0  0  0  0  0
   21.7944   40.0225   -9.9946 H   0  0  0  0  0  0
   17.8280   41.8946   -6.7005 H   0  0  0  0  0  0
   17.1468   40.0547   -7.6643 H   0  0  0  0  0  0
   16.0810   41.3549   -8.1699 H   0  0  0  0  0  0
   16.3559   39.1263   -9.8015 H   0  0  0  0  0  0
   19.6281   39.2064  -11.7242 H   0  0  0  0  0  0
   20.1045   41.4856   -8.9745 H   0  0  0  0  0  0
   19.5750   40.1899   -7.9428 H   0  0  0  0  0  0
   20.6484   37.7417   -8.3149 H   0  0  0  0  0  0
   22.1048   37.6568   -9.3043 H   0  0  0  0  0  0
   20.5443   37.8866  -10.0631 H   0  0  0  0  0  0
   21.7247   39.7075   -6.9593 H   0  0  0  0  0  0
   23.1071   39.2988   -7.9206 H   0  0  0  0  0  0
   21.9456   42.1130   -7.7636 H   0  0  0  0  0  0
   23.2246   41.5104   -6.7667 H   0  0  0  0  0  0
   24.6409   41.0288   -8.7350 H   0  0  0  0  0  0
   23.4389   41.6621   -9.8147 H   0  0  0  0  0  0
   24.3748   43.4960   -7.5845 H   0  0  0  0  0  0
   25.5287   43.0846   -8.8118 H   0  0  0  0  0  0
   24.5284   45.1259   -9.5242 H   0  0  0  0  0  0
   23.9853   43.8693  -10.5988 H   0  0  0  0  0  0
   21.8365   43.7506   -9.1826 H   0  0  0  0  0  0
   22.3835   45.1527   -8.3218 H   0  0  0  0  0  0
   22.3101   46.5260  -10.3210 H   0  0  0  0  0  0
   22.1343   45.1657  -11.3799 H   0  0  0  0  0  0
   21.0999   43.1021  -11.1028 H   0  0  0  0  0  0
   17.9494   46.0348  -10.7191 H   0  0  0  0  0  0
   17.1645   42.2025  -12.5314 H   0  0  0  0  0  0
   16.3208   42.1172  -10.8360 H   0  0  0  0  0  0
   14.6376   41.7931  -10.4973 H   0  0  0  0  0  0
   15.5610   42.8449   -9.4159 H   0  0  0  0  0  0
   13.3209   45.0503  -11.2876 H   0  0  0  0  0  0
   13.0685   43.5720  -10.3855 H   0  0  0  0  0  0
   13.0994   43.5183  -12.1434 H   0  0  0  0  0  0
  1  2  1  0  0  0
  1 34  1  0  0  0
  2  3  1  0  0  0
  2 35  1  0  0  0
  2 36  1  0  0  0
  3 31  1  0  0  0
  3  4  1  0  0  0
  3  5  1  0  0  0
  4 37  1  0  0  0
  5 32  1  0  0  0
  5  6  1  0  0  0
  5  9  1  0  0  0
  6  7  1  0  0  0
  6 38  1  0  0  0
  7 22  1  0  0  0
  7  8  2  0  0  0
  9 10  1  0  0  0
  9 39  1  0  0  0
  9 40  1  0  0  0
 10 33  1  0  0  0
 10 11  1  0  0  0
 10 12  1  0  0  0
 11 41  1  0  0  0
 11 42  1  0  0  0
 11 43  1  0  0  0
 12 13  1  0  0  0
 12 44  1  0  0  0
 12 45  1  0  0  0
 13 14  1  0  0  0
 13 46  1  0  0  0
 13 47  1  0  0  0
 14 15  1  0  0  0
 14 48  1  0  0  0
 14 49  1  0  0  0
 15 16  1  0  0  0
 15 50  1  0  0  0
 15 51  1  0  0  0
 16 17  1  0  0  0
 16 52  1  0  0  0
 16 53  1  0  0  0
 17 18  1  0  0  0
 17 54  1  0  0  0
 17 55  1  0  0  0
 18 19  1  0  0  0
 18 56  1  0  0  0
 18 57  1  0  0  0
 19 20  1  0  0  0
 20 21  1  0  0  0
 20 23  2  0  0  0
 21 22  2  0  0  0
 21 58  1  0  0  0
 22 25  1  0  0  0
 23 24  1  0  0  0
 23 59  1  0  0  0
 24 25  2  0  0  0
 24 26  1  0  0  0
 25 60  1  0  0  0
 26 27  2  0  0  0
 26 28  1  0  0  0
 28 29  1  0  0  0
 28 30  1  0  0  0
 29 61  1  0  0  0
 29 62  1  0  0  0
 29 63  1  0  0  0
 30 64  1  0  0  0
 30 65  1  0  0  0
 30 66  1  0  0  0
M  END
> <s_m_source_file>
BACE_18.smi

> <i_m_source_file_index>
1

> <i_lp_mmshare_version>
42013

> <i_f3d_flags>
0

> <s_epik_input>
W0NIM11OKFtDSDNdKUMoPU8pYyhbY0hdMSlbY0hdYyhbY0hdYzEyKUMoPU8pW05IXVtDQEhdKFtDQEBIXShbT0hdKVtDSDJdW09IXSlbQ0gyXVtDQEhdKFtDSDNdKVtDSDJdW0NIMl1bQ0gyXVtDSDJdW0NIMl1bQ0gyXVtDSDJdTzI=

> <s_epik_cmdline>
J2VwaWtfcHl0aG9uJywgJy1waCcsICc3LjAnLCAnLXRuJywgJzgnLCAnLW1hJywgJzIwMCcsICctaW1hZScsICc8aW5maWxlLm1hZT4nLCAnLW9tYWUnLCAnPG91dGZpbGUubWFlPic=

> <r_lp_tautomer_probability>
1

> <r_epik_Ionization_Penalty>
  0.0000

> <r_epik_Ionization_Penalty_Charging>
  0.0000

> <r_epik_Ionization_Penalty_Neutral>
  0.0000

> <r_epik_State_Penalty>
 -0.0000

> <r_epik_Charging_Adjusted_Penalty>
0

> <i_epik_Tot_Q>
0

> <i_epik_Tot_abs_Q>
0

> <s_lp_Force_Field>
OPLS_2005

> <r_lp_Energy>
54.3118

> <b_lp_Chiralities_Consistent>
1

> <s_lp_Variant>
BACE_18.smi:1-1

> <chiral flag>
1

> <version>
0

> <r_i_glide_lipo>
-0.185503

> <r_i_glide_hbond>
-0.470777

> <r_i_glide_metal>
-0

> <r_i_glide_rewards>
-0.541757

> <r_i_glide_erotb>
0.335754

> <r_i_glide_esite>
-0.0180469

> <chiral flag>
1

> <s_i_glide_gridfile>
second_dock_grid_2

> <i_i_glide_lignum>
35

> <i_i_glide_rotatable_bonds>
6

> <r_i_docking_score>
-3.57466

> <r_i_glide_ligand_efficiency>
-0.119155

> <r_i_glide_ligand_efficiency_sa>
-0.370243

> <r_i_glide_ligand_efficiency_ln>
-0.812202

> <r_glide_XP_GScore>
-3.57466

> <r_i_glide_gscore>
-3.57466

> <r_i_glide_evdw>
-28.0004

> <r_i_glide_ecoul>
-8.05834

> <r_i_glide_energy>
-36.0587

> <r_i_glide_einternal>
3.24628

> <r_i_glide_emodel>
-47.3297

> <r_glide_XP_HBond>
-0.70108

> <i_i_glide_confnum>
1

> <i_i_glide_posenum>
10

> <r_i_glide_eff_state_penalty>
-0

> <i_glide_XP_PoseRank>
4

$$$$
BACE_18.smi:1
                    3D
 Structure written by MMmdl.
 66 67  0  0  1  0            999 V2000
   12.8644   44.5440   -8.4397 O   0  0  0  0  0  0
   13.9154   44.2237   -9.3293 C   0  0  0  0  0  0
   15.0807   43.5017   -8.6136 C   0  0  2  0  0  0
   16.3654   43.9933   -8.9243 O   0  0  0  0  0  0
   15.0282   41.9464   -8.5332 C   0  0  1  0  0  0
   14.5079   41.2881   -9.7333 N   0  0  0  0  0  0
   14.9913   41.2545  -10.9834 C   0  0  0  0  0  0
   14.4603   40.5503  -11.8419 O   0  0  0  0  0  0
   16.2733   41.2243   -7.9448 C   0  0  0  0  0  0
   16.1675   39.6713   -7.8421 C   0  0  2  0  0  0
   14.8516   39.2254   -7.1731 C   0  0  0  0  0  0
   17.3355   39.0192   -7.0627 C   0  0  0  0  0  0
   18.7591   39.2189   -7.6014 C   0  0  0  0  0  0
   19.1016   38.2548   -8.7486 C   0  0  0  0  0  0
   20.5722   38.3486   -9.1995 C   0  0  0  0  0  0
   20.7297   38.9575  -10.5924 C   0  0  0  0  0  0
   20.3920   40.4477  -10.6308 C   0  0  0  0  0  0
   20.1745   40.9385  -12.0618 C   0  0  0  0  0  0
   19.7944   42.3021  -12.0397 O   0  0  0  0  0  0
   18.4676   42.6324  -11.8802 C   0  0  0  0  0  0
   17.4402   41.7320  -11.4868 C   0  0  0  0  0  0
   16.1107   42.1865  -11.3637 C   0  0  0  0  0  0
   18.1532   43.9829  -12.1262 C   0  0  0  0  0  0
   16.8316   44.4537  -11.9984 C   0  0  0  0  0  0
   15.8193   43.5272  -11.6916 C   0  0  0  0  0  0
   16.4632   45.8985  -12.2166 C   0  0  0  0  0  0
   15.4295   46.1529  -12.8400 O   0  0  0  0  0  0
   17.2366   46.8741  -11.6800 N   0  0  0  0  0  0
   18.2644   46.6741  -10.6525 C   0  0  0  0  0  0
   16.9744   48.2814  -11.9876 C   0  0  0  0  0  0
   15.0195   43.9015   -7.6378 H   0  0  0  0  0  0
   14.2395   41.7745   -7.8047 H   0  0  0  0  0  0
   16.1771   39.2596   -8.8512 H   0  0  0  0  0  0
   12.4489   43.7355   -8.1674 H   0  0  0  0  0  0
   13.4748   43.6273  -10.1258 H   0  0  0  0  0  0
   14.2811   45.1456   -9.7780 H   0  0  0  0  0  0
   16.9805   43.6048   -8.3200 H   0  0  0  0  0  0
   13.7089   40.6903   -9.5642 H   0  0  0  0  0  0
   17.1459   41.4735   -8.5451 H   0  0  0  0  0  0
   16.4608   41.6328   -6.9502 H   0  0  0  0  0  0
   14.7226   39.6912   -6.1937 H   0  0  0  0  0  0
   14.8349   38.1497   -7.0147 H   0  0  0  0  0  0
   13.9774   39.4546   -7.7783 H   0  0  0  0  0  0
   17.2959   39.3503   -6.0331 H   0  0  0  0  0  0
   17.1702   37.9464   -7.0009 H   0  0  0  0  0  0
   18.9304   40.2569   -7.8808 H   0  0  0  0  0  0
   19.4492   39.0225   -6.7791 H   0  0  0  0  0  0
   18.9016   37.2350   -8.4209 H   0  0  0  0  0  0
   18.4247   38.4218   -9.5886 H   0  0  0  0  0  0
   21.1743   38.8950   -8.4727 H   0  0  0  0  0  0
   20.9956   37.3483   -9.2348 H   0  0  0  0  0  0
   21.7559   38.8242  -10.9340 H   0  0  0  0  0  0
   20.0926   38.4110  -11.2912 H   0  0  0  0  0  0
   19.4984   40.6408  -10.0433 H   0  0  0  0  0  0
   21.1868   41.0205  -10.1546 H   0  0  0  0  0  0
   21.1077   40.8543  -12.6201 H   0  0  0  0  0  0
   19.4481   40.3291  -12.6019 H   0  0  0  0  0  0
   17.6494   40.6931  -11.2822 H   0  0  0  0  0  0
   18.9472   44.6562  -12.4140 H   0  0  0  0  0  0
   14.7966   43.8618  -11.7091 H   0  0  0  0  0  0
   18.0581   45.8109  -10.0194 H   0  0  0  0  0  0
   18.3247   47.5358   -9.9866 H   0  0  0  0  0  0
   19.2452   46.5424  -11.1119 H   0  0  0  0  0  0
   16.6289   48.4197  -13.0140 H   0  0  0  0  0  0
   17.8741   48.8861  -11.8743 H   0  0  0  0  0  0
   16.2135   48.6761  -11.3141 H   0  0  0  0  0  0
  1  2  1  0  0  0
  1 34  1  0  0  0
  2  3  1  0  0  0
  2 35  1  0  0  0
  2 36  1  0  0  0
  3 31  1  0  0  0
  3  4  1  0  0  0
  3  5  1  0  0  0
  4 37  1  0  0  0
  5 32  1  0  0  0
  5  6  1  0  0  0
  5  9  1  0  0  0
  6  7  1  0  0  0
  6 38  1  0  0  0
  7 22  1  0  0  0
  7  8  2  0  0  0
  9 10  1  0  0  0
  9 39  1  0  0  0
  9 40  1  0  0  0
 10 33  1  0  0  0
 10 11  1  0  0  0
 10 12  1  0  0  0
 11 41  1  0  0  0
 11 42  1  0  0  0
 11 43  1  0  0  0
 12 13  1  0  0  0
 12 44  1  0  0  0
 12 45  1  0  0  0
 13 14  1  0  0  0
 13 46  1  0  0  0
 13 47  1  0  0  0
 14 15  1  0  0  0
 14 48  1  0  0  0
 14 49  1  0  0  0
 15 16  1  0  0  0
 15 50  1  0  0  0
 15 51  1  0  0  0
 16 17  1  0  0  0
 16 52  1  0  0  0
 16 53  1  0  0  0
 17 18  1  0  0  0
 17 54  1  0  0  0
 17 55  1  0  0  0
 18 19  1  0  0  0
 18 56  1  0  0  0
 18 57  1  0  0  0
 19 20  1  0  0  0
 20 21  1  0  0  0
 20 23  2  0  0  0
 21 22  2  0  0  0
 21 58  1  0  0  0
 22 25  1  0  0  0
 23 24  1  0  0  0
 23 59  1  0  0  0
 24 25  2  0  0  0
 24 26  1  0  0  0
 25 60  1  0  0  0
 26 27  2  0  0  0
 26 28  1  0  0  0
 28 29  1  0  0  0
 28 30  1  0  0  0
 29 61  1  0  0  0
 29 62  1  0  0  0
 29 63  1  0  0  0
 30 64  1  0  0  0
 30 65  1  0  0  0
 30 66  1  0  0  0
M  END
> <s_m_source_file>
BACE_18.smi

> <i_m_source_file_index>
1

> <i_lp_mmshare_version>
42013

> <i_f3d_flags>
0

> <s_epik_input>
W0NIM11OKFtDSDNdKUMoPU8pYyhbY0hdMSlbY0hdYyhbY0hdYzEyKUMoPU8pW05IXVtDQEhdKFtDQEBIXShbT0hdKVtDSDJdW09IXSlbQ0gyXVtDQEhdKFtDSDNdKVtDSDJdW0NIMl1bQ0gyXVtDSDJdW0NIMl1bQ0gyXVtDSDJdTzI=

> <s_epik_cmdline>
J2VwaWtfcHl0aG9uJywgJy1waCcsICc3LjAnLCAnLXRuJywgJzgnLCAnLW1hJywgJzIwMCcsICctaW1hZScsICc8aW5maWxlLm1hZT4nLCAnLW9tYWUnLCAnPG91dGZpbGUubWFlPic=

> <r_lp_tautomer_probability>
1

> <r_epik_Ionization_Penalty>
  0.0000

> <r_epik_Ionization_Penalty_Charging>
  0.0000

> <r_epik_Ionization_Penalty_Neutral>
  0.0000

> <r_epik_State_Penalty>
 -0.0000

> <r_epik_Charging_Adjusted_Penalty>
0

> <i_epik_Tot_Q>
0

> <i_epik_Tot_abs_Q>
0

> <s_lp_Force_Field>
OPLS_2005

> <r_lp_Energy>
54.3118

> <b_lp_Chiralities_Consistent>
1

> <s_lp_Variant>
BACE_18.smi:1-1

> <chiral flag>
1

> <version>
0

> <r_i_glide_lipo>
-0.185503

> <r_i_glide_hbond>
-0.470777

> <r_i_glide_metal>
-0

> <r_i_glide_rewards>
-0.541757

> <r_i_glide_erotb>
0.335754

> <r_i_glide_esite>
-0.0180469

> <chiral flag>
1

> <s_i_glide_gridfile>
second_dock_grid_2

> <i_i_glide_lignum>
35

> <i_i_glide_rotatable_bonds>
6

> <r_i_docking_score>
-3.42853

> <r_i_glide_ligand_efficiency>
-0.114284

> <r_i_glide_ligand_efficiency_sa>
-0.355108

> <r_i_glide_ligand_efficiency_ln>
-0.778999

> <r_glide_XP_GScore>
-3.42853

> <r_i_glide_gscore>
-3.42853

> <r_i_glide_evdw>
-27.4154

> <r_i_glide_ecoul>
-16.5777

> <r_i_glide_energy>
-43.9931

> <r_i_glide_einternal>
4.05102

> <r_i_glide_emodel>
-51.5756

> <r_glide_XP_HBond>
-0.70108

> <i_i_glide_confnum>
1

> <i_i_glide_posenum>
3

> <r_i_glide_eff_state_penalty>
-0

> <i_glide_XP_PoseRank>
5

$$$$
BACE_18.smi:1
                    3D
 Structure written by MMmdl.
 66 67  0  0  1  0            999 V2000
   17.5030   44.3376   -8.6180 O   0  0  0  0  0  0
   16.3603   44.4280   -7.7947 C   0  0  0  0  0  0
   15.1526   43.7301   -8.4525 C   0  0  2  0  0  0
   13.9218   44.2900   -8.0394 O   0  0  0  0  0  0
   15.0824   42.1627   -8.3560 C   0  0  1  0  0  0
   14.4995   41.5657   -9.5637 N   0  0  0  0  0  0
   14.9635   41.4993  -10.8241 C   0  0  0  0  0  0
   14.4619   40.7359  -11.6400 O   0  0  0  0  0  0
   16.3422   41.3692   -7.8795 C   0  0  0  0  0  0
   16.2053   39.8094   -7.8176 C   0  0  2  0  0  0
   14.9049   39.3534   -7.1278 C   0  0  0  0  0  0
   17.3733   39.0910   -7.0919 C   0  0  0  0  0  0
   18.7865   39.2646   -7.6711 C   0  0  0  0  0  0
   19.0738   38.3051   -8.8412 C   0  0  0  0  0  0
   20.5241   38.3737   -9.3605 C   0  0  0  0  0  0
   20.6464   39.0575  -10.7305 C   0  0  0  0  0  0
   20.3204   40.5544  -10.6987 C   0  0  0  0  0  0
   20.0604   41.1077  -12.1031 C   0  0  0  0  0  0
   19.7131   42.4815  -12.0399 O   0  0  0  0  0  0
   18.3939   42.8350  -11.8784 C   0  0  0  0  0  0
   17.3796   41.9630  -11.4123 C   0  0  0  0  0  0
   16.0586   42.4272  -11.2644 C   0  0  0  0  0  0
   18.0698   44.1716  -12.1881 C   0  0  0  0  0  0
   16.7541   44.6575  -12.0388 C   0  0  0  0  0  0
   15.7487   43.7499  -11.6523 C   0  0  0  0  0  0
   16.3773   46.0900  -12.3240 C   0  0  0  0  0  0
   15.2843   46.3157  -12.8517 O   0  0  0  0  0  0
   17.2070   47.1000  -11.9537 N   0  0  0  0  0  0
   18.3412   46.9841  -11.0332 C   0  0  0  0  0  0
   16.9153   48.4774  -12.3614 C   0  0  0  0  0  0
   15.1480   44.0910   -9.4532 H   0  0  0  0  0  0
   14.3594   41.9608   -7.5674 H   0  0  0  0  0  0
   16.1734   39.4343   -8.8408 H   0  0  0  0  0  0
   17.7448   43.4278   -8.7022 H   0  0  0  0  0  0
   16.6198   43.9979   -6.8400 H   0  0  0  0  0  0
   16.1500   45.4858   -7.6386 H   0  0  0  0  0  0
   13.5194   43.6707   -7.4417 H   0  0  0  0  0  0
   13.7021   40.9716   -9.3754 H   0  0  0  0  0  0
   17.1883   41.6180   -8.5178 H   0  0  0  0  0  0
   16.5964   41.7192   -6.8790 H   0  0  0  0  0  0
   14.8288   39.7498   -6.1133 H   0  0  0  0  0  0
   14.8542   38.2661   -7.0521 H   0  0  0  0  0  0
   14.0212   39.6608   -7.6806 H   0  0  0  0  0  0
   17.3774   39.3559   -6.0379 H   0  0  0  0  0  0
   17.1672   38.0218   -7.0792 H   0  0  0  0  0  0
   18.9697   40.3015   -7.9420 H   0  0  0  0  0  0
   19.4993   39.0430   -6.8768 H   0  0  0  0  0  0
   18.8808   37.2866   -8.5023 H   0  0  0  0  0  0
   18.3657   38.4800   -9.6537 H   0  0  0  0  0  0
   21.1776   38.8596   -8.6335 H   0  0  0  0  0  0
   20.9045   37.3533   -9.4553 H   0  0  0  0  0  0
   21.6593   38.9365  -11.1140 H   0  0  0  0  0  0
   19.9917   38.5464  -11.4388 H   0  0  0  0  0  0
   19.4489   40.7366  -10.0736 H   0  0  0  0  0  0
   21.1414   41.0992  -10.2295 H   0  0  0  0  0  0
   20.9706   41.0202  -12.6978 H   0  0  0  0  0  0
   19.2994   40.5332  -12.6344 H   0  0  0  0  0  0
   17.5837   40.9309  -11.1645 H   0  0  0  0  0  0
   18.8555   44.8237  -12.5427 H   0  0  0  0  0  0
   14.7217   44.0883  -11.6002 H   0  0  0  0  0  0
   18.2298   46.1521  -10.3403 H   0  0  0  0  0  0
   18.4396   47.8811  -10.4212 H   0  0  0  0  0  0
   19.2708   46.8542  -11.5875 H   0  0  0  0  0  0
   16.5522   48.5250  -13.3884 H   0  0  0  0  0  0
   17.8069   49.1056  -12.3115 H   0  0  0  0  0  0
   16.1564   48.9099  -11.7089 H   0  0  0  0  0  0
  1  2  1  0  0  0
  1 34  1  0  0  0
  2  3  1  0  0  0
  2 35  1  0  0  0
  2 36  1  0  0  0
  3 31  1  0  0  0
  3  4  1  0  0  0
  3  5  1  0  0  0
  4 37  1  0  0  0
  5 32  1  0  0  0
  5  6  1  0  0  0
  5  9  1  0  0  0
  6  7  1  0  0  0
  6 38  1  0  0  0
  7 22  1  0  0  0
  7  8  2  0  0  0
  9 10  1  0  0  0
  9 39  1  0  0  0
  9 40  1  0  0  0
 10 33  1  0  0  0
 10 11  1  0  0  0
 10 12  1  0  0  0
 11 41  1  0  0  0
 11 42  1  0  0  0
 11 43  1  0  0  0
 12 13  1  0  0  0
 12 44  1  0  0  0
 12 45  1  0  0  0
 13 14  1  0  0  0
 13 46  1  0  0  0
 13 47  1  0  0  0
 14 15  1  0  0  0
 14 48  1  0  0  0
 14 49  1  0  0  0
 15 16  1  0  0  0
 15 50  1  0  0  0
 15 51  1  0  0  0
 16 17  1  0  0  0
 16 52  1  0  0  0
 16 53  1  0  0  0
 17 18  1  0  0  0
 17 54  1  0  0  0
 17 55  1  0  0  0
 18 19  1  0  0  0
 18 56  1  0  0  0
 18 57  1  0  0  0
 19 20  1  0  0  0
 20 21  1  0  0  0
 20 23  2  0  0  0
 21 22  2  0  0  0
 21 58  1  0  0  0
 22 25  1  0  0  0
 23 24  1  0  0  0
 23 59  1  0  0  0
 24 25  2  0  0  0
 24 26  1  0  0  0
 25 60  1  0  0  0
 26 27  2  0  0  0
 26 28  1  0  0  0
 28 29  1  0  0  0
 28 30  1  0  0  0
 29 61  1  0  0  0
 29 62  1  0  0  0
 29 63  1  0  0  0
 30 64  1  0  0  0
 30 65  1  0  0  0
 30 66  1  0  0  0
M  END
> <s_m_source_file>
BACE_18.smi

> <i_m_source_file_index>
1

> <i_lp_mmshare_version>
42013

> <i_f3d_flags>
0

> <s_epik_input>
W0NIM11OKFtDSDNdKUMoPU8pYyhbY0hdMSlbY0hdYyhbY0hdYzEyKUMoPU8pW05IXVtDQEhdKFtDQEBIXShbT0hdKVtDSDJdW09IXSlbQ0gyXVtDQEhdKFtDSDNdKVtDSDJdW0NIMl1bQ0gyXVtDSDJdW0NIMl1bQ0gyXVtDSDJdTzI=

> <s_epik_cmdline>
J2VwaWtfcHl0aG9uJywgJy1waCcsICc3LjAnLCAnLXRuJywgJzgnLCAnLW1hJywgJzIwMCcsICctaW1hZScsICc8aW5maWxlLm1hZT4nLCAnLW9tYWUnLCAnPG91dGZpbGUubWFlPic=

> <r_lp_tautomer_probability>
1

> <r_epik_Ionization_Penalty>
  0.0000

> <r_epik_Ionization_Penalty_Charging>
  0.0000

> <r_epik_Ionization_Penalty_Neutral>
  0.0000

> <r_epik_State_Penalty>
 -0.0000

> <r_epik_Charging_Adjusted_Penalty>
0

> <i_epik_Tot_Q>
0

> <i_epik_Tot_abs_Q>
0

> <s_lp_Force_Field>
OPLS_2005

> <r_lp_Energy>
54.3118

> <b_lp_Chiralities_Consistent>
1

> <s_lp_Variant>
BACE_18.smi:1-1

> <chiral flag>
1

> <version>
0

> <r_i_glide_lipo>
-0.185503

> <r_i_glide_hbond>
-0.470777

> <r_i_glide_metal>
-0

> <r_i_glide_rewards>
-0.541757

> <r_i_glide_erotb>
0.335754

> <r_i_glide_esite>
-0.0180469

> <chiral flag>
1

> <s_i_glide_gridfile>
second_dock_grid_2

> <i_i_glide_lignum>
35

> <i_i_glide_rotatable_bonds>
6

> <r_i_docking_score>
-3.42749

> <r_i_glide_ligand_efficiency>
-0.11425

> <r_i_glide_ligand_efficiency_sa>
-0.355

> <r_i_glide_ligand_efficiency_ln>
-0.778763

> <r_glide_XP_GScore>
-3.42749

> <r_i_glide_gscore>
-3.42749

> <r_i_glide_evdw>
-30.9725

> <r_i_glide_ecoul>
-12.6865

> <r_i_glide_energy>
-43.659

> <r_i_glide_einternal>
4.2602

> <r_i_glide_emodel>
-47.4154

> <r_glide_XP_HBond>
-0.70108

> <i_i_glide_confnum>
1

> <i_i_glide_posenum>
2

> <r_i_glide_eff_state_penalty>
-0

> <i_glide_XP_PoseRank>
6

$$$$
BACE_18.smi:1
                    3D
 Structure written by MMmdl.
 66 67  0  0  1  0            999 V2000
   15.3201   39.3503   -6.8001 O   0  0  0  0  0  0
   14.9587   38.9093   -8.0870 C   0  0  0  0  0  0
   15.6358   39.8041   -9.1511 C   0  0  2  0  0  0
   14.8601   39.6855  -10.3337 O   0  0  0  0  0  0
   17.1171   39.4160   -9.4656 C   0  0  1  0  0  0
   17.6866   40.0508  -10.6673 N   0  0  0  0  0  0
   17.8609   41.3332  -11.0299 C   0  0  0  0  0  0
   18.4961   41.6286  -12.0398 O   0  0  0  0  0  0
   18.0851   39.5063   -8.2478 C   0  0  0  0  0  0
   19.5566   39.0461   -8.4665 C   0  0  2  0  0  0
   19.6458   37.7329   -9.2670 C   0  0  0  0  0  0
   20.3011   38.8386   -7.1205 C   0  0  0  0  0  0
   20.5711   40.1020   -6.2855 C   0  0  0  0  0  0
   21.7218   40.9712   -6.8170 C   0  0  0  0  0  0
   21.9711   42.2388   -5.9738 C   0  0  0  0  0  0
   21.4019   43.5298   -6.5845 C   0  0  0  0  0  0
   19.8663   43.6249   -6.5789 C   0  0  0  0  0  0
   19.3674   44.8264   -7.3999 C   0  0  0  0  0  0
   17.9474   44.8765   -7.4993 O   0  0  0  0  0  0
   17.3225   44.1555   -8.5013 C   0  0  0  0  0  0
   17.9354   43.1147   -9.2428 C   0  0  0  0  0  0
   17.2153   42.4219  -10.2344 C   0  0  0  0  0  0
   15.9809   44.4934   -8.7846 C   0  0  0  0  0  0
   15.2536   43.8121   -9.7835 C   0  0  0  0  0  0
   15.8895   42.7956  -10.5212 C   0  0  0  0  0  0
   13.8269   44.1483  -10.1047 C   0  0  0  0  0  0
   13.5425   44.4725  -11.2599 O   0  0  0  0  0  0
   12.8963   44.0211   -9.1266 N   0  0  0  0  0  0
   13.1967   43.7229   -7.7287 C   0  0  0  0  0  0
   11.4639   44.1016   -9.4168 C   0  0  0  0  0  0
   15.5663   40.8336   -8.8065 H   0  0  0  0  0  0
   17.0732   38.3626   -9.7391 H   0  0  0  0  0  0
   20.0809   39.8120   -9.0398 H   0  0  0  0  0  0
   15.0858   38.6908   -6.1486 H   0  0  0  0  0  0
   15.2329   37.8611   -8.2099 H   0  0  0  0  0  0
   13.8695   38.9679   -8.1516 H   0  0  0  0  0  0
   13.9432   39.7781  -10.0985 H   0  0  0  0  0  0
   18.0828   39.3922  -11.3205 H   0  0  0  0  0  0
   18.0733   40.5218   -7.8528 H   0  0  0  0  0  0
   17.6784   38.8819   -7.4516 H   0  0  0  0  0  0
   19.0178   36.9538   -8.8324 H   0  0  0  0  0  0
   20.6681   37.3557   -9.2825 H   0  0  0  0  0  0
   19.3431   37.8639  -10.3048 H   0  0  0  0  0  0
   19.7204   38.1437   -6.5115 H   0  0  0  0  0  0
   21.2561   38.3394   -7.2945 H   0  0  0  0  0  0
   19.6602   40.6842   -6.1848 H   0  0  0  0  0  0
   20.8219   39.7899   -5.2717 H   0  0  0  0  0  0
   22.6306   40.3684   -6.8131 H   0  0  0  0  0  0
   21.5536   41.2384   -7.8600 H   0  0  0  0  0  0
   21.6034   42.1059   -4.9560 H   0  0  0  0  0  0
   23.0487   42.3713   -5.8776 H   0  0  0  0  0  0
   21.8012   44.3841   -6.0386 H   0  0  0  0  0  0
   21.7740   43.6323   -7.6062 H   0  0  0  0  0  0
   19.4407   42.7071   -6.9777 H   0  0  0  0  0  0
   19.5032   43.6943   -5.5542 H   0  0  0  0  0  0
   19.6856   45.7446   -6.9077 H   0  0  0  0  0  0
   19.8223   44.8521   -8.3896 H   0  0  0  0  0  0
   18.9621   42.8271   -9.0729 H   0  0  0  0  0  0
   15.5186   45.2914   -8.2256 H   0  0  0  0  0  0
   15.3424   42.2667  -11.2870 H   0  0  0  0  0  0
   13.9654   42.9518   -7.6396 H   0  0  0  0  0  0
   12.3240   43.3506   -7.1863 H   0  0  0  0  0  0
   13.5392   44.6281   -7.2404 H   0  0  0  0  0  0
   11.2508   44.5484  -10.3868 H   0  0  0  0  0  0
   10.9386   44.6881   -8.6629 H   0  0  0  0  0  0
   11.0335   43.0989   -9.4134 H   0  0  0  0  0  0
  1  2  1  0  0  0
  1 34  1  0  0  0
  2  3  1  0  0  0
  2 35  1  0  0  0
  2 36  1  0  0  0
  3 31  1  0  0  0
  3  4  1  0  0  0
  3  5  1  0  0  0
  4 37  1  0  0  0
  5 32  1  0  0  0
  5  6  1  0  0  0
  5  9  1  0  0  0
  6  7  1  0  0  0
  6 38  1  0  0  0
  7 22  1  0  0  0
  7  8  2  0  0  0
  9 10  1  0  0  0
  9 39  1  0  0  0
  9 40  1  0  0  0
 10 33  1  0  0  0
 10 11  1  0  0  0
 10 12  1  0  0  0
 11 41  1  0  0  0
 11 42  1  0  0  0
 11 43  1  0  0  0
 12 13  1  0  0  0
 12 44  1  0  0  0
 12 45  1  0  0  0
 13 14  1  0  0  0
 13 46  1  0  0  0
 13 47  1  0  0  0
 14 15  1  0  0  0
 14 48  1  0  0  0
 14 49  1  0  0  0
 15 16  1  0  0  0
 15 50  1  0  0  0
 15 51  1  0  0  0
 16 17  1  0  0  0
 16 52  1  0  0  0
 16 53  1  0  0  0
 17 18  1  0  0  0
 17 54  1  0  0  0
 17 55  1  0  0  0
 18 19  1  0  0  0
 18 56  1  0  0  0
 18 57  1  0  0  0
 19 20  1  0  0  0
 20 21  1  0  0  0
 20 23  2  0  0  0
 21 22  2  0  0  0
 21 58  1  0  0  0
 22 25  1  0  0  0
 23 24  1  0  0  0
 23 59  1  0  0  0
 24 25  2  0  0  0
 24 26  1  0  0  0
 25 60  1  0  0  0
 26 27  2  0  0  0
 26 28  1  0  0  0
 28 29  1  0  0  0
 28 30  1  0  0  0
 29 61  1  0  0  0
 29 62  1  0  0  0
 29 63  1  0  0  0
 30 64  1  0  0  0
 30 65  1  0  0  0
 30 66  1  0  0  0
M  END
> <s_m_source_file>
BACE_18.smi

> <i_m_source_file_index>
1

> <i_lp_mmshare_version>
42013

> <i_f3d_flags>
0

> <s_epik_input>
W0NIM11OKFtDSDNdKUMoPU8pYyhbY0hdMSlbY0hdYyhbY0hdYzEyKUMoPU8pW05IXVtDQEhdKFtDQEBIXShbT0hdKVtDSDJdW09IXSlbQ0gyXVtDQEhdKFtDSDNdKVtDSDJdW0NIMl1bQ0gyXVtDSDJdW0NIMl1bQ0gyXVtDSDJdTzI=

> <s_epik_cmdline>
J2VwaWtfcHl0aG9uJywgJy1waCcsICc3LjAnLCAnLXRuJywgJzgnLCAnLW1hJywgJzIwMCcsICctaW1hZScsICc8aW5maWxlLm1hZT4nLCAnLW9tYWUnLCAnPG91dGZpbGUubWFlPic=

> <r_lp_tautomer_probability>
1

> <r_epik_Ionization_Penalty>
  0.0000

> <r_epik_Ionization_Penalty_Charging>
  0.0000

> <r_epik_Ionization_Penalty_Neutral>
  0.0000

> <r_epik_State_Penalty>
 -0.0000

> <r_epik_Charging_Adjusted_Penalty>
0

> <i_epik_Tot_Q>
0

> <i_epik_Tot_abs_Q>
0

> <s_lp_Force_Field>
OPLS_2005

> <r_lp_Energy>
54.3118

> <b_lp_Chiralities_Consistent>
1

> <s_lp_Variant>
BACE_18.smi:1-1

> <chiral flag>
1

> <version>
0

> <r_i_glide_lipo>
-0.185503

> <r_i_glide_hbond>
-0.470777

> <r_i_glide_metal>
-0

> <r_i_glide_rewards>
-0.541757

> <r_i_glide_erotb>
0.335754

> <r_i_glide_esite>
-0.0180469

> <chiral flag>
1

> <s_i_glide_gridfile>
second_dock_grid_2

> <i_i_glide_lignum>
35

> <i_i_glide_rotatable_bonds>
6

> <r_i_docking_score>
-2.49381

> <r_i_glide_ligand_efficiency>
-0.0831271

> <r_i_glide_ligand_efficiency_sa>
-0.258295

> <r_i_glide_ligand_efficiency_ln>
-0.566621

> <r_glide_XP_GScore>
-2.49381

> <r_i_glide_gscore>
-2.49381

> <r_i_glide_evdw>
-36.4358

> <r_i_glide_ecoul>
-7.41031

> <r_i_glide_energy>
-43.8461

> <r_i_glide_einternal>
2.53017

> <r_i_glide_emodel>
-51.13

> <r_glide_XP_HBond>
-0.70108

> <i_i_glide_confnum>
1

> <i_i_glide_posenum>
7

> <r_i_glide_eff_state_penalty>
-0

> <i_glide_XP_PoseRank>
7

$$$$
