BACE_13.smi:1
                    3D
 Structure written by MMmdl.
 76 79  0  0  1  0            999 V2000
   16.6915   45.4040  -12.4886 C   0  0  0  0  0  0
   16.8043   44.0324  -12.8413 O   0  0  0  0  0  0
   18.1010   43.5008  -12.6292 C   0  0  0  0  0  0
   18.3887   43.2443  -11.1653 C   0  0  0  0  0  0
   19.7115   43.2840  -10.6855 C   0  0  0  0  0  0
   19.9777   43.0390   -9.3203 C   0  0  0  0  0  0
   18.9035   42.7935   -8.4338 C   0  0  0  0  0  0
   17.5792   42.7281   -8.9166 C   0  0  0  0  0  0
   17.3326   42.9429  -10.2855 C   0  0  0  0  0  0
   16.5327   42.4446   -8.0324 N   0  0  0  0  0  0
   15.4898   41.5043   -8.4360 C   0  0  0  0  0  0
   16.0390   40.0883   -8.6873 C   0  0  0  0  0  0
   16.5769   39.4249   -7.4091 C   0  0  0  0  0  0
   17.4145   38.1634   -7.6856 C   0  0  0  0  0  0
   18.5962   38.4453   -8.4390 O   0  0  0  0  0  0
   19.6839   39.0187   -7.8106 C   0  0  0  0  0  0
   19.7287   39.3496   -6.4351 C   0  0  0  0  0  0
   20.8729   39.9447   -5.8737 C   0  0  0  0  0  0
   21.9973   40.2049   -6.6748 C   0  0  0  0  0  0
   21.9736   39.8818   -8.0448 C   0  0  0  0  0  0
   20.8197   39.2877   -8.6034 C   0  0  0  0  0  0
   23.1870   40.1806   -8.9104 C   0  0  0  0  0  0
   23.4747   41.6817   -9.1879 C   0  0  2  0  0  0
   22.2258   42.3143   -9.6095 N   0  0  0  0  0  0
   21.3879   43.0010   -8.8161 C   0  0  0  0  0  0
   21.6867   43.4450   -7.7087 O   0  0  0  0  0  0
   24.5589   41.8585  -10.2880 C   0  0  1  0  0  0
   25.1335   43.3012  -10.4244 C   0  0  1  0  0  0
   26.2134   43.6874   -9.3848 C   0  0  0  0  0  0
   27.4346   42.9962   -9.6393 O   0  0  0  0  0  0
   27.9740   43.2660  -10.9293 C   0  0  2  0  0  0
   26.9381   42.9152  -12.0236 C   0  0  0  0  0  0
   25.6444   43.5635  -11.7785 N   0  0  0  0  0  0
   29.2394   42.3948  -11.0881 C   0  0  0  0  0  0
   30.1890   42.5490  -10.0387 O   0  0  0  0  0  0
   30.8066   43.8241   -9.9804 C   0  0  0  0  0  0
   25.6105   40.9500  -10.0409 O   0  0  0  0  0  0
   23.8312   42.1353   -8.2598 H   0  0  0  0  0  0
   24.1127   41.5718  -11.2392 H   0  0  0  0  0  0
   24.2907   43.9745  -10.2683 H   0  0  0  0  0  0
   28.2293   44.3243  -10.9985 H   0  0  0  0  0  0
   15.6796   45.7497  -12.6920 H   0  0  0  0  0  0
   17.3752   46.0199  -13.0741 H   0  0  0  0  0  0
   16.8945   45.5686  -11.4307 H   0  0  0  0  0  0
   18.8579   44.1585  -13.0590 H   0  0  0  0  0  0
   18.1754   42.5505  -13.1580 H   0  0  0  0  0  0
   20.5190   43.4957  -11.3719 H   0  0  0  0  0  0
   19.1009   42.6048   -7.3878 H   0  0  0  0  0  0
   16.3238   42.9001  -10.6648 H   0  0  0  0  0  0
   16.7751   42.3724   -7.0502 H   0  0  0  0  0  0
   14.9668   41.8742   -9.3165 H   0  0  0  0  0  0
   14.7451   41.4665   -7.6396 H   0  0  0  0  0  0
   16.8179   40.1232   -9.4485 H   0  0  0  0  0  0
   15.2448   39.4644   -9.0971 H   0  0  0  0  0  0
   15.7380   39.1608   -6.7622 H   0  0  0  0  0  0
   17.1644   40.1419   -6.8404 H   0  0  0  0  0  0
   16.8153   37.4539   -8.2581 H   0  0  0  0  0  0
   17.6604   37.6547   -6.7559 H   0  0  0  0  0  0
   18.8935   39.1692   -5.7779 H   0  0  0  0  0  0
   20.8857   40.1992   -4.8240 H   0  0  0  0  0  0
   22.8672   40.6676   -6.2368 H   0  0  0  0  0  0
   20.7939   39.0397   -9.6549 H   0  0  0  0  0  0
   23.0463   39.6762   -9.8655 H   0  0  0  0  0  0
   24.0519   39.7224   -8.4338 H   0  0  0  0  0  0
   21.8457   41.9949  -10.4876 H   0  0  0  0  0  0
   25.8736   43.4497   -8.3765 H   0  0  0  0  0  0
   26.3953   44.7621   -9.4068 H   0  0  0  0  0  0
   26.8094   41.8339  -12.0726 H   0  0  0  0  0  0
   27.3207   43.2119  -12.9998 H   0  0  0  0  0  0
   24.9757   43.2085  -12.4547 H   0  0  0  0  0  0
   28.9480   41.3459  -11.0943 H   0  0  0  0  0  0
   29.7174   42.5836  -12.0505 H   0  0  0  0  0  0
   31.5995   43.8074   -9.2339 H   0  0  0  0  0  0
   30.0961   44.5987   -9.6841 H   0  0  0  0  0  0
   31.2532   44.0997  -10.9387 H   0  0  0  0  0  0
   25.2709   40.0607  -10.0402 H   0  0  0  0  0  0
  1  2  1  0  0  0
  1 42  1  0  0  0
  1 43  1  0  0  0
  1 44  1  0  0  0
  2  3  1  0  0  0
  3  4  1  0  0  0
  3 45  1  0  0  0
  3 46  1  0  0  0
  4  9  1  0  0  0
  4  5  2  0  0  0
  5  6  1  0  0  0
  5 47  1  0  0  0
  6 25  1  0  0  0
  6  7  2  0  0  0
  7  8  1  0  0  0
  7 48  1  0  0  0
  8  9  2  0  0  0
  8 10  1  0  0  0
  9 49  1  0  0  0
 10 11  1  0  0  0
 10 50  1  0  0  0
 11 12  1  0  0  0
 11 51  1  0  0  0
 11 52  1  0  0  0
 12 13  1  0  0  0
 12 53  1  0  0  0
 12 54  1  0  0  0
 13 14  1  0  0  0
 13 55  1  0  0  0
 13 56  1  0  0  0
 14 15  1  0  0  0
 14 57  1  0  0  0
 14 58  1  0  0  0
 15 16  1  0  0  0
 16 21  1  0  0  0
 16 17  2  0  0  0
 17 18  1  0  0  0
 17 59  1  0  0  0
 18 19  2  0  0  0
 18 60  1  0  0  0
 19 20  1  0  0  0
 19 61  1  0  0  0
 20 21  2  0  0  0
 20 22  1  0  0  0
 21 62  1  0  0  0
 22 23  1  0  0  0
 22 63  1  0  0  0
 22 64  1  0  0  0
 23 38  1  0  0  0
 23 24  1  0  0  0
 23 27  1  0  0  0
 24 25  1  0  0  0
 24 65  1  0  0  0
 25 26  2  0  0  0
 27 39  1  0  0  0
 27 28  1  0  0  0
 27 37  1  0  0  0
 28 40  1  0  0  0
 28 33  1  0  0  0
 28 29  1  0  0  0
 29 30  1  0  0  0
 29 66  1  0  0  0
 29 67  1  0  0  0
 30 31  1  0  0  0
 31 41  1  0  0  0
 31 32  1  0  0  0
 31 34  1  0  0  0
 32 33  1  0  0  0
 32 68  1  0  0  0
 32 69  1  0  0  0
 33 70  1  0  0  0
 34 35  1  0  0  0
 34 71  1  0  0  0
 34 72  1  0  0  0
 35 36  1  0  0  0
 36 73  1  0  0  0
 36 74  1  0  0  0
 36 75  1  0  0  0
 37 76  1  0  0  0
M  END
> <s_m_source_file>
BACE_13.smi

> <i_m_source_file_index>
1

> <i_lp_mmshare_version>
42013

> <i_f3d_flags>
0

> <s_epik_input>
W0NIM11PW0NIMl1jKFtjSF1jMTIpW2NIXWMoW2NIXTEpW05IXVtDSDJdW0NIMl1bQ0gyXVtDSDJdT2MzW2NIXVtjSF1bY0hdYyhbY0hdMylbQ0gyXVtDQEhdKFtOSF1DMj1PKVtDQEhdKFtPSF0pW0NASF00W0NIMl1PW0NASF0oW0NIMl1bTkhdNClbQ0gyXU9bQ0gzXQ==

> <s_epik_cmdline>
J2VwaWtfcHl0aG9uJywgJy1waCcsICc3LjAnLCAnLXRuJywgJzgnLCAnLW1hJywgJzIwMCcsICctaW1hZScsICc8aW5maWxlLm1hZT4nLCAnLW9tYWUnLCAnPG91dGZpbGUubWFlPic=

> <r_lp_tautomer_probability>
1

> <r_epik_Ionization_Penalty>
  1.0247

> <r_epik_Ionization_Penalty_Charging>
  0.0000

> <r_epik_Ionization_Penalty_Neutral>
  1.0247

> <r_epik_State_Penalty>
  1.0749

> <r_epik_Charging_Adjusted_Penalty>
1.07494

> <i_epik_Tot_Q>
0

> <i_epik_Tot_abs_Q>
0

> <s_lp_Force_Field>
OPLS_2005

> <r_lp_Energy>
44.7965

> <b_lp_Chiralities_Consistent>
1

> <s_lp_Variant>
BACE_13.smi:1-2

> <chiral flag>
1

> <version>
0

> <r_i_glide_lipo>
-0.805819

> <r_i_glide_hbond>
-0.734486

> <r_i_glide_metal>
-0

> <r_i_glide_rewards>
0

> <r_i_glide_erotb>
0.310939

> <r_i_glide_esite>
-0.00333392

> <chiral flag>
1

> <s_i_glide_gridfile>
second_dock_grid_2

> <i_i_glide_lignum>
27

> <i_i_glide_rotatable_bonds>
7

> <r_i_docking_score>
-3.81402

> <r_i_glide_ligand_efficiency>
-0.103081

> <r_i_glide_ligand_efficiency_sa>
-0.34349

> <r_i_glide_ligand_efficiency_ln>
-0.82717

> <r_glide_XP_GScore>
-4.88892

> <r_i_glide_gscore>
-4.88892

> <r_i_glide_evdw>
-38.0577

> <r_i_glide_ecoul>
-11.1677

> <r_i_glide_energy>
-49.2254

> <r_i_glide_einternal>
0

> <r_i_glide_emodel>
-63.629

> <r_glide_XP_HBond>
-1.52948

> <i_i_glide_confnum>
1

> <i_i_glide_posenum>
1

> <r_i_glide_eff_state_penalty>
1.0749

> <i_glide_XP_PoseRank>
1

$$$$
BACE_13.smi:1
                    3D
 Structure written by MMmdl.
 76 79  0  0  1  0            999 V2000
   18.1231   43.4112  -13.1084 C   0  0  0  0  0  0
   16.8306   43.7830  -12.6660 O   0  0  0  0  0  0
   16.8537   44.5842  -11.4928 C   0  0  0  0  0  0
   17.3622   43.8218  -10.2832 C   0  0  0  0  0  0
   18.7374   43.8064   -9.9768 C   0  0  0  0  0  0
   19.2213   43.0270   -8.9030 C   0  0  0  0  0  0
   18.3024   42.3261   -8.0895 C   0  0  0  0  0  0
   16.9276   42.3311   -8.4010 C   0  0  0  0  0  0
   16.4627   43.0759   -9.5029 C   0  0  0  0  0  0
   16.0432   41.5696   -7.6379 N   0  0  0  0  0  0
   15.1869   40.6060   -8.3176 C   0  0  0  0  0  0
   15.9891   39.4948   -9.0237 C   0  0  0  0  0  0
   16.8046   38.6326   -8.0461 C   0  0  0  0  0  0
   17.6561   37.5619   -8.7495 C   0  0  0  0  0  0
   18.6812   38.1403   -9.5544 O   0  0  0  0  0  0
   19.8192   38.6495   -8.9548 C   0  0  0  0  0  0
   20.1069   38.5497   -7.5725 C   0  0  0  0  0  0
   21.3081   39.0730   -7.0514 C   0  0  0  0  0  0
   22.2200   39.7259   -7.8971 C   0  0  0  0  0  0
   21.9282   39.8729   -9.2676 C   0  0  0  0  0  0
   20.7434   39.3143   -9.7919 C   0  0  0  0  0  0
   22.8585   40.6886  -10.1508 C   0  0  0  0  0  0
   22.7978   42.2166   -9.8724 C   0  0  2  0  0  0
   21.4104   42.6771   -9.7816 N   0  0  0  0  0  0
   20.6950   42.8918   -8.6659 C   0  0  0  0  0  0
   21.1626   42.8754   -7.5276 O   0  0  0  0  0  0
   23.5451   43.0837  -10.9203 C   0  0  1  0  0  0
   25.0310   42.7165  -11.1561 C   0  0  1  0  0  0
   25.7510   43.6985  -12.1039 C   0  0  0  0  0  0
   27.0603   43.2100  -12.3817 O   0  0  0  0  0  0
   27.8706   43.0460  -11.2176 C   0  0  2  0  0  0
   27.1581   42.1669  -10.1646 C   0  0  0  0  0  0
   25.7906   42.6305   -9.9117 N   0  0  0  0  0  0
   28.3611   44.3949  -10.6553 C   0  0  0  0  0  0
   29.4147   44.2230   -9.7131 O   0  0  0  0  0  0
   30.6859   43.9797  -10.2961 C   0  0  0  0  0  0
   22.8720   42.9503  -12.1594 O   0  0  0  0  0  0
   23.2688   42.3916   -8.9039 H   0  0  0  0  0  0
   23.4834   44.1279  -10.6114 H   0  0  0  0  0  0
   25.0577   41.7425  -11.6311 H   0  0  0  0  0  0
   28.7398   42.4926  -11.5671 H   0  0  0  0  0  0
   18.0419   42.9451  -14.0813 H   0  0  0  0  0  0
   18.5948   42.6890  -12.4402 H   0  0  0  0  0  0
   18.7786   44.2778  -13.2088 H   0  0  0  0  0  0
   15.8385   44.9283  -11.2958 H   0  0  0  0  0  0
   17.4530   45.4821  -11.6492 H   0  0  0  0  0  0
   19.4266   44.3633  -10.5966 H   0  0  0  0  0  0
   18.6599   41.7323   -7.2586 H   0  0  0  0  0  0
   15.4107   43.0749   -9.7507 H   0  0  0  0  0  0
   16.3628   41.2786   -6.7202 H   0  0  0  0  0  0
   14.5397   41.1155   -9.0346 H   0  0  0  0  0  0
   14.5201   40.1586   -7.5774 H   0  0  0  0  0  0
   16.6439   39.9288   -9.7778 H   0  0  0  0  0  0
   15.2945   38.8521   -9.5670 H   0  0  0  0  0  0
   16.1193   38.1501   -7.3494 H   0  0  0  0  0  0
   17.4420   39.2684   -7.4328 H   0  0  0  0  0  0
   17.0129   36.9751   -9.4061 H   0  0  0  0  0  0
   18.0605   36.8442   -8.0370 H   0  0  0  0  0  0
   19.4325   38.0686   -6.8834 H   0  0  0  0  0  0
   21.5192   38.9790   -5.9958 H   0  0  0  0  0  0
   23.1252   40.1467   -7.4837 H   0  0  0  0  0  0
   20.5148   39.4176  -10.8433 H   0  0  0  0  0  0
   22.6112   40.4824  -11.1930 H   0  0  0  0  0  0
   23.8766   40.3278  -10.0094 H   0  0  0  0  0  0
   20.9152   42.7204  -10.6610 H   0  0  0  0  0  0
   25.7890   44.7037  -11.6846 H   0  0  0  0  0  0
   25.2171   43.7705  -13.0534 H   0  0  0  0  0  0
   27.7350   42.1529   -9.2402 H   0  0  0  0  0  0
   27.1316   41.1355  -10.5249 H   0  0  0  0  0  0
   25.3369   41.9840   -9.2741 H   0  0  0  0  0  0
   28.6774   45.0567  -11.4613 H   0  0  0  0  0  0
   27.5442   44.9042  -10.1446 H   0  0  0  0  0  0
   31.4395   43.9236   -9.5084 H   0  0  0  0  0  0
   30.9765   44.7856  -10.9718 H   0  0  0  0  0  0
   30.7169   43.0363  -10.8422 H   0  0  0  0  0  0
   23.1271   42.1186  -12.5419 H   0  0  0  0  0  0
  1  2  1  0  0  0
  1 42  1  0  0  0
  1 43  1  0  0  0
  1 44  1  0  0  0
  2  3  1  0  0  0
  3  4  1  0  0  0
  3 45  1  0  0  0
  3 46  1  0  0  0
  4  9  1  0  0  0
  4  5  2  0  0  0
  5  6  1  0  0  0
  5 47  1  0  0  0
  6 25  1  0  0  0
  6  7  2  0  0  0
  7  8  1  0  0  0
  7 48  1  0  0  0
  8  9  2  0  0  0
  8 10  1  0  0  0
  9 49  1  0  0  0
 10 11  1  0  0  0
 10 50  1  0  0  0
 11 12  1  0  0  0
 11 51  1  0  0  0
 11 52  1  0  0  0
 12 13  1  0  0  0
 12 53  1  0  0  0
 12 54  1  0  0  0
 13 14  1  0  0  0
 13 55  1  0  0  0
 13 56  1  0  0  0
 14 15  1  0  0  0
 14 57  1  0  0  0
 14 58  1  0  0  0
 15 16  1  0  0  0
 16 21  1  0  0  0
 16 17  2  0  0  0
 17 18  1  0  0  0
 17 59  1  0  0  0
 18 19  2  0  0  0
 18 60  1  0  0  0
 19 20  1  0  0  0
 19 61  1  0  0  0
 20 21  2  0  0  0
 20 22  1  0  0  0
 21 62  1  0  0  0
 22 23  1  0  0  0
 22 63  1  0  0  0
 22 64  1  0  0  0
 23 38  1  0  0  0
 23 24  1  0  0  0
 23 27  1  0  0  0
 24 25  1  0  0  0
 24 65  1  0  0  0
 25 26  2  0  0  0
 27 39  1  0  0  0
 27 28  1  0  0  0
 27 37  1  0  0  0
 28 40  1  0  0  0
 28 33  1  0  0  0
 28 29  1  0  0  0
 29 30  1  0  0  0
 29 66  1  0  0  0
 29 67  1  0  0  0
 30 31  1  0  0  0
 31 41  1  0  0  0
 31 32  1  0  0  0
 31 34  1  0  0  0
 32 33  1  0  0  0
 32 68  1  0  0  0
 32 69  1  0  0  0
 33 70  1  0  0  0
 34 35  1  0  0  0
 34 71  1  0  0  0
 34 72  1  0  0  0
 35 36  1  0  0  0
 36 73  1  0  0  0
 36 74  1  0  0  0
 36 75  1  0  0  0
 37 76  1  0  0  0
M  END
> <s_m_source_file>
BACE_13.smi

> <i_m_source_file_index>
1

> <i_lp_mmshare_version>
42013

> <i_f3d_flags>
0

> <s_epik_input>
W0NIM11PW0NIMl1jKFtjSF1jMTIpW2NIXWMoW2NIXTEpW05IXVtDSDJdW0NIMl1bQ0gyXVtDSDJdT2MzW2NIXVtjSF1bY0hdYyhbY0hdMylbQ0gyXVtDQEhdKFtOSF1DMj1PKVtDQEhdKFtPSF0pW0NASF00W0NIMl1PW0NASF0oW0NIMl1bTkhdNClbQ0gyXU9bQ0gzXQ==

> <s_epik_cmdline>
J2VwaWtfcHl0aG9uJywgJy1waCcsICc3LjAnLCAnLXRuJywgJzgnLCAnLW1hJywgJzIwMCcsICctaW1hZScsICc8aW5maWxlLm1hZT4nLCAnLW9tYWUnLCAnPG91dGZpbGUubWFlPic=

> <r_lp_tautomer_probability>
1

> <r_epik_Ionization_Penalty>
  1.0247

> <r_epik_Ionization_Penalty_Charging>
  0.0000

> <r_epik_Ionization_Penalty_Neutral>
  1.0247

> <r_epik_State_Penalty>
  1.0749

> <r_epik_Charging_Adjusted_Penalty>
1.07494

> <i_epik_Tot_Q>
0

> <i_epik_Tot_abs_Q>
0

> <s_lp_Force_Field>
OPLS_2005

> <r_lp_Energy>
44.7965

> <b_lp_Chiralities_Consistent>
1

> <s_lp_Variant>
BACE_13.smi:1-2

> <chiral flag>
1

> <version>
0

> <r_i_glide_lipo>
-0.805819

> <r_i_glide_hbond>
-0.734486

> <r_i_glide_metal>
-0

> <r_i_glide_rewards>
0

> <r_i_glide_erotb>
0.310939

> <r_i_glide_esite>
-0.00333392

> <chiral flag>
1

> <s_i_glide_gridfile>
second_dock_grid_2

> <i_i_glide_lignum>
27

> <i_i_glide_rotatable_bonds>
7

> <r_i_docking_score>
-3.34507

> <r_i_glide_ligand_efficiency>
-0.0904073

> <r_i_glide_ligand_efficiency_sa>
-0.301257

> <r_i_glide_ligand_efficiency_ln>
-0.725467

> <r_glide_XP_GScore>
-4.41997

> <r_i_glide_gscore>
-4.41997

> <r_i_glide_evdw>
-37.0707

> <r_i_glide_ecoul>
-8.99603

> <r_i_glide_energy>
-46.0668

> <r_i_glide_einternal>
2.44221

> <r_i_glide_emodel>
-62.2134

> <r_glide_XP_HBond>
-1.52948

> <i_i_glide_confnum>
1

> <i_i_glide_posenum>
2

> <r_i_glide_eff_state_penalty>
1.0749

> <i_glide_XP_PoseRank>
2

$$$$
BACE_13.smi:1
                    3D
 Structure written by MMmdl.
 76 79  0  0  1  0            999 V2000
   22.7244   43.3827   -3.2826 C   0  0  0  0  0  0
   21.6480   42.6117   -2.7760 O   0  0  0  0  0  0
   21.5604   41.3082   -3.3324 C   0  0  0  0  0  0
   21.1907   41.2656   -4.8083 C   0  0  0  0  0  0
   20.4608   42.3116   -5.4149 C   0  0  0  0  0  0
   20.0602   42.2201   -6.7666 C   0  0  0  0  0  0
   20.4142   41.0720   -7.5131 C   0  0  0  0  0  0
   21.1431   40.0140   -6.9137 C   0  0  0  0  0  0
   21.5314   40.1285   -5.5652 C   0  0  0  0  0  0
   21.4956   38.8394   -7.5999 N   0  0  0  0  0  0
   20.7247   38.4365   -8.7665 C   0  0  0  0  0  0
   21.3029   39.0029  -10.0682 C   0  0  0  0  0  0
   20.2155   39.1946  -11.1355 C   0  0  0  0  0  0
   20.7351   39.8321  -12.4364 C   0  0  0  0  0  0
   21.6470   40.9009  -12.2049 O   0  0  0  0  0  0
   21.2186   42.0810  -11.6387 C   0  0  0  0  0  0
   22.2230   42.9865  -11.2441 C   0  0  0  0  0  0
   21.8910   44.2211  -10.6587 C   0  0  0  0  0  0
   20.5421   44.5609  -10.4583 C   0  0  0  0  0  0
   19.5250   43.6640  -10.8397 C   0  0  0  0  0  0
   19.8614   42.4321  -11.4392 C   0  0  0  0  0  0
   18.0680   44.0248  -10.5986 C   0  0  0  0  0  0
   17.5912   43.9744   -9.1188 C   0  0  2  0  0  0
   18.3825   43.0305   -8.3161 N   0  0  0  0  0  0
   19.3096   43.3595   -7.3987 C   0  0  0  0  0  0
   19.5309   44.5200   -7.0471 O   0  0  0  0  0  0
   16.0524   43.7334   -9.0248 C   0  0  1  0  0  0
   15.4655   42.2949   -8.9249 C   0  0  1  0  0  0
   15.7348   41.4762  -10.2017 C   0  0  0  0  0  0
   15.0875   40.2135  -10.1137 O   0  0  0  0  0  0
   15.5452   39.4286   -9.0103 C   0  0  2  0  0  0
   15.3764   40.1970   -7.6801 C   0  0  0  0  0  0
   15.9381   41.5521   -7.7488 N   0  0  0  0  0  0
   16.9802   38.9104   -9.2678 C   0  0  0  0  0  0
   17.3457   37.7954   -8.4669 O   0  0  0  0  0  0
   16.7393   36.5686   -8.8443 C   0  0  0  0  0  0
   15.4793   44.5628   -8.0399 O   0  0  0  0  0  0
   17.7857   44.9769   -8.7338 H   0  0  0  0  0  0
   15.6282   44.1580   -9.9345 H   0  0  0  0  0  0
   14.3824   42.3969   -8.8478 H   0  0  0  0  0  0
   14.8641   38.5805   -8.9846 H   0  0  0  0  0  0
   22.8600   44.2700   -2.6670 H   0  0  0  0  0  0
   22.5555   43.7100   -4.3080 H   0  0  0  0  0  0
   23.6601   42.8353   -3.2539 H   0  0  0  0  0  0
   20.7931   40.7614   -2.7869 H   0  0  0  0  0  0
   22.4975   40.7750   -3.1595 H   0  0  0  0  0  0
   20.1828   43.1757   -4.8279 H   0  0  0  0  0  0
   20.1260   41.0125   -8.5502 H   0  0  0  0  0  0
   22.0788   39.3234   -5.0947 H   0  0  0  0  0  0
   21.9077   38.0951   -7.0545 H   0  0  0  0  0  0
   19.6932   38.7517   -8.6253 H   0  0  0  0  0  0
   20.6902   37.3501   -8.8385 H   0  0  0  0  0  0
   22.1020   38.3601  -10.4340 H   0  0  0  0  0  0
   21.7711   39.9646   -9.8613 H   0  0  0  0  0  0
   19.4300   39.8201  -10.7152 H   0  0  0  0  0  0
   19.7372   38.2401  -11.3602 H   0  0  0  0  0  0
   19.9149   40.1528  -13.0794 H   0  0  0  0  0  0
   21.2783   39.0755  -13.0031 H   0  0  0  0  0  0
   23.2610   42.7238  -11.3975 H   0  0  0  0  0  0
   22.6717   44.9029  -10.3568 H   0  0  0  0  0  0
   20.2894   45.5041   -9.9965 H   0  0  0  0  0  0
   19.0685   41.7663  -11.7389 H   0  0  0  0  0  0
   17.4628   43.3684  -11.2171 H   0  0  0  0  0  0
   17.8918   45.0223  -10.9987 H   0  0  0  0  0  0
   18.1714   42.0487   -8.4266 H   0  0  0  0  0  0
   16.8014   41.3415  -10.3702 H   0  0  0  0  0  0
   15.3410   41.9985  -11.0738 H   0  0  0  0  0  0
   15.8310   39.6359   -6.8602 H   0  0  0  0  0  0
   14.3135   40.2587   -7.4442 H   0  0  0  0  0  0
   15.6770   42.0401   -6.8923 H   0  0  0  0  0  0
   17.1083   38.6534  -10.3189 H   0  0  0  0  0  0
   17.6928   39.7088   -9.0598 H   0  0  0  0  0  0
   17.1875   35.7543   -8.2723 H   0  0  0  0  0  0
   16.8896   36.3612   -9.9060 H   0  0  0  0  0  0
   15.6666   36.5666   -8.6389 H   0  0  0  0  0  0
   15.6589   44.1802   -7.1845 H   0  0  0  0  0  0
  1  2  1  0  0  0
  1 42  1  0  0  0
  1 43  1  0  0  0
  1 44  1  0  0  0
  2  3  1  0  0  0
  3  4  1  0  0  0
  3 45  1  0  0  0
  3 46  1  0  0  0
  4  9  1  0  0  0
  4  5  2  0  0  0
  5  6  1  0  0  0
  5 47  1  0  0  0
  6 25  1  0  0  0
  6  7  2  0  0  0
  7  8  1  0  0  0
  7 48  1  0  0  0
  8  9  2  0  0  0
  8 10  1  0  0  0
  9 49  1  0  0  0
 10 11  1  0  0  0
 10 50  1  0  0  0
 11 12  1  0  0  0
 11 51  1  0  0  0
 11 52  1  0  0  0
 12 13  1  0  0  0
 12 53  1  0  0  0
 12 54  1  0  0  0
 13 14  1  0  0  0
 13 55  1  0  0  0
 13 56  1  0  0  0
 14 15  1  0  0  0
 14 57  1  0  0  0
 14 58  1  0  0  0
 15 16  1  0  0  0
 16 21  1  0  0  0
 16 17  2  0  0  0
 17 18  1  0  0  0
 17 59  1  0  0  0
 18 19  2  0  0  0
 18 60  1  0  0  0
 19 20  1  0  0  0
 19 61  1  0  0  0
 20 21  2  0  0  0
 20 22  1  0  0  0
 21 62  1  0  0  0
 22 23  1  0  0  0
 22 63  1  0  0  0
 22 64  1  0  0  0
 23 38  1  0  0  0
 23 24  1  0  0  0
 23 27  1  0  0  0
 24 25  1  0  0  0
 24 65  1  0  0  0
 25 26  2  0  0  0
 27 39  1  0  0  0
 27 28  1  0  0  0
 27 37  1  0  0  0
 28 40  1  0  0  0
 28 33  1  0  0  0
 28 29  1  0  0  0
 29 30  1  0  0  0
 29 66  1  0  0  0
 29 67  1  0  0  0
 30 31  1  0  0  0
 31 41  1  0  0  0
 31 32  1  0  0  0
 31 34  1  0  0  0
 32 33  1  0  0  0
 32 68  1  0  0  0
 32 69  1  0  0  0
 33 70  1  0  0  0
 34 35  1  0  0  0
 34 71  1  0  0  0
 34 72  1  0  0  0
 35 36  1  0  0  0
 36 73  1  0  0  0
 36 74  1  0  0  0
 36 75  1  0  0  0
 37 76  1  0  0  0
M  END
> <s_m_source_file>
BACE_13.smi

> <i_m_source_file_index>
1

> <i_lp_mmshare_version>
42013

> <i_f3d_flags>
0

> <s_epik_input>
W0NIM11PW0NIMl1jKFtjSF1jMTIpW2NIXWMoW2NIXTEpW05IXVtDSDJdW0NIMl1bQ0gyXVtDSDJdT2MzW2NIXVtjSF1bY0hdYyhbY0hdMylbQ0gyXVtDQEhdKFtOSF1DMj1PKVtDQEhdKFtPSF0pW0NASF00W0NIMl1PW0NASF0oW0NIMl1bTkhdNClbQ0gyXU9bQ0gzXQ==

> <s_epik_cmdline>
J2VwaWtfcHl0aG9uJywgJy1waCcsICc3LjAnLCAnLXRuJywgJzgnLCAnLW1hJywgJzIwMCcsICctaW1hZScsICc8aW5maWxlLm1hZT4nLCAnLW9tYWUnLCAnPG91dGZpbGUubWFlPic=

> <r_lp_tautomer_probability>
1

> <r_epik_Ionization_Penalty>
  1.0247

> <r_epik_Ionization_Penalty_Charging>
  0.0000

> <r_epik_Ionization_Penalty_Neutral>
  1.0247

> <r_epik_State_Penalty>
  1.0749

> <r_epik_Charging_Adjusted_Penalty>
1.07494

> <i_epik_Tot_Q>
0

> <i_epik_Tot_abs_Q>
0

> <s_lp_Force_Field>
OPLS_2005

> <r_lp_Energy>
44.7965

> <b_lp_Chiralities_Consistent>
1

> <s_lp_Variant>
BACE_13.smi:1-2

> <chiral flag>
1

> <version>
0

> <r_i_glide_lipo>
-0.805819

> <r_i_glide_hbond>
-0.734486

> <r_i_glide_metal>
-0

> <r_i_glide_rewards>
0

> <r_i_glide_erotb>
0.310939

> <r_i_glide_esite>
-0.00333392

> <chiral flag>
1

> <s_i_glide_gridfile>
second_dock_grid_2

> <i_i_glide_lignum>
27

> <i_i_glide_rotatable_bonds>
7

> <r_i_docking_score>
-3.00553

> <r_i_glide_ligand_efficiency>
-0.0812306

> <r_i_glide_ligand_efficiency_sa>
-0.270678

> <r_i_glide_ligand_efficiency_ln>
-0.65183

> <r_glide_XP_GScore>
-4.08043

> <r_i_glide_gscore>
-4.08043

> <r_i_glide_evdw>
-41.1201

> <r_i_glide_ecoul>
-3.79733

> <r_i_glide_energy>
-44.9174

> <r_i_glide_einternal>
0

> <r_i_glide_emodel>
-59.9499

> <r_glide_XP_HBond>
-1.52948

> <i_i_glide_confnum>
1

> <i_i_glide_posenum>
7

> <r_i_glide_eff_state_penalty>
1.0749

> <i_glide_XP_PoseRank>
3

$$$$
BACE_13.smi:1
                    3D
 Structure written by MMmdl.
 76 79  0  0  1  0            999 V2000
   20.0731   49.6243   -6.9811 C   0  0  0  0  0  0
   20.9062   49.4382   -8.1147 O   0  0  0  0  0  0
   21.8780   48.4128   -7.9655 C   0  0  0  0  0  0
   21.2824   47.0168   -7.8827 C   0  0  0  0  0  0
   20.9675   46.3035   -9.0576 C   0  0  0  0  0  0
   20.4277   45.0000   -8.9849 C   0  0  0  0  0  0
   20.1827   44.4266   -7.7146 C   0  0  0  0  0  0
   20.4993   45.1340   -6.5280 C   0  0  0  0  0  0
   21.0526   46.4246   -6.6250 C   0  0  0  0  0  0
   20.2877   44.6219   -5.2405 N   0  0  0  0  0  0
   20.0601   43.2031   -5.0261 C   0  0  0  0  0  0
   21.3223   42.3622   -5.2515 C   0  0  0  0  0  0
   21.0618   40.8662   -5.0247 C   0  0  0  0  0  0
   22.2469   39.9933   -5.4667 C   0  0  0  0  0  0
   22.5226   40.1538   -6.8569 O   0  0  0  0  0  0
   21.5949   39.7220   -7.7787 C   0  0  0  0  0  0
   20.6498   38.6940   -7.5309 C   0  0  0  0  0  0
   19.7425   38.3079   -8.5343 C   0  0  0  0  0  0
   19.7554   38.9444   -9.7873 C   0  0  0  0  0  0
   20.6575   39.9997  -10.0308 C   0  0  0  0  0  0
   21.5951   40.3542   -9.0385 C   0  0  0  0  0  0
   20.6337   40.7261  -11.3665 C   0  0  0  0  0  0
   19.8744   42.0821  -11.4099 C   0  0  2  0  0  0
   20.1883   42.9392  -10.2556 N   0  0  0  0  0  0
   20.0564   44.2789  -10.2531 C   0  0  0  0  0  0
   19.6820   44.9066  -11.2439 O   0  0  0  0  0  0
   18.3351   41.9610  -11.6873 C   0  0  1  0  0  0
   17.3800   42.1062  -10.4651 C   0  0  1  0  0  0
   15.8855   42.1341  -10.8607 C   0  0  0  0  0  0
   15.0501   42.2196   -9.7052 O   0  0  0  0  0  0
   15.2312   41.1508   -8.7676 C   0  0  2  0  0  0
   16.7161   41.0875   -8.3554 C   0  0  0  0  0  0
   17.5818   41.0046   -9.5300 N   0  0  0  0  0  0
   14.6451   39.8166   -9.3023 C   0  0  0  0  0  0
   14.9113   38.6760   -8.4964 O   0  0  0  0  0  0
   14.4636   38.7627   -7.1485 C   0  0  0  0  0  0
   18.0112   42.9501  -12.6568 O   0  0  0  0  0  0
   20.3130   42.5507  -12.2865 H   0  0  0  0  0  0
   18.1345   41.0050  -12.1716 H   0  0  0  0  0  0
   17.5858   43.0476   -9.9591 H   0  0  0  0  0  0
   14.6638   41.4317   -7.8802 H   0  0  0  0  0  0
   19.4244   50.4838   -7.1469 H   0  0  0  0  0  0
   20.6628   49.8203   -6.0840 H   0  0  0  0  0  0
   19.4368   48.7591   -6.8004 H   0  0  0  0  0  0
   22.5043   48.6085   -7.0952 H   0  0  0  0  0  0
   22.5467   48.4539   -8.8279 H   0  0  0  0  0  0
   21.1385   46.7654  -10.0199 H   0  0  0  0  0  0
   19.7446   43.4411   -7.6603 H   0  0  0  0  0  0
   21.2973   46.9755   -5.7295 H   0  0  0  0  0  0
   20.6861   45.1200   -4.4556 H   0  0  0  0  0  0
   19.2614   42.8683   -5.6793 H   0  0  0  0  0  0
   19.6996   43.0638   -4.0045 H   0  0  0  0  0  0
   22.1200   42.7000   -4.5905 H   0  0  0  0  0  0
   21.6803   42.5131   -6.2691 H   0  0  0  0  0  0
   20.1587   40.5635   -5.5545 H   0  0  0  0  0  0
   20.8516   40.6913   -3.9677 H   0  0  0  0  0  0
   22.0881   38.9507   -5.2068 H   0  0  0  0  0  0
   23.1366   40.2918   -4.9143 H   0  0  0  0  0  0
   20.6108   38.1792   -6.5842 H   0  0  0  0  0  0
   19.0240   37.5264   -8.3388 H   0  0  0  0  0  0
   19.0440   38.6484  -10.5447 H   0  0  0  0  0  0
   22.3121   41.1399   -9.2317 H   0  0  0  0  0  0
   20.2552   40.0554  -12.1391 H   0  0  0  0  0  0
   21.6757   40.9013  -11.6410 H   0  0  0  0  0  0
   20.5362   42.4869   -9.4226 H   0  0  0  0  0  0
   15.6318   41.2703  -11.4741 H   0  0  0  0  0  0
   15.6749   43.0096  -11.4747 H   0  0  0  0  0  0
   16.8933   40.2401   -7.6933 H   0  0  0  0  0  0
   16.9682   41.9773   -7.7751 H   0  0  0  0  0  0
   18.5517   40.9482   -9.2400 H   0  0  0  0  0  0
   13.5705   39.9042   -9.4497 H   0  0  0  0  0  0
   15.0662   39.5712  -10.2714 H   0  0  0  0  0  0
   14.0949   37.7894   -6.8303 H   0  0  0  0  0  0
   13.6479   39.4691   -7.0059 H   0  0  0  0  0  0
   15.2886   39.0557   -6.4895 H   0  0  0  0  0  0
   18.2874   43.7906  -12.3047 H   0  0  0  0  0  0
  1  2  1  0  0  0
  1 42  1  0  0  0
  1 43  1  0  0  0
  1 44  1  0  0  0
  2  3  1  0  0  0
  3  4  1  0  0  0
  3 45  1  0  0  0
  3 46  1  0  0  0
  4  9  1  0  0  0
  4  5  2  0  0  0
  5  6  1  0  0  0
  5 47  1  0  0  0
  6 25  1  0  0  0
  6  7  2  0  0  0
  7  8  1  0  0  0
  7 48  1  0  0  0
  8  9  2  0  0  0
  8 10  1  0  0  0
  9 49  1  0  0  0
 10 11  1  0  0  0
 10 50  1  0  0  0
 11 12  1  0  0  0
 11 51  1  0  0  0
 11 52  1  0  0  0
 12 13  1  0  0  0
 12 53  1  0  0  0
 12 54  1  0  0  0
 13 14  1  0  0  0
 13 55  1  0  0  0
 13 56  1  0  0  0
 14 15  1  0  0  0
 14 57  1  0  0  0
 14 58  1  0  0  0
 15 16  1  0  0  0
 16 21  1  0  0  0
 16 17  2  0  0  0
 17 18  1  0  0  0
 17 59  1  0  0  0
 18 19  2  0  0  0
 18 60  1  0  0  0
 19 20  1  0  0  0
 19 61  1  0  0  0
 20 21  2  0  0  0
 20 22  1  0  0  0
 21 62  1  0  0  0
 22 23  1  0  0  0
 22 63  1  0  0  0
 22 64  1  0  0  0
 23 38  1  0  0  0
 23 24  1  0  0  0
 23 27  1  0  0  0
 24 25  1  0  0  0
 24 65  1  0  0  0
 25 26  2  0  0  0
 27 39  1  0  0  0
 27 28  1  0  0  0
 27 37  1  0  0  0
 28 40  1  0  0  0
 28 33  1  0  0  0
 28 29  1  0  0  0
 29 30  1  0  0  0
 29 66  1  0  0  0
 29 67  1  0  0  0
 30 31  1  0  0  0
 31 41  1  0  0  0
 31 32  1  0  0  0
 31 34  1  0  0  0
 32 33  1  0  0  0
 32 68  1  0  0  0
 32 69  1  0  0  0
 33 70  1  0  0  0
 34 35  1  0  0  0
 34 71  1  0  0  0
 34 72  1  0  0  0
 35 36  1  0  0  0
 36 73  1  0  0  0
 36 74  1  0  0  0
 36 75  1  0  0  0
 37 76  1  0  0  0
M  END
> <s_m_source_file>
BACE_13.smi

> <i_m_source_file_index>
1

> <i_lp_mmshare_version>
42013

> <i_f3d_flags>
0

> <s_epik_input>
W0NIM11PW0NIMl1jKFtjSF1jMTIpW2NIXWMoW2NIXTEpW05IXVtDSDJdW0NIMl1bQ0gyXVtDSDJdT2MzW2NIXVtjSF1bY0hdYyhbY0hdMylbQ0gyXVtDQEhdKFtOSF1DMj1PKVtDQEhdKFtPSF0pW0NASF00W0NIMl1PW0NASF0oW0NIMl1bTkhdNClbQ0gyXU9bQ0gzXQ==

> <s_epik_cmdline>
J2VwaWtfcHl0aG9uJywgJy1waCcsICc3LjAnLCAnLXRuJywgJzgnLCAnLW1hJywgJzIwMCcsICctaW1hZScsICc8aW5maWxlLm1hZT4nLCAnLW9tYWUnLCAnPG91dGZpbGUubWFlPic=

> <r_lp_tautomer_probability>
1

> <r_epik_Ionization_Penalty>
  1.0247

> <r_epik_Ionization_Penalty_Charging>
  0.0000

> <r_epik_Ionization_Penalty_Neutral>
  1.0247

> <r_epik_State_Penalty>
  1.0749

> <r_epik_Charging_Adjusted_Penalty>
1.07494

> <i_epik_Tot_Q>
0

> <i_epik_Tot_abs_Q>
0

> <s_lp_Force_Field>
OPLS_2005

> <r_lp_Energy>
44.7965

> <b_lp_Chiralities_Consistent>
1

> <s_lp_Variant>
BACE_13.smi:1-2

> <chiral flag>
1

> <version>
0

> <r_i_glide_lipo>
-0.805819

> <r_i_glide_hbond>
-0.734486

> <r_i_glide_metal>
-0

> <r_i_glide_rewards>
0

> <r_i_glide_erotb>
0.310939

> <r_i_glide_esite>
-0.00333392

> <chiral flag>
1

> <s_i_glide_gridfile>
second_dock_grid_2

> <i_i_glide_lignum>
27

> <i_i_glide_rotatable_bonds>
7

> <r_i_docking_score>
-2.85955

> <r_i_glide_ligand_efficiency>
-0.0772851

> <r_i_glide_ligand_efficiency_sa>
-0.257531

> <r_i_glide_ligand_efficiency_ln>
-0.620169

> <r_glide_XP_GScore>
-3.93445

> <r_i_glide_gscore>
-3.93445

> <r_i_glide_evdw>
-37.1988

> <r_i_glide_ecoul>
-7.44324

> <r_i_glide_energy>
-44.642

> <r_i_glide_einternal>
1.85249

> <r_i_glide_emodel>
-59.7374

> <r_glide_XP_HBond>
-1.52948

> <i_i_glide_confnum>
1

> <i_i_glide_posenum>
26

> <r_i_glide_eff_state_penalty>
1.0749

> <i_glide_XP_PoseRank>
4

$$$$
BACE_13.smi:1
                    3D
 Structure written by MMmdl.
 76 79  0  0  1  0            999 V2000
   20.2737   42.9081   -1.0942 C   0  0  0  0  0  0
   20.0673   42.9477   -2.4966 O   0  0  0  0  0  0
   21.1886   42.4866   -3.2348 C   0  0  0  0  0  0
   20.8203   42.1582   -4.6746 C   0  0  0  0  0  0
   20.0609   43.0695   -5.4324 C   0  0  0  0  0  0
   19.7130   42.7687   -6.7672 C   0  0  0  0  0  0
   20.1526   41.5517   -7.3377 C   0  0  0  0  0  0
   20.9176   40.6300   -6.5824 C   0  0  0  0  0  0
   21.2457   40.9452   -5.2482 C   0  0  0  0  0  0
   21.3741   39.4100   -7.1075 N   0  0  0  0  0  0
   20.7304   38.8394   -8.2844 C   0  0  0  0  0  0
   21.3735   39.3236   -9.5955 C   0  0  0  0  0  0
   20.3975   39.2013  -10.7748 C   0  0  0  0  0  0
   20.9383   39.7426  -12.1149 C   0  0  0  0  0  0
   21.6703   40.9641  -12.0051 O   0  0  0  0  0  0
   21.0260   42.1474  -11.7118 C   0  0  0  0  0  0
   21.8427   43.2868  -11.5670 C   0  0  0  0  0  0
   21.2869   44.5373  -11.2384 C   0  0  0  0  0  0
   19.9015   44.6580  -11.0303 C   0  0  0  0  0  0
   19.0689   43.5275  -11.1602 C   0  0  0  0  0  0
   19.6277   42.2851  -11.5325 C   0  0  0  0  0  0
   17.6054   43.6114  -10.8671 C   0  0  0  0  0  0
   17.2539   44.0233   -9.4071 C   0  0  2  0  0  0
   18.0481   43.2542   -8.4402 N   0  0  0  0  0  0
   18.9409   43.7656   -7.5829 C   0  0  0  0  0  0
   19.1118   44.9627   -7.4205 O   0  0  0  0  0  0
   15.7416   43.9222   -9.0352 C   0  0  1  0  0  0
   15.2851   42.5592   -8.5227 C   0  0  1  0  0  0
   14.8576   41.6694   -9.7076 C   0  0  0  0  0  0
   14.4582   40.3866   -9.2253 O   0  0  0  0  0  0
   15.5303   39.7241   -8.5549 C   0  0  2  0  0  0
   15.9765   40.5598   -7.3379 C   0  0  0  0  0  0
   16.3576   41.9164   -7.7522 N   0  0  0  0  0  0
   16.6932   39.4910   -9.5150 C   0  0  0  0  0  0
   17.1994   38.1789   -9.3242 O   0  0  0  0  0  0
   16.4815   37.4466   -8.3449 C   0  0  0  0  0  0
   15.4626   44.8908   -8.0388 O   0  0  0  0  0  0
   17.5376   45.0708   -9.3088 H   0  0  0  0  0  0
   15.1464   44.1914   -9.9085 H   0  0  0  0  0  0
   14.4229   42.7470   -7.8829 H   0  0  0  0  0  0
   15.1908   38.7412   -8.2280 H   0  0  0  0  0  0
   19.3823   43.2740   -0.5844 H   0  0  0  0  0  0
   21.1113   43.5407   -0.7972 H   0  0  0  0  0  0
   20.4622   41.8910   -0.7481 H   0  0  0  0  0  0
   21.6109   41.6050   -2.7496 H   0  0  0  0  0  0
   21.9680   43.2503   -3.2468 H   0  0  0  0  0  0
   19.7468   44.0021   -4.9874 H   0  0  0  0  0  0
   19.9117   41.3483   -8.3706 H   0  0  0  0  0  0
   21.8303   40.2616   -4.6503 H   0  0  0  0  0  0
   21.8148   38.7632   -6.4692 H   0  0  0  0  0  0
   19.6734   39.1054   -8.2770 H   0  0  0  0  0  0
   20.7561   37.7517   -8.2174 H   0  0  0  0  0  0
   22.2875   38.7648   -9.7968 H   0  0  0  0  0  0
   21.6748   40.3668   -9.5001 H   0  0  0  0  0  0
   19.4691   39.7202  -10.5365 H   0  0  0  0  0  0
   20.1161   38.1535  -10.8805 H   0  0  0  0  0  0
   20.1392   39.8348  -12.8505 H   0  0  0  0  0  0
   21.6305   39.0082  -12.5268 H   0  0  0  0  0  0
   22.9104   43.2007  -11.7051 H   0  0  0  0  0  0
   21.9269   45.4005  -11.1306 H   0  0  0  0  0  0
   19.4857   45.6158  -10.7542 H   0  0  0  0  0  0
   18.9634   41.4428  -11.6578 H   0  0  0  0  0  0
   17.1315   42.6557  -11.0911 H   0  0  0  0  0  0
   17.1731   44.3272  -11.5663 H   0  0  0  0  0  0
   17.9491   42.2492   -8.4595 H   0  0  0  0  0  0
   15.6660   41.5672  -10.4316 H   0  0  0  0  0  0
   14.0201   42.1268  -10.2343 H   0  0  0  0  0  0
   16.8094   40.0678   -6.8354 H   0  0  0  0  0  0
   15.1645   40.6024   -6.6120 H   0  0  0  0  0  0
   16.5485   42.4700   -6.9293 H   0  0  0  0  0  0
   16.3734   39.6401  -10.5478 H   0  0  0  0  0  0
   17.4887   40.2099   -9.3114 H   0  0  0  0  0  0
   16.9160   36.4522   -8.2425 H   0  0  0  0  0  0
   15.4344   37.3260   -8.6259 H   0  0  0  0  0  0
   16.5292   37.9338   -7.3700 H   0  0  0  0  0  0
   15.6564   44.5157   -7.1934 H   0  0  0  0  0  0
  1  2  1  0  0  0
  1 42  1  0  0  0
  1 43  1  0  0  0
  1 44  1  0  0  0
  2  3  1  0  0  0
  3  4  1  0  0  0
  3 45  1  0  0  0
  3 46  1  0  0  0
  4  9  1  0  0  0
  4  5  2  0  0  0
  5  6  1  0  0  0
  5 47  1  0  0  0
  6 25  1  0  0  0
  6  7  2  0  0  0
  7  8  1  0  0  0
  7 48  1  0  0  0
  8  9  2  0  0  0
  8 10  1  0  0  0
  9 49  1  0  0  0
 10 11  1  0  0  0
 10 50  1  0  0  0
 11 12  1  0  0  0
 11 51  1  0  0  0
 11 52  1  0  0  0
 12 13  1  0  0  0
 12 53  1  0  0  0
 12 54  1  0  0  0
 13 14  1  0  0  0
 13 55  1  0  0  0
 13 56  1  0  0  0
 14 15  1  0  0  0
 14 57  1  0  0  0
 14 58  1  0  0  0
 15 16  1  0  0  0
 16 21  1  0  0  0
 16 17  2  0  0  0
 17 18  1  0  0  0
 17 59  1  0  0  0
 18 19  2  0  0  0
 18 60  1  0  0  0
 19 20  1  0  0  0
 19 61  1  0  0  0
 20 21  2  0  0  0
 20 22  1  0  0  0
 21 62  1  0  0  0
 22 23  1  0  0  0
 22 63  1  0  0  0
 22 64  1  0  0  0
 23 38  1  0  0  0
 23 24  1  0  0  0
 23 27  1  0  0  0
 24 25  1  0  0  0
 24 65  1  0  0  0
 25 26  2  0  0  0
 27 39  1  0  0  0
 27 28  1  0  0  0
 27 37  1  0  0  0
 28 40  1  0  0  0
 28 33  1  0  0  0
 28 29  1  0  0  0
 29 30  1  0  0  0
 29 66  1  0  0  0
 29 67  1  0  0  0
 30 31  1  0  0  0
 31 41  1  0  0  0
 31 32  1  0  0  0
 31 34  1  0  0  0
 32 33  1  0  0  0
 32 68  1  0  0  0
 32 69  1  0  0  0
 33 70  1  0  0  0
 34 35  1  0  0  0
 34 71  1  0  0  0
 34 72  1  0  0  0
 35 36  1  0  0  0
 36 73  1  0  0  0
 36 74  1  0  0  0
 36 75  1  0  0  0
 37 76  1  0  0  0
M  END
> <s_m_source_file>
BACE_13.smi

> <i_m_source_file_index>
1

> <i_lp_mmshare_version>
42013

> <i_f3d_flags>
0

> <s_epik_input>
W0NIM11PW0NIMl1jKFtjSF1jMTIpW2NIXWMoW2NIXTEpW05IXVtDSDJdW0NIMl1bQ0gyXVtDSDJdT2MzW2NIXVtjSF1bY0hdYyhbY0hdMylbQ0gyXVtDQEhdKFtOSF1DMj1PKVtDQEhdKFtPSF0pW0NASF00W0NIMl1PW0NASF0oW0NIMl1bTkhdNClbQ0gyXU9bQ0gzXQ==

> <s_epik_cmdline>
J2VwaWtfcHl0aG9uJywgJy1waCcsICc3LjAnLCAnLXRuJywgJzgnLCAnLW1hJywgJzIwMCcsICctaW1hZScsICc8aW5maWxlLm1hZT4nLCAnLW9tYWUnLCAnPG91dGZpbGUubWFlPic=

> <r_lp_tautomer_probability>
1

> <r_epik_Ionization_Penalty>
  1.0247

> <r_epik_Ionization_Penalty_Charging>
  0.0000

> <r_epik_Ionization_Penalty_Neutral>
  1.0247

> <r_epik_State_Penalty>
  1.0749

> <r_epik_Charging_Adjusted_Penalty>
1.07494

> <i_epik_Tot_Q>
0

> <i_epik_Tot_abs_Q>
0

> <s_lp_Force_Field>
OPLS_2005

> <r_lp_Energy>
44.7965

> <b_lp_Chiralities_Consistent>
1

> <s_lp_Variant>
BACE_13.smi:1-2

> <chiral flag>
1

> <version>
0

> <r_i_glide_lipo>
-0.805819

> <r_i_glide_hbond>
-0.734486

> <r_i_glide_metal>
-0

> <r_i_glide_rewards>
0

> <r_i_glide_erotb>
0.310939

> <r_i_glide_esite>
-0.00333392

> <chiral flag>
1

> <s_i_glide_gridfile>
second_dock_grid_2

> <i_i_glide_lignum>
27

> <i_i_glide_rotatable_bonds>
7

> <r_i_docking_score>
-2.43064

> <r_i_glide_ligand_efficiency>
-0.0656931

> <r_i_glide_ligand_efficiency_sa>
-0.218904

> <r_i_glide_ligand_efficiency_ln>
-0.52715

> <r_glide_XP_GScore>
-3.50554

> <r_i_glide_gscore>
-3.50554

> <r_i_glide_evdw>
-38.7683

> <r_i_glide_ecoul>
-1.94954

> <r_i_glide_energy>
-40.7179

> <r_i_glide_einternal>
0

> <r_i_glide_emodel>
-57.9427

> <r_glide_XP_HBond>
-1.52948

> <i_i_glide_confnum>
1

> <i_i_glide_posenum>
22

> <r_i_glide_eff_state_penalty>
1.0749

> <i_glide_XP_PoseRank>
5

$$$$
BACE_13.smi:1
                    3D
 Structure written by MMmdl.
 76 79  0  0  1  0            999 V2000
   19.9088   49.6530   -6.7045 C   0  0  0  0  0  0
   20.7858   49.5342   -7.8124 O   0  0  0  0  0  0
   21.7450   48.4933   -7.6833 C   0  0  0  0  0  0
   21.1372   47.1016   -7.6983 C   0  0  0  0  0  0
   20.7360   46.5112   -8.9146 C   0  0  0  0  0  0
   20.1842   45.2102   -8.9338 C   0  0  0  0  0  0
   20.0178   44.5180   -7.7113 C   0  0  0  0  0  0
   20.4148   45.1046   -6.4822 C   0  0  0  0  0  0
   20.9756   46.3952   -6.4899 C   0  0  0  0  0  0
   20.2708   44.4672   -5.2405 N   0  0  0  0  0  0
   20.0621   43.0263   -5.1589 C   0  0  0  0  0  0
   21.3256   42.2222   -5.4958 C   0  0  0  0  0  0
   21.0764   40.7049   -5.4520 C   0  0  0  0  0  0
   22.2470   39.8950   -6.0407 C   0  0  0  0  0  0
   22.4597   40.2191   -7.4130 O   0  0  0  0  0  0
   21.5091   39.8453   -8.3408 C   0  0  0  0  0  0
   20.6392   38.7360   -8.1886 C   0  0  0  0  0  0
   19.7003   38.4263   -9.1922 C   0  0  0  0  0  0
   19.6093   39.2228  -10.3479 C   0  0  0  0  0  0
   20.4533   40.3455  -10.5016 C   0  0  0  0  0  0
   21.4174   40.6275   -9.5107 C   0  0  0  0  0  0
   20.3413   41.2245  -11.7416 C   0  0  0  0  0  0
   19.5153   42.5348  -11.5879 C   0  0  2  0  0  0
   19.8818   43.2833  -10.3784 N   0  0  0  0  0  0
   19.7277   44.6127  -10.2358 C   0  0  0  0  0  0
   19.2644   45.3253  -11.1269 O   0  0  0  0  0  0
   17.9703   42.3521  -11.7625 C   0  0  1  0  0  0
   17.0980   42.4271  -10.4786 C   0  0  1  0  0  0
   15.5850   42.3567  -10.7934 C   0  0  0  0  0  0
   14.8134   42.3157   -9.5961 O   0  0  0  0  0  0
   15.1468   41.2293   -8.7288 C   0  0  2  0  0  0
   16.6386   41.3185   -8.3641 C   0  0  0  0  0  0
   17.4535   41.3367   -9.5731 N   0  0  0  0  0  0
   14.7349   39.8588   -9.3260 C   0  0  0  0  0  0
   15.0869   38.7575   -8.5041 O   0  0  0  0  0  0
   14.4606   38.7595   -7.2336 C   0  0  0  0  0  0
   17.5332   43.3383  -12.6873 O   0  0  0  0  0  0
   19.8404   43.1317  -12.4366 H   0  0  0  0  0  0
   17.7788   41.3931  -12.2464 H   0  0  0  0  0  0
   17.2695   43.3776   -9.9724 H   0  0  0  0  0  0
   14.5710   41.3921   -7.8175 H   0  0  0  0  0  0
   19.2688   50.5227   -6.8478 H   0  0  0  0  0  0
   20.4605   49.7899   -5.7708 H   0  0  0  0  0  0
   19.2625   48.7782   -6.6075 H   0  0  0  0  0  0
   22.3369   48.6405   -6.7788 H   0  0  0  0  0  0
   22.4431   48.5708   -8.5171 H   0  0  0  0  0  0
   20.8535   47.0606   -9.8380 H   0  0  0  0  0  0
   19.5678   43.5384   -7.7288 H   0  0  0  0  0  0
   21.2847   46.8525   -5.5607 H   0  0  0  0  0  0
   20.6426   44.9087   -4.4050 H   0  0  0  0  0  0
   19.2604   42.7334   -5.8285 H   0  0  0  0  0  0
   19.7269   42.7838   -4.1502 H   0  0  0  0  0  0
   22.1328   42.4838   -4.8104 H   0  0  0  0  0  0
   21.6706   42.4979   -6.4918 H   0  0  0  0  0  0
   20.1562   40.4651   -5.9862 H   0  0  0  0  0  0
   20.9101   40.3955   -4.4186 H   0  0  0  0  0  0
   22.1256   38.8228   -5.8926 H   0  0  0  0  0  0
   23.1564   40.1520   -5.4969 H   0  0  0  0  0  0
   20.6753   38.1080   -7.3124 H   0  0  0  0  0  0
   19.0424   37.5765   -9.0685 H   0  0  0  0  0  0
   18.8736   38.9846  -11.1027 H   0  0  0  0  0  0
   22.0880   41.4686   -9.6309 H   0  0  0  0  0  0
   19.9601   40.6293  -12.5731 H   0  0  0  0  0  0
   21.3596   41.4908  -12.0321 H   0  0  0  0  0  0
   20.3055   42.7649   -9.6221 H   0  0  0  0  0  0
   15.3550   41.5089  -11.4378 H   0  0  0  0  0  0
   15.2729   43.2442  -11.3448 H   0  0  0  0  0  0
   16.9295   40.4843   -7.7249 H   0  0  0  0  0  0
   16.8150   42.2231   -7.7813 H   0  0  0  0  0  0
   18.4394   41.3699   -9.3345 H   0  0  0  0  0  0
   13.6644   39.8411   -9.5390 H   0  0  0  0  0  0
   15.2332   39.6780  -10.2773 H   0  0  0  0  0  0
   14.4600   37.7495   -6.8399 H   0  0  0  0  0  0
   13.4280   39.0849   -7.3024 H   0  0  0  0  0  0
   14.9688   39.4062   -6.5199 H   0  0  0  0  0  0
   17.8389   44.1819  -12.3693 H   0  0  0  0  0  0
  1  2  1  0  0  0
  1 42  1  0  0  0
  1 43  1  0  0  0
  1 44  1  0  0  0
  2  3  1  0  0  0
  3  4  1  0  0  0
  3 45  1  0  0  0
  3 46  1  0  0  0
  4  9  1  0  0  0
  4  5  2  0  0  0
  5  6  1  0  0  0
  5 47  1  0  0  0
  6 25  1  0  0  0
  6  7  2  0  0  0
  7  8  1  0  0  0
  7 48  1  0  0  0
  8  9  2  0  0  0
  8 10  1  0  0  0
  9 49  1  0  0  0
 10 11  1  0  0  0
 10 50  1  0  0  0
 11 12  1  0  0  0
 11 51  1  0  0  0
 11 52  1  0  0  0
 12 13  1  0  0  0
 12 53  1  0  0  0
 12 54  1  0  0  0
 13 14  1  0  0  0
 13 55  1  0  0  0
 13 56  1  0  0  0
 14 15  1  0  0  0
 14 57  1  0  0  0
 14 58  1  0  0  0
 15 16  1  0  0  0
 16 21  1  0  0  0
 16 17  2  0  0  0
 17 18  1  0  0  0
 17 59  1  0  0  0
 18 19  2  0  0  0
 18 60  1  0  0  0
 19 20  1  0  0  0
 19 61  1  0  0  0
 20 21  2  0  0  0
 20 22  1  0  0  0
 21 62  1  0  0  0
 22 23  1  0  0  0
 22 63  1  0  0  0
 22 64  1  0  0  0
 23 38  1  0  0  0
 23 24  1  0  0  0
 23 27  1  0  0  0
 24 25  1  0  0  0
 24 65  1  0  0  0
 25 26  2  0  0  0
 27 39  1  0  0  0
 27 28  1  0  0  0
 27 37  1  0  0  0
 28 40  1  0  0  0
 28 33  1  0  0  0
 28 29  1  0  0  0
 29 30  1  0  0  0
 29 66  1  0  0  0
 29 67  1  0  0  0
 30 31  1  0  0  0
 31 41  1  0  0  0
 31 32  1  0  0  0
 31 34  1  0  0  0
 32 33  1  0  0  0
 32 68  1  0  0  0
 32 69  1  0  0  0
 33 70  1  0  0  0
 34 35  1  0  0  0
 34 71  1  0  0  0
 34 72  1  0  0  0
 35 36  1  0  0  0
 36 73  1  0  0  0
 36 74  1  0  0  0
 36 75  1  0  0  0
 37 76  1  0  0  0
M  END
> <s_m_source_file>
BACE_13.smi

> <i_m_source_file_index>
1

> <i_lp_mmshare_version>
42013

> <i_f3d_flags>
0

> <s_epik_input>
W0NIM11PW0NIMl1jKFtjSF1jMTIpW2NIXWMoW2NIXTEpW05IXVtDSDJdW0NIMl1bQ0gyXVtDSDJdT2MzW2NIXVtjSF1bY0hdYyhbY0hdMylbQ0gyXVtDQEhdKFtOSF1DMj1PKVtDQEhdKFtPSF0pW0NASF00W0NIMl1PW0NASF0oW0NIMl1bTkhdNClbQ0gyXU9bQ0gzXQ==

> <s_epik_cmdline>
J2VwaWtfcHl0aG9uJywgJy1waCcsICc3LjAnLCAnLXRuJywgJzgnLCAnLW1hJywgJzIwMCcsICctaW1hZScsICc8aW5maWxlLm1hZT4nLCAnLW9tYWUnLCAnPG91dGZpbGUubWFlPic=

> <r_lp_tautomer_probability>
1

> <r_epik_Ionization_Penalty>
  1.0247

> <r_epik_Ionization_Penalty_Charging>
  0.0000

> <r_epik_Ionization_Penalty_Neutral>
  1.0247

> <r_epik_State_Penalty>
  1.0749

> <r_epik_Charging_Adjusted_Penalty>
1.07494

> <i_epik_Tot_Q>
0

> <i_epik_Tot_abs_Q>
0

> <s_lp_Force_Field>
OPLS_2005

> <r_lp_Energy>
44.7965

> <b_lp_Chiralities_Consistent>
1

> <s_lp_Variant>
BACE_13.smi:1-2

> <chiral flag>
1

> <version>
0

> <r_i_glide_lipo>
-0.805819

> <r_i_glide_hbond>
-0.734486

> <r_i_glide_metal>
-0

> <r_i_glide_rewards>
0

> <r_i_glide_erotb>
0.310939

> <r_i_glide_esite>
-0.00333392

> <chiral flag>
1

> <s_i_glide_gridfile>
second_dock_grid_2

> <i_i_glide_lignum>
27

> <i_i_glide_rotatable_bonds>
7

> <r_i_docking_score>
-2.26314

> <r_i_glide_ligand_efficiency>
-0.061166

> <r_i_glide_ligand_efficiency_sa>
-0.203819

> <r_i_glide_ligand_efficiency_ln>
-0.490822

> <r_glide_XP_GScore>
-3.33804

> <r_i_glide_gscore>
-3.33804

> <r_i_glide_evdw>
-36.0056

> <r_i_glide_ecoul>
-7.9325

> <r_i_glide_energy>
-43.9381

> <r_i_glide_einternal>
1.43043

> <r_i_glide_emodel>
-59.2666

> <r_glide_XP_HBond>
-1.52948

> <i_i_glide_confnum>
1

> <i_i_glide_posenum>
42

> <r_i_glide_eff_state_penalty>
1.0749

> <i_glide_XP_PoseRank>
6

$$$$
BACE_13.smi:1
                    3D
 Structure written by MMmdl.
 76 79  0  0  1  0            999 V2000
   20.3862   49.7491   -6.0467 C   0  0  0  0  0  0
   21.6664   49.2719   -6.4273 O   0  0  0  0  0  0
   21.6806   48.6081   -7.6863 C   0  0  0  0  0  0
   21.0647   47.2169   -7.6705 C   0  0  0  0  0  0
   20.6092   46.6472   -8.8769 C   0  0  0  0  0  0
   20.0713   45.3422   -8.9001 C   0  0  0  0  0  0
   19.9699   44.6178   -7.6900 C   0  0  0  0  0  0
   20.4251   45.1776   -6.4697 C   0  0  0  0  0  0
   20.9816   46.4710   -6.4759 C   0  0  0  0  0  0
   20.3482   44.5037   -5.2400 N   0  0  0  0  0  0
   20.1064   43.0685   -5.1786 C   0  0  0  0  0  0
   21.3296   42.2455   -5.6072 C   0  0  0  0  0  0
   21.0407   40.7355   -5.6166 C   0  0  0  0  0  0
   22.1981   39.9229   -6.2214 C   0  0  0  0  0  0
   22.4293   40.2874   -7.5798 O   0  0  0  0  0  0
   21.4864   39.9532   -8.5287 C   0  0  0  0  0  0
   20.6318   38.8271   -8.4373 C   0  0  0  0  0  0
   19.7045   38.5536   -9.4611 C   0  0  0  0  0  0
   19.6060   39.4084  -10.5754 C   0  0  0  0  0  0
   20.4288   40.5501  -10.6637 C   0  0  0  0  0  0
   21.3855   40.7952   -9.6548 C   0  0  0  0  0  0
   20.2991   41.4973  -11.8471 C   0  0  0  0  0  0
   19.3972   42.7410  -11.6191 C   0  0  2  0  0  0
   19.7608   43.4559  -10.3896 N   0  0  0  0  0  0
   19.5625   44.7711  -10.1938 C   0  0  0  0  0  0
   19.0290   45.4971  -11.0344 O   0  0  0  0  0  0
   17.8651   42.4403  -11.7485 C   0  0  1  0  0  0
   17.0181   42.4962  -10.4464 C   0  0  1  0  0  0
   15.4969   42.4230  -10.7147 C   0  0  0  0  0  0
   14.7673   42.3779   -9.4903 O   0  0  0  0  0  0
   15.1210   41.2813   -8.6433 C   0  0  2  0  0  0
   16.6262   41.3606   -8.3301 C   0  0  0  0  0  0
   17.4026   41.3961   -9.5650 N   0  0  0  0  0  0
   14.6689   39.9205   -9.2340 C   0  0  0  0  0  0
   15.0787   38.7961   -8.4746 O   0  0  0  0  0  0
   14.6095   38.7837   -7.1385 C   0  0  0  0  0  0
   17.3408   43.3518  -12.7002 O   0  0  0  0  0  0
   19.6600   43.4076  -12.4400 H   0  0  0  0  0  0
   17.7299   41.4539  -12.1948 H   0  0  0  0  0  0
   17.1913   43.4417   -9.9349 H   0  0  0  0  0  0
   14.5849   41.4411   -7.7086 H   0  0  0  0  0  0
   20.4614   50.2349   -5.0741 H   0  0  0  0  0  0
   19.6549   48.9454   -5.9638 H   0  0  0  0  0  0
   20.0131   50.4839   -6.7600 H   0  0  0  0  0  0
   22.7214   48.5036   -7.9953 H   0  0  0  0  0  0
   21.1956   49.2265   -8.4444 H   0  0  0  0  0  0
   20.6812   47.2150   -9.7938 H   0  0  0  0  0  0
   19.5299   43.6327   -7.7120 H   0  0  0  0  0  0
   21.3429   46.9021   -5.5535 H   0  0  0  0  0  0
   20.7342   44.9316   -4.4029 H   0  0  0  0  0  0
   19.2595   42.8134   -5.8060 H   0  0  0  0  0  0
   19.8251   42.8085   -4.1580 H   0  0  0  0  0  0
   22.1707   42.4549   -4.9445 H   0  0  0  0  0  0
   21.6416   42.5538   -6.6055 H   0  0  0  0  0  0
   20.1191   40.5388   -6.1662 H   0  0  0  0  0  0
   20.8552   40.3974   -4.5964 H   0  0  0  0  0  0
   22.0438   38.8514   -6.1056 H   0  0  0  0  0  0
   23.1080   40.1500   -5.6657 H   0  0  0  0  0  0
   20.6755   38.1514   -7.5979 H   0  0  0  0  0  0
   19.0614   37.6891   -9.3879 H   0  0  0  0  0  0
   18.8780   39.1966  -11.3463 H   0  0  0  0  0  0
   22.0416   41.6505   -9.7289 H   0  0  0  0  0  0
   19.9595   40.9392  -12.7210 H   0  0  0  0  0  0
   21.3054   41.8350  -12.1014 H   0  0  0  0  0  0
   20.2338   42.9306   -9.6687 H   0  0  0  0  0  0
   15.2477   41.5801  -11.3580 H   0  0  0  0  0  0
   15.1665   43.3143  -11.2491 H   0  0  0  0  0  0
   16.9331   40.5151   -7.7138 H   0  0  0  0  0  0
   16.8283   42.2555   -7.7401 H   0  0  0  0  0  0
   18.3956   41.4276   -9.3548 H   0  0  0  0  0  0
   13.5858   39.8993   -9.3553 H   0  0  0  0  0  0
   15.0892   39.7625  -10.2253 H   0  0  0  0  0  0
   14.4601   37.7500   -6.8398 H   0  0  0  0  0  0
   13.6594   39.2996   -7.0213 H   0  0  0  0  0  0
   15.3323   39.2419   -6.4622 H   0  0  0  0  0  0
   17.5412   44.2281  -12.3927 H   0  0  0  0  0  0
  1  2  1  0  0  0
  1 42  1  0  0  0
  1 43  1  0  0  0
  1 44  1  0  0  0
  2  3  1  0  0  0
  3  4  1  0  0  0
  3 45  1  0  0  0
  3 46  1  0  0  0
  4  9  1  0  0  0
  4  5  2  0  0  0
  5  6  1  0  0  0
  5 47  1  0  0  0
  6 25  1  0  0  0
  6  7  2  0  0  0
  7  8  1  0  0  0
  7 48  1  0  0  0
  8  9  2  0  0  0
  8 10  1  0  0  0
  9 49  1  0  0  0
 10 11  1  0  0  0
 10 50  1  0  0  0
 11 12  1  0  0  0
 11 51  1  0  0  0
 11 52  1  0  0  0
 12 13  1  0  0  0
 12 53  1  0  0  0
 12 54  1  0  0  0
 13 14  1  0  0  0
 13 55  1  0  0  0
 13 56  1  0  0  0
 14 15  1  0  0  0
 14 57  1  0  0  0
 14 58  1  0  0  0
 15 16  1  0  0  0
 16 21  1  0  0  0
 16 17  2  0  0  0
 17 18  1  0  0  0
 17 59  1  0  0  0
 18 19  2  0  0  0
 18 60  1  0  0  0
 19 20  1  0  0  0
 19 61  1  0  0  0
 20 21  2  0  0  0
 20 22  1  0  0  0
 21 62  1  0  0  0
 22 23  1  0  0  0
 22 63  1  0  0  0
 22 64  1  0  0  0
 23 38  1  0  0  0
 23 24  1  0  0  0
 23 27  1  0  0  0
 24 25  1  0  0  0
 24 65  1  0  0  0
 25 26  2  0  0  0
 27 39  1  0  0  0
 27 28  1  0  0  0
 27 37  1  0  0  0
 28 40  1  0  0  0
 28 33  1  0  0  0
 28 29  1  0  0  0
 29 30  1  0  0  0
 29 66  1  0  0  0
 29 67  1  0  0  0
 30 31  1  0  0  0
 31 41  1  0  0  0
 31 32  1  0  0  0
 31 34  1  0  0  0
 32 33  1  0  0  0
 32 68  1  0  0  0
 32 69  1  0  0  0
 33 70  1  0  0  0
 34 35  1  0  0  0
 34 71  1  0  0  0
 34 72  1  0  0  0
 35 36  1  0  0  0
 36 73  1  0  0  0
 36 74  1  0  0  0
 36 75  1  0  0  0
 37 76  1  0  0  0
M  END
> <s_m_source_file>
BACE_13.smi

> <i_m_source_file_index>
1

> <i_lp_mmshare_version>
42013

> <i_f3d_flags>
0

> <s_epik_input>
W0NIM11PW0NIMl1jKFtjSF1jMTIpW2NIXWMoW2NIXTEpW05IXVtDSDJdW0NIMl1bQ0gyXVtDSDJdT2MzW2NIXVtjSF1bY0hdYyhbY0hdMylbQ0gyXVtDQEhdKFtOSF1DMj1PKVtDQEhdKFtPSF0pW0NASF00W0NIMl1PW0NASF0oW0NIMl1bTkhdNClbQ0gyXU9bQ0gzXQ==

> <s_epik_cmdline>
J2VwaWtfcHl0aG9uJywgJy1waCcsICc3LjAnLCAnLXRuJywgJzgnLCAnLW1hJywgJzIwMCcsICctaW1hZScsICc8aW5maWxlLm1hZT4nLCAnLW9tYWUnLCAnPG91dGZpbGUubWFlPic=

> <r_lp_tautomer_probability>
1

> <r_epik_Ionization_Penalty>
  1.0247

> <r_epik_Ionization_Penalty_Charging>
  0.0000

> <r_epik_Ionization_Penalty_Neutral>
  1.0247

> <r_epik_State_Penalty>
  1.0749

> <r_epik_Charging_Adjusted_Penalty>
1.07494

> <i_epik_Tot_Q>
0

> <i_epik_Tot_abs_Q>
0

> <s_lp_Force_Field>
OPLS_2005

> <r_lp_Energy>
44.7965

> <b_lp_Chiralities_Consistent>
1

> <s_lp_Variant>
BACE_13.smi:1-2

> <chiral flag>
1

> <version>
0

> <r_i_glide_lipo>
-0.805819

> <r_i_glide_hbond>
-0.734486

> <r_i_glide_metal>
-0

> <r_i_glide_rewards>
0

> <r_i_glide_erotb>
0.310939

> <r_i_glide_esite>
-0.00333392

> <chiral flag>
1

> <s_i_glide_gridfile>
second_dock_grid_2

> <i_i_glide_lignum>
27

> <i_i_glide_rotatable_bonds>
7

> <r_i_docking_score>
-2.22705

> <r_i_glide_ligand_efficiency>
-0.0601906

> <r_i_glide_ligand_efficiency_sa>
-0.200568

> <r_i_glide_ligand_efficiency_ln>
-0.482995

> <r_glide_XP_GScore>
-3.30195

> <r_i_glide_gscore>
-3.30195

> <r_i_glide_evdw>
-37.3295

> <r_i_glide_ecoul>
-8.68534

> <r_i_glide_energy>
-46.0148

> <r_i_glide_einternal>
1.52321

> <r_i_glide_emodel>
-62.6156

> <r_glide_XP_HBond>
-1.52948

> <i_i_glide_confnum>
1

> <i_i_glide_posenum>
17

> <r_i_glide_eff_state_penalty>
1.0749

> <i_glide_XP_PoseRank>
7

$$$$
BACE_13.smi:1
                    3D
 Structure written by MMmdl.
 76 79  0  0  1  0            999 V2000
   18.8052   42.0069  -12.7368 C   0  0  0  0  0  0
   18.3848   43.3496  -12.9620 O   0  0  0  0  0  0
   17.3964   43.8381  -12.0567 C   0  0  0  0  0  0
   17.6913   43.5407  -10.5980 C   0  0  0  0  0  0
   18.9853   43.7520  -10.0900 C   0  0  0  0  0  0
   19.3228   43.3021   -8.7970 C   0  0  0  0  0  0
   18.3190   42.7673   -7.9626 C   0  0  0  0  0  0
   17.0107   42.5823   -8.4540 C   0  0  0  0  0  0
   16.7011   42.9705   -9.7752 C   0  0  0  0  0  0
   16.0604   41.9577   -7.6402 N   0  0  0  0  0  0
   15.2275   40.8970   -8.1952 C   0  0  0  0  0  0
   16.0465   39.7038   -8.7183 C   0  0  0  0  0  0
   16.8035   38.9656   -7.6035 C   0  0  0  0  0  0
   17.7063   37.8403   -8.1435 C   0  0  0  0  0  0
   18.8009   38.3538   -8.9050 O   0  0  0  0  0  0
   19.8746   38.9249   -8.2477 C   0  0  0  0  0  0
   20.0218   38.9501   -6.8385 C   0  0  0  0  0  0
   21.1426   39.5566   -6.2420 C   0  0  0  0  0  0
   22.1332   40.1476   -7.0423 C   0  0  0  0  0  0
   22.0021   40.1434   -8.4442 C   0  0  0  0  0  0
   20.8803   39.5220   -9.0400 C   0  0  0  0  0  0
   23.0456   40.8602   -9.2894 C   0  0  0  0  0  0
   22.9653   42.4084   -9.1860 C   0  0  2  0  0  0
   21.5827   42.8523   -9.3270 N   0  0  0  0  0  0
   20.7534   43.2813   -8.3628 C   0  0  0  0  0  0
   21.0874   43.5184   -7.2027 O   0  0  0  0  0  0
   23.8414   43.1896  -10.1980 C   0  0  1  0  0  0
   25.3627   42.9398  -10.0205 C   0  0  1  0  0  0
   25.9494   41.7815  -10.8538 C   0  0  0  0  0  0
   27.3128   41.6021  -10.4919 O   0  0  0  0  0  0
   28.1259   42.7442  -10.7431 C   0  0  2  0  0  0
   27.5565   43.9802  -10.0115 C   0  0  0  0  0  0
   26.1289   44.1614  -10.2864 N   0  0  0  0  0  0
   28.3768   42.9522  -12.2570 C   0  0  0  0  0  0
   29.7643   43.0236  -12.5568 O   0  0  0  0  0  0
   30.3810   41.7504  -12.6726 C   0  0  0  0  0  0
   23.4048   42.9490  -11.5297 O   0  0  0  0  0  0
   23.3034   42.6833   -8.1860 H   0  0  0  0  0  0
   23.6505   44.2477  -10.0072 H   0  0  0  0  0  0
   25.5141   42.6870   -8.9702 H   0  0  0  0  0  0
   29.0843   42.5201  -10.2742 H   0  0  0  0  0  0
   19.2600   41.6093  -13.6399 H   0  0  0  0  0  0
   17.9796   41.3569  -12.4408 H   0  0  0  0  0  0
   19.5667   41.9523  -11.9603 H   0  0  0  0  0  0
   16.4354   43.4037  -12.3282 H   0  0  0  0  0  0
   17.2974   44.9163  -12.1881 H   0  0  0  0  0  0
   19.7418   44.1690  -10.7409 H   0  0  0  0  0  0
   18.5729   42.4167   -6.9714 H   0  0  0  0  0  0
   15.7104   42.8030  -10.1706 H   0  0  0  0  0  0
   16.2865   41.8483   -6.6559 H   0  0  0  0  0  0
   14.5900   41.2966   -8.9841 H   0  0  0  0  0  0
   14.5542   40.5553   -7.4070 H   0  0  0  0  0  0
   16.7456   40.0361   -9.4874 H   0  0  0  0  0  0
   15.3707   39.0014   -9.2083 H   0  0  0  0  0  0
   16.0776   38.5494   -6.9045 H   0  0  0  0  0  0
   17.3934   39.6731   -7.0222 H   0  0  0  0  0  0
   17.1218   37.1924   -8.7979 H   0  0  0  0  0  0
   18.0536   37.1868   -7.3429 H   0  0  0  0  0  0
   19.2860   38.5134   -6.1816 H   0  0  0  0  0  0
   21.2378   39.5766   -5.1663 H   0  0  0  0  0  0
   22.9785   40.6272   -6.5742 H   0  0  0  0  0  0
   20.7735   39.5198  -10.1150 H   0  0  0  0  0  0
   22.9369   40.5370  -10.3262 H   0  0  0  0  0  0
   24.0259   40.5145   -8.9605 H   0  0  0  0  0  0
   21.1795   42.6966  -10.2375 H   0  0  0  0  0  0
   25.8550   41.9808  -11.9213 H   0  0  0  0  0  0
   25.4305   40.8431  -10.6682 H   0  0  0  0  0  0
   28.1175   44.8726  -10.2883 H   0  0  0  0  0  0
   27.7012   43.8476   -8.9392 H   0  0  0  0  0  0
   25.7644   44.9260   -9.7275 H   0  0  0  0  0  0
   27.9200   42.1570  -12.8427 H   0  0  0  0  0  0
   27.9048   43.8766  -12.5904 H   0  0  0  0  0  0
   31.4424   41.8746  -12.8870 H   0  0  0  0  0  0
   29.9424   41.1719  -13.4862 H   0  0  0  0  0  0
   30.2891   41.1707  -11.7525 H   0  0  0  0  0  0
   23.6593   42.0758  -11.8021 H   0  0  0  0  0  0
  1  2  1  0  0  0
  1 42  1  0  0  0
  1 43  1  0  0  0
  1 44  1  0  0  0
  2  3  1  0  0  0
  3  4  1  0  0  0
  3 45  1  0  0  0
  3 46  1  0  0  0
  4  9  1  0  0  0
  4  5  2  0  0  0
  5  6  1  0  0  0
  5 47  1  0  0  0
  6 25  1  0  0  0
  6  7  2  0  0  0
  7  8  1  0  0  0
  7 48  1  0  0  0
  8  9  2  0  0  0
  8 10  1  0  0  0
  9 49  1  0  0  0
 10 11  1  0  0  0
 10 50  1  0  0  0
 11 12  1  0  0  0
 11 51  1  0  0  0
 11 52  1  0  0  0
 12 13  1  0  0  0
 12 53  1  0  0  0
 12 54  1  0  0  0
 13 14  1  0  0  0
 13 55  1  0  0  0
 13 56  1  0  0  0
 14 15  1  0  0  0
 14 57  1  0  0  0
 14 58  1  0  0  0
 15 16  1  0  0  0
 16 21  1  0  0  0
 16 17  2  0  0  0
 17 18  1  0  0  0
 17 59  1  0  0  0
 18 19  2  0  0  0
 18 60  1  0  0  0
 19 20  1  0  0  0
 19 61  1  0  0  0
 20 21  2  0  0  0
 20 22  1  0  0  0
 21 62  1  0  0  0
 22 23  1  0  0  0
 22 63  1  0  0  0
 22 64  1  0  0  0
 23 38  1  0  0  0
 23 24  1  0  0  0
 23 27  1  0  0  0
 24 25  1  0  0  0
 24 65  1  0  0  0
 25 26  2  0  0  0
 27 39  1  0  0  0
 27 28  1  0  0  0
 27 37  1  0  0  0
 28 40  1  0  0  0
 28 33  1  0  0  0
 28 29  1  0  0  0
 29 30  1  0  0  0
 29 66  1  0  0  0
 29 67  1  0  0  0
 30 31  1  0  0  0
 31 41  1  0  0  0
 31 32  1  0  0  0
 31 34  1  0  0  0
 32 33  1  0  0  0
 32 68  1  0  0  0
 32 69  1  0  0  0
 33 70  1  0  0  0
 34 35  1  0  0  0
 34 71  1  0  0  0
 34 72  1  0  0  0
 35 36  1  0  0  0
 36 73  1  0  0  0
 36 74  1  0  0  0
 36 75  1  0  0  0
 37 76  1  0  0  0
M  END
> <s_m_source_file>
BACE_13.smi

> <i_m_source_file_index>
1

> <i_lp_mmshare_version>
42013

> <i_f3d_flags>
0

> <s_epik_input>
W0NIM11PW0NIMl1jKFtjSF1jMTIpW2NIXWMoW2NIXTEpW05IXVtDSDJdW0NIMl1bQ0gyXVtDSDJdT2MzW2NIXVtjSF1bY0hdYyhbY0hdMylbQ0gyXVtDQEhdKFtOSF1DMj1PKVtDQEhdKFtPSF0pW0NASF00W0NIMl1PW0NASF0oW0NIMl1bTkhdNClbQ0gyXU9bQ0gzXQ==

> <s_epik_cmdline>
J2VwaWtfcHl0aG9uJywgJy1waCcsICc3LjAnLCAnLXRuJywgJzgnLCAnLW1hJywgJzIwMCcsICctaW1hZScsICc8aW5maWxlLm1hZT4nLCAnLW9tYWUnLCAnPG91dGZpbGUubWFlPic=

> <r_lp_tautomer_probability>
1

> <r_epik_Ionization_Penalty>
  1.0247

> <r_epik_Ionization_Penalty_Charging>
  0.0000

> <r_epik_Ionization_Penalty_Neutral>
  1.0247

> <r_epik_State_Penalty>
  1.0749

> <r_epik_Charging_Adjusted_Penalty>
1.07494

> <i_epik_Tot_Q>
0

> <i_epik_Tot_abs_Q>
0

> <s_lp_Force_Field>
OPLS_2005

> <r_lp_Energy>
44.7965

> <b_lp_Chiralities_Consistent>
1

> <s_lp_Variant>
BACE_13.smi:1-2

> <chiral flag>
1

> <version>
0

> <r_i_glide_lipo>
-0.805819

> <r_i_glide_hbond>
-0.734486

> <r_i_glide_metal>
-0

> <r_i_glide_rewards>
0

> <r_i_glide_erotb>
0.310939

> <r_i_glide_esite>
-0.00333392

> <chiral flag>
1

> <s_i_glide_gridfile>
second_dock_grid_2

> <i_i_glide_lignum>
27

> <i_i_glide_rotatable_bonds>
7

> <r_i_docking_score>
-2.12173

> <r_i_glide_ligand_efficiency>
-0.057344

> <r_i_glide_ligand_efficiency_sa>
-0.191083

> <r_i_glide_ligand_efficiency_ln>
-0.460153

> <r_glide_XP_GScore>
-3.19663

> <r_i_glide_gscore>
-3.19663

> <r_i_glide_evdw>
-38.4123

> <r_i_glide_ecoul>
-6.26832

> <r_i_glide_energy>
-44.6807

> <r_i_glide_einternal>
4.30973

> <r_i_glide_emodel>
-60.2316

> <r_glide_XP_HBond>
-1.52948

> <i_i_glide_confnum>
1

> <i_i_glide_posenum>
3

> <r_i_glide_eff_state_penalty>
1.0749

> <i_glide_XP_PoseRank>
8

$$$$
BACE_13.smi:1
                    3D
 Structure written by MMmdl.
 76 79  0  0  1  0            999 V2000
   20.1604   49.6115   -6.5908 C   0  0  0  0  0  0
   21.5156   49.2112   -6.7554 O   0  0  0  0  0  0
   21.7467   48.4287   -7.9239 C   0  0  0  0  0  0
   21.2205   47.0017   -7.8388 C   0  0  0  0  0  0
   20.9820   46.2752   -9.0223 C   0  0  0  0  0  0
   20.5090   44.9443   -8.9698 C   0  0  0  0  0  0
   20.2456   44.3578   -7.7137 C   0  0  0  0  0  0
   20.4922   45.0729   -6.5141 C   0  0  0  0  0  0
   20.9943   46.3872   -6.5887 C   0  0  0  0  0  0
   20.2509   44.5346   -5.2400 N   0  0  0  0  0  0
   20.0583   43.1080   -5.0541 C   0  0  0  0  0  0
   21.3569   42.3161   -5.2553 C   0  0  0  0  0  0
   21.1566   40.8073   -5.0632 C   0  0  0  0  0  0
   22.4187   39.9990   -5.4168 C   0  0  0  0  0  0
   22.7951   40.1745   -6.7818 O   0  0  0  0  0  0
   21.9611   39.6954   -7.7703 C   0  0  0  0  0  0
   21.0763   38.6003   -7.6080 C   0  0  0  0  0  0
   20.2590   38.1794   -8.6750 C   0  0  0  0  0  0
   20.3012   38.8573   -9.9048 C   0  0  0  0  0  0
   21.1497   39.9726  -10.0677 C   0  0  0  0  0  0
   21.9999   40.3592   -9.0114 C   0  0  0  0  0  0
   21.1563   40.7344  -11.3802 C   0  0  0  0  0  0
   20.2941   42.0281  -11.4354 C   0  0  2  0  0  0
   20.4699   42.8847  -10.2563 N   0  0  0  0  0  0
   20.2251   44.2080  -10.2473 C   0  0  0  0  0  0
   19.8159   44.8138  -11.2398 O   0  0  0  0  0  0
   18.7926   41.7942  -11.8138 C   0  0  1  0  0  0
   17.7333   41.8568  -10.6762 C   0  0  1  0  0  0
   16.2985   41.6598  -11.2267 C   0  0  0  0  0  0
   15.3277   41.5483  -10.1843 O   0  0  0  0  0  0
   15.6056   40.5145   -9.2362 C   0  0  2  0  0  0
   16.9883   40.7828   -8.6192 C   0  0  0  0  0  0
   18.0044   40.8390   -9.6666 N   0  0  0  0  0  0
   15.4791   39.1033   -9.8489 C   0  0  0  0  0  0
   15.7451   38.1254   -8.8588 O   0  0  0  0  0  0
   16.0606   36.8569   -9.4044 C   0  0  0  0  0  0
   18.4599   42.7654  -12.7963 O   0  0  0  0  0  0
   20.7554   42.5496  -12.2710 H   0  0  0  0  0  0
   18.7014   40.8283  -12.3137 H   0  0  0  0  0  0
   17.7616   42.8371  -10.1993 H   0  0  0  0  0  0
   14.8576   40.5993   -8.4455 H   0  0  0  0  0  0
   20.0696   50.1757   -5.6621 H   0  0  0  0  0  0
   19.4827   48.7592   -6.5307 H   0  0  0  0  0  0
   19.8378   50.2542   -7.4125 H   0  0  0  0  0  0
   22.8253   48.3706   -8.0775 H   0  0  0  0  0  0
   21.3357   48.9334   -8.8014 H   0  0  0  0  0  0
   21.1682   46.7412   -9.9788 H   0  0  0  0  0  0
   19.8479   43.3550   -7.6789 H   0  0  0  0  0  0
   21.1930   46.9309   -5.6767 H   0  0  0  0  0  0
   20.5557   45.0422   -4.4146 H   0  0  0  0  0  0
   19.2692   42.7584   -5.7209 H   0  0  0  0  0  0
   19.6876   42.9448   -4.0412 H   0  0  0  0  0  0
   22.1192   42.6753   -4.5617 H   0  0  0  0  0  0
   21.7434   42.4953   -6.2584 H   0  0  0  0  0  0
   20.3122   40.4687   -5.6637 H   0  0  0  0  0  0
   20.8811   40.6084   -4.0292 H   0  0  0  0  0  0
   22.2958   38.9499   -5.1664 H   0  0  0  0  0  0
   23.2482   40.3473   -4.7995 H   0  0  0  0  0  0
   21.0177   38.0614   -6.6742 H   0  0  0  0  0  0
   19.5822   37.3499   -8.5434 H   0  0  0  0  0  0
   19.6531   38.5369  -10.7109 H   0  0  0  0  0  0
   22.6715   41.1935   -9.1399 H   0  0  0  0  0  0
   20.8868   40.0652  -12.1966 H   0  0  0  0  0  0
   22.1973   41.0052  -11.5749 H   0  0  0  0  0  0
   20.8386   42.4540   -9.4219 H   0  0  0  0  0  0
   16.2468   40.8016  -11.8977 H   0  0  0  0  0  0
   16.0183   42.5270  -11.8247 H   0  0  0  0  0  0
   17.2348   40.0005   -7.9005 H   0  0  0  0  0  0
   16.9685   41.7184   -8.0587 H   0  0  0  0  0  0
   18.9238   40.9696   -9.2554 H   0  0  0  0  0  0
   14.4746   38.9519  -10.2479 H   0  0  0  0  0  0
   16.1795   38.9785  -10.6738 H   0  0  0  0  0  0
   16.2309   36.1398   -8.6012 H   0  0  0  0  0  0
   16.9724   36.9031  -10.0032 H   0  0  0  0  0  0
   15.2513   36.4809  -10.0340 H   0  0  0  0  0  0
   18.6832   43.6149  -12.4350 H   0  0  0  0  0  0
  1  2  1  0  0  0
  1 42  1  0  0  0
  1 43  1  0  0  0
  1 44  1  0  0  0
  2  3  1  0  0  0
  3  4  1  0  0  0
  3 45  1  0  0  0
  3 46  1  0  0  0
  4  9  1  0  0  0
  4  5  2  0  0  0
  5  6  1  0  0  0
  5 47  1  0  0  0
  6 25  1  0  0  0
  6  7  2  0  0  0
  7  8  1  0  0  0
  7 48  1  0  0  0
  8  9  2  0  0  0
  8 10  1  0  0  0
  9 49  1  0  0  0
 10 11  1  0  0  0
 10 50  1  0  0  0
 11 12  1  0  0  0
 11 51  1  0  0  0
 11 52  1  0  0  0
 12 13  1  0  0  0
 12 53  1  0  0  0
 12 54  1  0  0  0
 13 14  1  0  0  0
 13 55  1  0  0  0
 13 56  1  0  0  0
 14 15  1  0  0  0
 14 57  1  0  0  0
 14 58  1  0  0  0
 15 16  1  0  0  0
 16 21  1  0  0  0
 16 17  2  0  0  0
 17 18  1  0  0  0
 17 59  1  0  0  0
 18 19  2  0  0  0
 18 60  1  0  0  0
 19 20  1  0  0  0
 19 61  1  0  0  0
 20 21  2  0  0  0
 20 22  1  0  0  0
 21 62  1  0  0  0
 22 23  1  0  0  0
 22 63  1  0  0  0
 22 64  1  0  0  0
 23 38  1  0  0  0
 23 24  1  0  0  0
 23 27  1  0  0  0
 24 25  1  0  0  0
 24 65  1  0  0  0
 25 26  2  0  0  0
 27 39  1  0  0  0
 27 28  1  0  0  0
 27 37  1  0  0  0
 28 40  1  0  0  0
 28 33  1  0  0  0
 28 29  1  0  0  0
 29 30  1  0  0  0
 29 66  1  0  0  0
 29 67  1  0  0  0
 30 31  1  0  0  0
 31 41  1  0  0  0
 31 32  1  0  0  0
 31 34  1  0  0  0
 32 33  1  0  0  0
 32 68  1  0  0  0
 32 69  1  0  0  0
 33 70  1  0  0  0
 34 35  1  0  0  0
 34 71  1  0  0  0
 34 72  1  0  0  0
 35 36  1  0  0  0
 36 73  1  0  0  0
 36 74  1  0  0  0
 36 75  1  0  0  0
 37 76  1  0  0  0
M  END
> <s_m_source_file>
BACE_13.smi

> <i_m_source_file_index>
1

> <i_lp_mmshare_version>
42013

> <i_f3d_flags>
0

> <s_epik_input>
W0NIM11PW0NIMl1jKFtjSF1jMTIpW2NIXWMoW2NIXTEpW05IXVtDSDJdW0NIMl1bQ0gyXVtDSDJdT2MzW2NIXVtjSF1bY0hdYyhbY0hdMylbQ0gyXVtDQEhdKFtOSF1DMj1PKVtDQEhdKFtPSF0pW0NASF00W0NIMl1PW0NASF0oW0NIMl1bTkhdNClbQ0gyXU9bQ0gzXQ==

> <s_epik_cmdline>
J2VwaWtfcHl0aG9uJywgJy1waCcsICc3LjAnLCAnLXRuJywgJzgnLCAnLW1hJywgJzIwMCcsICctaW1hZScsICc8aW5maWxlLm1hZT4nLCAnLW9tYWUnLCAnPG91dGZpbGUubWFlPic=

> <r_lp_tautomer_probability>
1

> <r_epik_Ionization_Penalty>
  1.0247

> <r_epik_Ionization_Penalty_Charging>
  0.0000

> <r_epik_Ionization_Penalty_Neutral>
  1.0247

> <r_epik_State_Penalty>
  1.0749

> <r_epik_Charging_Adjusted_Penalty>
1.07494

> <i_epik_Tot_Q>
0

> <i_epik_Tot_abs_Q>
0

> <s_lp_Force_Field>
OPLS_2005

> <r_lp_Energy>
44.7965

> <b_lp_Chiralities_Consistent>
1

> <s_lp_Variant>
BACE_13.smi:1-2

> <chiral flag>
1

> <version>
0

> <r_i_glide_lipo>
-0.805819

> <r_i_glide_hbond>
-0.734486

> <r_i_glide_metal>
-0

> <r_i_glide_rewards>
0

> <r_i_glide_erotb>
0.310939

> <r_i_glide_esite>
-0.00333392

> <chiral flag>
1

> <s_i_glide_gridfile>
second_dock_grid_2

> <i_i_glide_lignum>
27

> <i_i_glide_rotatable_bonds>
7

> <r_i_docking_score>
-1.77315

> <r_i_glide_ligand_efficiency>
-0.0479231

> <r_i_glide_ligand_efficiency_sa>
-0.15969

> <r_i_glide_ligand_efficiency_ln>
-0.384556

> <r_glide_XP_GScore>
-2.84805

> <r_i_glide_gscore>
-2.84805

> <r_i_glide_evdw>
-37.5809

> <r_i_glide_ecoul>
-5.18426

> <r_i_glide_energy>
-42.7652

> <r_i_glide_einternal>
4.27328

> <r_i_glide_emodel>
-55.7837

> <r_glide_XP_HBond>
-1.52948

> <i_i_glide_confnum>
1

> <i_i_glide_posenum>
18

> <r_i_glide_eff_state_penalty>
1.0749

> <i_glide_XP_PoseRank>
9

$$$$
BACE_14.smi:1
                    3D
 Structure written by MMmdl.
 85 89  0  0  1  0            999 V2000
   28.0462   46.1696   -8.3625 C   0  0  0  0  0  0
   28.0611   44.6872   -7.9643 C   0  0  0  0  0  0
   27.2633   44.4390   -6.6731 C   0  0  0  0  0  0
   27.5760   43.8092   -9.1106 C   0  0  0  0  0  0
   28.4847   42.9702   -9.7932 C   0  0  0  0  0  0
   28.0351   42.1500  -10.8425 C   0  0  0  0  0  0
   26.6798   42.1657  -11.2189 C   0  0  0  0  0  0
   25.7618   43.0049  -10.5541 C   0  0  0  0  0  0
   26.2213   43.8235   -9.5017 C   0  0  0  0  0  0
   24.3105   42.9995  -10.9411 C   0  0  0  0  0  0
   23.5478   44.2919  -11.1339 C   0  0  0  0  0  0
   23.9233   43.4458  -12.3306 C   0  0  0  0  0  0
   23.6007   41.8506  -10.3888 N   0  0  0  0  0  0
   23.3334   41.9388   -8.9517 C   0  0  0  0  0  0
   22.5632   40.6930   -8.4633 C   0  0  2  0  0  0
   21.5988   40.9466   -7.2725 C   0  0  2  0  0  0
   20.8333   39.6787   -6.8213 C   0  0  0  0  0  0
   19.7933   39.1743   -7.8118 C   0  0  0  0  0  0
   20.1786   38.3747   -8.9076 C   0  0  0  0  0  0
   19.2139   37.9314   -9.8283 C   0  0  0  0  0  0
   17.8553   38.2378   -9.6401 C   0  0  0  0  0  0
   17.4501   39.0311   -8.5391 C   0  0  0  0  0  0
   18.4307   39.4964   -7.6437 C   0  0  0  0  0  0
   16.1437   39.3877   -8.2823 O   0  0  0  0  0  0
   15.2162   39.4521   -9.3604 C   0  0  0  0  0  0
   15.5887   40.5885  -10.3332 C   0  0  0  0  0  0
   15.6493   41.9655   -9.6481 C   0  0  0  0  0  0
   16.4118   43.0043  -10.4866 C   0  0  0  0  0  0
   16.4962   44.3045   -9.8342 N   0  0  0  0  0  0
   17.4186   44.5806   -8.8089 C   0  0  0  0  0  0
   18.3310   43.6222   -8.3126 C   0  0  0  0  0  0
   19.2282   43.9509   -7.2683 C   0  0  0  0  0  0
   19.1802   45.2426   -6.7022 C   0  0  0  0  0  0
   18.2859   46.2176   -7.1968 C   0  0  0  0  0  0
   17.4089   45.8756   -8.2511 C   0  0  0  0  0  0
   18.2264   47.5540   -6.5495 C   0  0  0  0  0  0
   18.4563   47.7403   -5.3567 O   0  0  0  0  0  0
   17.8562   48.7450   -7.4270 C   0  0  0  0  0  0
   20.1914   42.9343   -6.7205 C   0  0  0  0  0  0
   20.5716   43.0050   -5.5497 O   0  0  0  0  0  0
   20.6466   42.0153   -7.5892 N   0  0  0  0  0  0
   23.5359   39.7504   -8.0402 O   0  0  0  0  0  0
   21.9992   40.2759   -9.2979 H   0  0  0  0  0  0
   22.2233   41.2669   -6.4336 H   0  0  0  0  0  0
   28.4276   46.7973   -7.5568 H   0  0  0  0  0  0
   27.0381   46.5088   -8.5999 H   0  0  0  0  0  0
   28.6695   46.3417   -9.2403 H   0  0  0  0  0  0
   29.0965   44.4179   -7.7568 H   0  0  0  0  0  0
   27.6895   44.9961   -5.8389 H   0  0  0  0  0  0
   27.2696   43.3831   -6.4038 H   0  0  0  0  0  0
   26.2227   44.7470   -6.7723 H   0  0  0  0  0  0
   29.5244   42.9468   -9.5039 H   0  0  0  0  0  0
   28.7297   41.4997  -11.3574 H   0  0  0  0  0  0
   26.3423   41.5304  -12.0253 H   0  0  0  0  0  0
   25.5211   44.4637   -8.9870 H   0  0  0  0  0  0
   22.4921   44.3159  -10.8677 H   0  0  0  0  0  0
   24.0815   45.2319  -11.0040 H   0  0  0  0  0  0
   24.7116   43.8213  -12.9799 H   0  0  0  0  0  0
   23.1159   42.9191  -12.8360 H   0  0  0  0  0  0
   24.1533   41.0166  -10.5721 H   0  0  0  0  0  0
   22.7474   42.8387   -8.7643 H   0  0  0  0  0  0
   24.2558   42.0640   -8.3836 H   0  0  0  0  0  0
   21.5307   38.8668   -6.6031 H   0  0  0  0  0  0
   20.3318   39.8842   -5.8740 H   0  0  0  0  0  0
   21.2155   38.1066   -9.0522 H   0  0  0  0  0  0
   19.5155   37.3533  -10.6859 H   0  0  0  0  0  0
   17.1425   37.8613  -10.3554 H   0  0  0  0  0  0
   18.1232   40.1287   -6.8276 H   0  0  0  0  0  0
   15.1269   38.4944   -9.8736 H   0  0  0  0  0  0
   14.2319   39.6481   -8.9350 H   0  0  0  0  0  0
   16.5509   40.3693  -10.7956 H   0  0  0  0  0  0
   14.8667   40.6180  -11.1480 H   0  0  0  0  0  0
   14.6355   42.3125   -9.4400 H   0  0  0  0  0  0
   16.1344   41.8680   -8.6763 H   0  0  0  0  0  0
   17.4140   42.6445  -10.7231 H   0  0  0  0  0  0
   15.9064   43.1378  -11.4426 H   0  0  0  0  0  0
   15.8535   45.0258  -10.1281 H   0  0  0  0  0  0
   18.3461   42.6239   -8.7223 H   0  0  0  0  0  0
   19.8425   45.4909   -5.8816 H   0  0  0  0  0  0
   16.6996   46.5966   -8.6260 H   0  0  0  0  0  0
   16.8271   48.6725   -7.7722 H   0  0  0  0  0  0
   18.5085   48.7866   -8.2998 H   0  0  0  0  0  0
   17.9649   49.6738   -6.8645 H   0  0  0  0  0  0
   20.2800   42.0283   -8.5272 H   0  0  0  0  0  0
   23.9951   39.4022   -8.7968 H   0  0  0  0  0  0
  1  2  1  0  0  0
  1 45  1  0  0  0
  1 46  1  0  0  0
  1 47  1  0  0  0
  2  3  1  0  0  0
  2  4  1  0  0  0
  2 48  1  0  0  0
  3 49  1  0  0  0
  3 50  1  0  0  0
  3 51  1  0  0  0
  4  9  1  0  0  0
  4  5  2  0  0  0
  5  6  1  0  0  0
  5 52  1  0  0  0
  6  7  2  0  0  0
  6 53  1  0  0  0
  7  8  1  0  0  0
  7 54  1  0  0  0
  8  9  2  0  0  0
  8 10  1  0  0  0
  9 55  1  0  0  0
 10 12  1  0  0  0
 10 11  1  0  0  0
 10 13  1  0  0  0
 11 12  1  0  0  0
 11 56  1  0  0  0
 11 57  1  0  0  0
 12 58  1  0  0  0
 12 59  1  0  0  0
 13 14  1  0  0  0
 13 60  1  0  0  0
 14 15  1  0  0  0
 14 61  1  0  0  0
 14 62  1  0  0  0
 15 43  1  0  0  0
 15 16  1  0  0  0
 15 42  1  0  0  0
 16 44  1  0  0  0
 16 41  1  0  0  0
 16 17  1  0  0  0
 17 18  1  0  0  0
 17 63  1  0  0  0
 17 64  1  0  0  0
 18 23  1  0  0  0
 18 19  2  0  0  0
 19 20  1  0  0  0
 19 65  1  0  0  0
 20 21  2  0  0  0
 20 66  1  0  0  0
 21 22  1  0  0  0
 21 67  1  0  0  0
 22 23  2  0  0  0
 22 24  1  0  0  0
 23 68  1  0  0  0
 24 25  1  0  0  0
 25 26  1  0  0  0
 25 69  1  0  0  0
 25 70  1  0  0  0
 26 27  1  0  0  0
 26 71  1  0  0  0
 26 72  1  0  0  0
 27 28  1  0  0  0
 27 73  1  0  0  0
 27 74  1  0  0  0
 28 29  1  0  0  0
 28 75  1  0  0  0
 28 76  1  0  0  0
 29 30  1  0  0  0
 29 77  1  0  0  0
 30 35  1  0  0  0
 30 31  2  0  0  0
 31 32  1  0  0  0
 31 78  1  0  0  0
 32 33  2  0  0  0
 32 39  1  0  0  0
 33 34  1  0  0  0
 33 79  1  0  0  0
 34 35  2  0  0  0
 34 36  1  0  0  0
 35 80  1  0  0  0
 36 37  2  0  0  0
 36 38  1  0  0  0
 38 81  1  0  0  0
 38 82  1  0  0  0
 38 83  1  0  0  0
 39 40  2  0  0  0
 39 41  1  0  0  0
 41 84  1  0  0  0
 42 85  1  0  0  0
M  END
> <s_m_source_file>
BACE_14.smi

> <i_m_source_file_index>
1

> <i_lp_mmshare_version>
42013

> <i_f3d_flags>
0

> <s_epik_input>
W0NIM11bQ0hdKFtDSDNdKWMxW2NIXVtjSF1bY0hdYyhbY0hdMSlDMihbQ0gyXVtDSDJdMilbTkhdW0NIMl1bQ0BASF0oW09IXSlbQ0BIXShbQ0gyXTMpW05IXUMoPU8pYyhbY0hdYyhbY0hdNClDKD1PKVtDSDNdKVtjSF1jNFtOSF1bQ0gyXVtDSDJdW0NIMl1bQ0gyXU9jKFtjSF01KVtjSF1bY0hdW2NIXWMzNQ==

> <s_epik_cmdline>
J2VwaWtfcHl0aG9uJywgJy1waCcsICc3LjAnLCAnLXRuJywgJzgnLCAnLW1hJywgJzIwMCcsICctaW1hZScsICc8aW5maWxlLm1hZT4nLCAnLW9tYWUnLCAnPG91dGZpbGUubWFlPic=

> <r_lp_tautomer_probability>
0.99995

> <r_epik_Ionization_Penalty>
  0.3230

> <r_epik_Ionization_Penalty_Charging>
  0.0000

> <r_epik_Ionization_Penalty_Neutral>
  0.3230

> <r_epik_State_Penalty>
  0.3176

> <r_epik_Charging_Adjusted_Penalty>
0.317604

> <i_epik_Tot_Q>
0

> <i_epik_Tot_abs_Q>
0

> <s_lp_Force_Field>
OPLS_2005

> <r_lp_Energy>
47.6892

> <b_lp_Chiralities_Consistent>
1

> <s_lp_Variant>
BACE_14.smi:1-1

> <chiral flag>
1

> <version>
0

> <r_i_glide_lipo>
-0.807694

> <r_i_glide_hbond>
-1.1636

> <r_i_glide_metal>
-0

> <r_i_glide_rewards>
0

> <r_i_glide_erotb>
0.231492

> <r_i_glide_esite>
-0.00379964

> <chiral flag>
1

> <s_i_glide_gridfile>
second_dock_grid_2

> <i_i_glide_lignum>
28

> <i_i_glide_rotatable_bonds>
8

> <r_i_docking_score>
-3.08991

> <r_i_glide_ligand_efficiency>
-0.0735694

> <r_i_glide_ligand_efficiency_sa>
-0.255729

> <r_i_glide_ligand_efficiency_ln>
-0.652201

> <r_glide_XP_GScore>
-3.40751

> <r_i_glide_gscore>
-3.40751

> <r_i_glide_evdw>
-46.0942

> <r_i_glide_ecoul>
-5.96164

> <r_i_glide_energy>
-52.0559

> <r_i_glide_einternal>
7.9023

> <r_i_glide_emodel>
-71.6688

> <r_glide_XP_HBond>
-1.34839

> <i_i_glide_confnum>
1

> <i_i_glide_posenum>
3

> <r_i_glide_eff_state_penalty>
0.3176

> <i_glide_XP_PoseRank>
1

$$$$
BACE_14.smi:1
                    3D
 Structure written by MMmdl.
 85 89  0  0  1  0            999 V2000
   23.9104   46.7542  -15.4036 C   0  0  0  0  0  0
   24.7680   46.7485  -14.1288 C   0  0  0  0  0  0
   25.1619   48.1690  -13.6978 C   0  0  0  0  0  0
   24.0828   45.9887  -13.0014 C   0  0  0  0  0  0
   22.8300   46.4056  -12.5088 C   0  0  0  0  0  0
   22.1964   45.6667  -11.4955 C   0  0  0  0  0  0
   22.8083   44.5161  -10.9696 C   0  0  0  0  0  0
   24.0811   44.0890  -11.4259 C   0  0  0  0  0  0
   24.7023   44.8486  -12.4450 C   0  0  0  0  0  0
   24.7815   42.8845  -10.8160 C   0  0  0  0  0  0
   26.0408   42.2856  -11.4210 C   0  0  0  0  0  0
   26.1288   43.0923  -10.1502 C   0  0  0  0  0  0
   23.8602   41.8817  -10.2732 N   0  0  0  0  0  0
   23.5534   41.9603   -8.8428 C   0  0  0  0  0  0
   22.7199   40.7374   -8.4127 C   0  0  2  0  0  0
   21.7595   40.9812   -7.2185 C   0  0  2  0  0  0
   21.0017   39.6947   -6.7854 C   0  0  0  0  0  0
   19.9304   39.2190   -7.7622 C   0  0  0  0  0  0
   20.2746   38.4554   -8.8956 C   0  0  0  0  0  0
   19.2743   38.0353   -9.7913 C   0  0  0  0  0  0
   17.9253   38.3543   -9.5535 C   0  0  0  0  0  0
   17.5636   39.1142   -8.4177 C   0  0  0  0  0  0
   18.5757   39.5287   -7.5284 C   0  0  0  0  0  0
   16.2731   39.4898   -8.1152 O   0  0  0  0  0  0
   15.3071   39.5698   -9.1616 C   0  0  0  0  0  0
   15.6612   40.6796  -10.1722 C   0  0  0  0  0  0
   15.8022   42.0661   -9.5200 C   0  0  0  0  0  0
   16.5537   43.0566  -10.4269 C   0  0  0  0  0  0
   16.7032   44.3771   -9.8251 N   0  0  0  0  0  0
   17.5983   44.6341   -8.7754 C   0  0  0  0  0  0
   18.5129   43.6722   -8.2807 C   0  0  0  0  0  0
   19.3738   43.9795   -7.2029 C   0  0  0  0  0  0
   19.2965   45.2593   -6.6043 C   0  0  0  0  0  0
   18.4130   46.2416   -7.1084 C   0  0  0  0  0  0
   17.5669   45.9152   -8.1909 C   0  0  0  0  0  0
   18.3009   47.5699   -6.4508 C   0  0  0  0  0  0
   18.4601   47.7497   -5.2434 O   0  0  0  0  0  0
   17.9590   48.7658   -7.3380 C   0  0  0  0  0  0
   20.3310   42.9535   -6.6479 C   0  0  0  0  0  0
   20.6876   43.0022   -5.4724 O   0  0  0  0  0  0
   20.8075   42.0558   -7.5290 N   0  0  0  0  0  0
   23.6589   39.7502   -8.0398 O   0  0  0  0  0  0
   22.1418   40.3763   -9.2620 H   0  0  0  0  0  0
   22.3800   41.2949   -6.3777 H   0  0  0  0  0  0
   24.4316   47.2405  -16.2259 H   0  0  0  0  0  0
   22.9680   47.2813  -15.2525 H   0  0  0  0  0  0
   23.6721   45.7385  -15.7195 H   0  0  0  0  0  0
   25.6913   46.2199  -14.3726 H   0  0  0  0  0  0
   25.6915   48.6859  -14.4962 H   0  0  0  0  0  0
   25.8231   48.1447  -12.8313 H   0  0  0  0  0  0
   24.2890   48.7684  -13.4365 H   0  0  0  0  0  0
   22.3431   47.2767  -12.9219 H   0  0  0  0  0  0
   21.2320   45.9785  -11.1241 H   0  0  0  0  0  0
   22.2838   43.9712  -10.2026 H   0  0  0  0  0  0
   25.6775   44.5671  -12.8134 H   0  0  0  0  0  0
   26.2106   41.2156  -11.3063 H   0  0  0  0  0  0
   26.4636   42.7107  -12.3249 H   0  0  0  0  0  0
   26.5872   44.0793  -10.2246 H   0  0  0  0  0  0
   26.3666   42.5481   -9.2422 H   0  0  0  0  0  0
   24.1735   40.9502  -10.5338 H   0  0  0  0  0  0
   23.0155   42.8828   -8.6365 H   0  0  0  0  0  0
   24.4628   42.0198   -8.2441 H   0  0  0  0  0  0
   21.7018   38.8776   -6.6040 H   0  0  0  0  0  0
   20.5294   39.8769   -5.8202 H   0  0  0  0  0  0
   21.3059   38.1913   -9.0816 H   0  0  0  0  0  0
   19.5402   37.4604  -10.6646 H   0  0  0  0  0  0
   17.1862   38.0057  -10.2571 H   0  0  0  0  0  0
   18.3027   40.1109   -6.6655 H   0  0  0  0  0  0
   15.1778   38.6065   -9.6551 H   0  0  0  0  0  0
   14.3438   39.7924   -8.7026 H   0  0  0  0  0  0
   16.5875   40.4234  -10.6850 H   0  0  0  0  0  0
   14.8966   40.7194  -10.9473 H   0  0  0  0  0  0
   14.8156   42.4536   -9.2674 H   0  0  0  0  0  0
   16.3355   41.9710   -8.5741 H   0  0  0  0  0  0
   17.5355   42.6673  -10.7001 H   0  0  0  0  0  0
   16.0037   43.1770  -11.3598 H   0  0  0  0  0  0
   16.0529   45.0973  -10.0997 H   0  0  0  0  0  0
   18.5449   42.6833   -8.7123 H   0  0  0  0  0  0
   19.9327   45.4966   -5.7616 H   0  0  0  0  0  0
   16.8622   46.6408   -8.5662 H   0  0  0  0  0  0
   16.9203   48.7155   -7.6667 H   0  0  0  0  0  0
   18.6069   48.7847   -8.2161 H   0  0  0  0  0  0
   18.1014   49.6961   -6.7875 H   0  0  0  0  0  0
   20.4546   42.0913   -8.4734 H   0  0  0  0  0  0
   24.0622   39.3747   -8.8142 H   0  0  0  0  0  0
  1  2  1  0  0  0
  1 45  1  0  0  0
  1 46  1  0  0  0
  1 47  1  0  0  0
  2  3  1  0  0  0
  2  4  1  0  0  0
  2 48  1  0  0  0
  3 49  1  0  0  0
  3 50  1  0  0  0
  3 51  1  0  0  0
  4  9  1  0  0  0
  4  5  2  0  0  0
  5  6  1  0  0  0
  5 52  1  0  0  0
  6  7  2  0  0  0
  6 53  1  0  0  0
  7  8  1  0  0  0
  7 54  1  0  0  0
  8  9  2  0  0  0
  8 10  1  0  0  0
  9 55  1  0  0  0
 10 12  1  0  0  0
 10 11  1  0  0  0
 10 13  1  0  0  0
 11 12  1  0  0  0
 11 56  1  0  0  0
 11 57  1  0  0  0
 12 58  1  0  0  0
 12 59  1  0  0  0
 13 14  1  0  0  0
 13 60  1  0  0  0
 14 15  1  0  0  0
 14 61  1  0  0  0
 14 62  1  0  0  0
 15 43  1  0  0  0
 15 16  1  0  0  0
 15 42  1  0  0  0
 16 44  1  0  0  0
 16 41  1  0  0  0
 16 17  1  0  0  0
 17 18  1  0  0  0
 17 63  1  0  0  0
 17 64  1  0  0  0
 18 23  1  0  0  0
 18 19  2  0  0  0
 19 20  1  0  0  0
 19 65  1  0  0  0
 20 21  2  0  0  0
 20 66  1  0  0  0
 21 22  1  0  0  0
 21 67  1  0  0  0
 22 23  2  0  0  0
 22 24  1  0  0  0
 23 68  1  0  0  0
 24 25  1  0  0  0
 25 26  1  0  0  0
 25 69  1  0  0  0
 25 70  1  0  0  0
 26 27  1  0  0  0
 26 71  1  0  0  0
 26 72  1  0  0  0
 27 28  1  0  0  0
 27 73  1  0  0  0
 27 74  1  0  0  0
 28 29  1  0  0  0
 28 75  1  0  0  0
 28 76  1  0  0  0
 29 30  1  0  0  0
 29 77  1  0  0  0
 30 35  1  0  0  0
 30 31  2  0  0  0
 31 32  1  0  0  0
 31 78  1  0  0  0
 32 33  2  0  0  0
 32 39  1  0  0  0
 33 34  1  0  0  0
 33 79  1  0  0  0
 34 35  2  0  0  0
 34 36  1  0  0  0
 35 80  1  0  0  0
 36 37  2  0  0  0
 36 38  1  0  0  0
 38 81  1  0  0  0
 38 82  1  0  0  0
 38 83  1  0  0  0
 39 40  2  0  0  0
 39 41  1  0  0  0
 41 84  1  0  0  0
 42 85  1  0  0  0
M  END
> <s_m_source_file>
BACE_14.smi

> <i_m_source_file_index>
1

> <i_lp_mmshare_version>
42013

> <i_f3d_flags>
0

> <s_epik_input>
W0NIM11bQ0hdKFtDSDNdKWMxW2NIXVtjSF1bY0hdYyhbY0hdMSlDMihbQ0gyXVtDSDJdMilbTkhdW0NIMl1bQ0BASF0oW09IXSlbQ0BIXShbQ0gyXTMpW05IXUMoPU8pYyhbY0hdYyhbY0hdNClDKD1PKVtDSDNdKVtjSF1jNFtOSF1bQ0gyXVtDSDJdW0NIMl1bQ0gyXU9jKFtjSF01KVtjSF1bY0hdW2NIXWMzNQ==

> <s_epik_cmdline>
J2VwaWtfcHl0aG9uJywgJy1waCcsICc3LjAnLCAnLXRuJywgJzgnLCAnLW1hJywgJzIwMCcsICctaW1hZScsICc8aW5maWxlLm1hZT4nLCAnLW9tYWUnLCAnPG91dGZpbGUubWFlPic=

> <r_lp_tautomer_probability>
0.99995

> <r_epik_Ionization_Penalty>
  0.3230

> <r_epik_Ionization_Penalty_Charging>
  0.0000

> <r_epik_Ionization_Penalty_Neutral>
  0.3230

> <r_epik_State_Penalty>
  0.3176

> <r_epik_Charging_Adjusted_Penalty>
0.317604

> <i_epik_Tot_Q>
0

> <i_epik_Tot_abs_Q>
0

> <s_lp_Force_Field>
OPLS_2005

> <r_lp_Energy>
47.6892

> <b_lp_Chiralities_Consistent>
1

> <s_lp_Variant>
BACE_14.smi:1-1

> <chiral flag>
1

> <version>
0

> <r_i_glide_lipo>
-0.807694

> <r_i_glide_hbond>
-1.1636

> <r_i_glide_metal>
-0

> <r_i_glide_rewards>
0

> <r_i_glide_erotb>
0.231492

> <r_i_glide_esite>
-0.00379964

> <chiral flag>
1

> <s_i_glide_gridfile>
second_dock_grid_2

> <i_i_glide_lignum>
28

> <i_i_glide_rotatable_bonds>
8

> <r_i_docking_score>
-3.04372

> <r_i_glide_ligand_efficiency>
-0.0724696

> <r_i_glide_ligand_efficiency_sa>
-0.251906

> <r_i_glide_ligand_efficiency_ln>
-0.642452

> <r_glide_XP_GScore>
-3.36132

> <r_i_glide_gscore>
-3.36132

> <r_i_glide_evdw>
-41.8511

> <r_i_glide_ecoul>
-6.70833

> <r_i_glide_energy>
-48.5595

> <r_i_glide_einternal>
5.1575

> <r_i_glide_emodel>
-68.3515

> <r_glide_XP_HBond>
-1.34839

> <i_i_glide_confnum>
1

> <i_i_glide_posenum>
5

> <r_i_glide_eff_state_penalty>
0.3176

> <i_glide_XP_PoseRank>
2

$$$$
BACE_14.smi:1
                    3D
 Structure written by MMmdl.
 85 89  0  0  1  0            999 V2000
   28.2166   46.0888   -8.7025 C   0  0  0  0  0  0
   28.1804   44.6378   -8.1908 C   0  0  0  0  0  0
   27.3698   44.5094   -6.8889 C   0  0  0  0  0  0
   27.7001   43.6627   -9.2642 C   0  0  0  0  0  0
   28.6054   42.7952   -9.9157 C   0  0  0  0  0  0
   28.1466   41.9011  -10.9010 C   0  0  0  0  0  0
   26.7819   41.8675  -11.2444 C   0  0  0  0  0  0
   25.8603   42.7287  -10.6087 C   0  0  0  0  0  0
   26.3321   43.6195   -9.6177 C   0  0  0  0  0  0
   24.3822   42.6963  -10.9699 C   0  0  0  0  0  0
   23.6874   44.0185  -11.1921 C   0  0  0  0  0  0
   23.9941   43.1201  -12.3664 C   0  0  0  0  0  0
   23.6049   41.6148  -10.3454 N   0  0  0  0  0  0
   23.4372   41.7136   -8.8935 C   0  0  0  0  0  0
   22.7360   40.4595   -8.3222 C   0  0  2  0  0  0
   21.8858   40.6885   -7.0394 C   0  0  2  0  0  0
   21.2065   39.3747   -6.5632 C   0  0  0  0  0  0
   20.0678   38.9012   -7.4566 C   0  0  0  0  0  0
   20.3499   38.1569   -8.6198 C   0  0  0  0  0  0
   19.3003   37.7202   -9.4484 C   0  0  0  0  0  0
   17.9660   38.0310   -9.1242 C   0  0  0  0  0  0
   17.6686   38.7847   -7.9624 C   0  0  0  0  0  0
   18.7275   39.1984   -7.1285 C   0  0  0  0  0  0
   16.3941   39.1481   -7.5838 O   0  0  0  0  0  0
   15.3791   39.2519   -8.5836 C   0  0  0  0  0  0
   15.6710   40.4042   -9.5644 C   0  0  0  0  0  0
   15.7663   41.7718   -8.8699 C   0  0  0  0  0  0
   16.4227   42.8328   -9.7682 C   0  0  0  0  0  0
   16.5815   44.1134   -9.0899 N   0  0  0  0  0  0
   17.5907   44.3478   -8.1431 C   0  0  0  0  0  0
   18.5317   43.3631   -7.7561 C   0  0  0  0  0  0
   19.5116   43.6463   -6.7759 C   0  0  0  0  0  0
   19.5444   44.9265   -6.1814 C   0  0  0  0  0  0
   18.6229   45.9149   -6.5733 C   0  0  0  0  0  0
   17.6517   45.6248   -7.5493 C   0  0  0  0  0  0
   18.6660   47.2418   -5.9585 C   0  0  0  0  0  0
   17.7205   47.7383   -5.3462 O   0  0  0  0  0  0
   19.9529   48.0576   -6.0880 C   0  0  0  0  0  0
   20.4753   42.5896   -6.3189 C   0  0  0  0  0  0
   20.8466   42.5468   -5.1576 O   0  0  0  0  0  0
   20.8721   41.7310   -7.2488 N   0  0  0  0  0  0
   23.7080   39.4712   -8.0377 O   0  0  0  0  0  0
   22.0878   40.0298   -9.0875 H   0  0  0  0  0  0
   22.5700   40.9816   -6.2408 H   0  0  0  0  0  0
   28.6267   46.7601   -7.9473 H   0  0  0  0  0  0
   27.2234   46.4568   -8.9613 H   0  0  0  0  0  0
   28.8453   46.1764   -9.5893 H   0  0  0  0  0  0
   29.2087   44.3719   -7.9422 H   0  0  0  0  0  0
   27.7700   45.1623   -6.1125 H   0  0  0  0  0  0
   27.4047   43.4896   -6.5041 H   0  0  0  0  0  0
   26.3220   44.7757   -7.0308 H   0  0  0  0  0  0
   29.6560   42.8067   -9.6653 H   0  0  0  0  0  0
   28.8429   41.2386  -11.3939 H   0  0  0  0  0  0
   26.4460   41.1722  -11.9997 H   0  0  0  0  0  0
   25.6301   44.2772   -9.1254 H   0  0  0  0  0  0
   22.6470   44.1011  -10.8778 H   0  0  0  0  0  0
   24.2816   44.9257  -11.0819 H   0  0  0  0  0  0
   24.7932   43.4266  -13.0413 H   0  0  0  0  0  0
   23.1586   42.6020  -12.8372 H   0  0  0  0  0  0
   23.9891   40.7114  -10.6033 H   0  0  0  0  0  0
   22.8370   42.5959   -8.6717 H   0  0  0  0  0  0
   24.3992   41.8635   -8.4017 H   0  0  0  0  0  0
   21.9537   38.5845   -6.4894 H   0  0  0  0  0  0
   20.8261   39.5115   -5.5509 H   0  0  0  0  0  0
   21.3711   37.9214   -8.8810 H   0  0  0  0  0  0
   19.5188   37.1482  -10.3381 H   0  0  0  0  0  0
   17.1881   37.6792   -9.7857 H   0  0  0  0  0  0
   18.5059   39.7702   -6.2395 H   0  0  0  0  0  0
   15.2339   38.3069   -9.1072 H   0  0  0  0  0  0
   14.4355   39.4478   -8.0744 H   0  0  0  0  0  0
   16.5968   40.2019  -10.1030 H   0  0  0  0  0  0
   14.8911   40.4399  -10.3250 H   0  0  0  0  0  0
   14.7709   42.0952   -8.5653 H   0  0  0  0  0  0
   16.3393   41.6649   -7.9489 H   0  0  0  0  0  0
   17.3893   42.4861  -10.1337 H   0  0  0  0  0  0
   15.8073   42.9878  -10.6544 H   0  0  0  0  0  0
   15.9681   44.8707   -9.3552 H   0  0  0  0  0  0
   18.5001   42.3735   -8.1876 H   0  0  0  0  0  0
   20.2785   45.1534   -5.4225 H   0  0  0  0  0  0
   16.9474   46.3943   -7.8289 H   0  0  0  0  0  0
   20.2045   48.2187   -7.1365 H   0  0  0  0  0  0
   20.7833   47.5484   -5.5983 H   0  0  0  0  0  0
   19.8325   49.0339   -5.6174 H   0  0  0  0  0  0
   20.5039   41.8389   -8.1831 H   0  0  0  0  0  0
   24.0779   39.1709   -8.8538 H   0  0  0  0  0  0
  1  2  1  0  0  0
  1 45  1  0  0  0
  1 46  1  0  0  0
  1 47  1  0  0  0
  2  3  1  0  0  0
  2  4  1  0  0  0
  2 48  1  0  0  0
  3 49  1  0  0  0
  3 50  1  0  0  0
  3 51  1  0  0  0
  4  9  1  0  0  0
  4  5  2  0  0  0
  5  6  1  0  0  0
  5 52  1  0  0  0
  6  7  2  0  0  0
  6 53  1  0  0  0
  7  8  1  0  0  0
  7 54  1  0  0  0
  8  9  2  0  0  0
  8 10  1  0  0  0
  9 55  1  0  0  0
 10 12  1  0  0  0
 10 11  1  0  0  0
 10 13  1  0  0  0
 11 12  1  0  0  0
 11 56  1  0  0  0
 11 57  1  0  0  0
 12 58  1  0  0  0
 12 59  1  0  0  0
 13 14  1  0  0  0
 13 60  1  0  0  0
 14 15  1  0  0  0
 14 61  1  0  0  0
 14 62  1  0  0  0
 15 43  1  0  0  0
 15 16  1  0  0  0
 15 42  1  0  0  0
 16 44  1  0  0  0
 16 41  1  0  0  0
 16 17  1  0  0  0
 17 18  1  0  0  0
 17 63  1  0  0  0
 17 64  1  0  0  0
 18 23  1  0  0  0
 18 19  2  0  0  0
 19 20  1  0  0  0
 19 65  1  0  0  0
 20 21  2  0  0  0
 20 66  1  0  0  0
 21 22  1  0  0  0
 21 67  1  0  0  0
 22 23  2  0  0  0
 22 24  1  0  0  0
 23 68  1  0  0  0
 24 25  1  0  0  0
 25 26  1  0  0  0
 25 69  1  0  0  0
 25 70  1  0  0  0
 26 27  1  0  0  0
 26 71  1  0  0  0
 26 72  1  0  0  0
 27 28  1  0  0  0
 27 73  1  0  0  0
 27 74  1  0  0  0
 28 29  1  0  0  0
 28 75  1  0  0  0
 28 76  1  0  0  0
 29 30  1  0  0  0
 29 77  1  0  0  0
 30 35  1  0  0  0
 30 31  2  0  0  0
 31 32  1  0  0  0
 31 78  1  0  0  0
 32 33  2  0  0  0
 32 39  1  0  0  0
 33 34  1  0  0  0
 33 79  1  0  0  0
 34 35  2  0  0  0
 34 36  1  0  0  0
 35 80  1  0  0  0
 36 37  2  0  0  0
 36 38  1  0  0  0
 38 81  1  0  0  0
 38 82  1  0  0  0
 38 83  1  0  0  0
 39 40  2  0  0  0
 39 41  1  0  0  0
 41 84  1  0  0  0
 42 85  1  0  0  0
M  END
> <s_m_source_file>
BACE_14.smi

> <i_m_source_file_index>
1

> <i_lp_mmshare_version>
42013

> <i_f3d_flags>
0

> <s_epik_input>
W0NIM11bQ0hdKFtDSDNdKWMxW2NIXVtjSF1bY0hdYyhbY0hdMSlDMihbQ0gyXVtDSDJdMilbTkhdW0NIMl1bQ0BASF0oW09IXSlbQ0BIXShbQ0gyXTMpW05IXUMoPU8pYyhbY0hdYyhbY0hdNClDKD1PKVtDSDNdKVtjSF1jNFtOSF1bQ0gyXVtDSDJdW0NIMl1bQ0gyXU9jKFtjSF01KVtjSF1bY0hdW2NIXWMzNQ==

> <s_epik_cmdline>
J2VwaWtfcHl0aG9uJywgJy1waCcsICc3LjAnLCAnLXRuJywgJzgnLCAnLW1hJywgJzIwMCcsICctaW1hZScsICc8aW5maWxlLm1hZT4nLCAnLW9tYWUnLCAnPG91dGZpbGUubWFlPic=

> <r_lp_tautomer_probability>
0.99995

> <r_epik_Ionization_Penalty>
  0.3230

> <r_epik_Ionization_Penalty_Charging>
  0.0000

> <r_epik_Ionization_Penalty_Neutral>
  0.3230

> <r_epik_State_Penalty>
  0.3176

> <r_epik_Charging_Adjusted_Penalty>
0.317604

> <i_epik_Tot_Q>
0

> <i_epik_Tot_abs_Q>
0

> <s_lp_Force_Field>
OPLS_2005

> <r_lp_Energy>
47.6892

> <b_lp_Chiralities_Consistent>
1

> <s_lp_Variant>
BACE_14.smi:1-1

> <chiral flag>
1

> <version>
0

> <r_i_glide_lipo>
-0.807694

> <r_i_glide_hbond>
-1.1636

> <r_i_glide_metal>
-0

> <r_i_glide_rewards>
0

> <r_i_glide_erotb>
0.231492

> <r_i_glide_esite>
-0.00379964

> <chiral flag>
1

> <s_i_glide_gridfile>
second_dock_grid_2

> <i_i_glide_lignum>
28

> <i_i_glide_rotatable_bonds>
8

> <r_i_docking_score>
-2.74804

> <r_i_glide_ligand_efficiency>
-0.0654296

> <r_i_glide_ligand_efficiency_sa>
-0.227435

> <r_i_glide_ligand_efficiency_ln>
-0.580041

> <r_glide_XP_GScore>
-3.06564

> <r_i_glide_gscore>
-3.06564

> <r_i_glide_evdw>
-37.6632

> <r_i_glide_ecoul>
-7.70105

> <r_i_glide_energy>
-45.3642

> <r_i_glide_einternal>
6.84525

> <r_i_glide_emodel>
-69.7849

> <r_glide_XP_HBond>
-1.34839

> <i_i_glide_confnum>
1

> <i_i_glide_posenum>
2

> <r_i_glide_eff_state_penalty>
0.3176

> <i_glide_XP_PoseRank>
3

$$$$
BACE_14.smi:1
                    3D
 Structure written by MMmdl.
 85 89  0  0  1  0            999 V2000
   21.8927   41.7624  -10.6877 C   0  0  0  0  0  0
   20.6669   40.9114  -11.0674 C   0  0  0  0  0  0
   20.9669   39.9799  -12.2495 C   0  0  0  0  0  0
   20.0826   40.1261   -9.8981 C   0  0  0  0  0  0
   20.9116   39.5205   -8.9271 C   0  0  0  0  0  0
   20.3418   38.7953   -7.8635 C   0  0  0  0  0  0
   18.9449   38.6535   -7.7748 C   0  0  0  0  0  0
   18.1029   39.2369   -8.7457 C   0  0  0  0  0  0
   18.6834   39.9741   -9.8007 C   0  0  0  0  0  0
   16.6096   39.0776   -8.6392 C   0  0  0  0  0  0
   15.7324   38.8921   -9.8580 C   0  0  0  0  0  0
   16.0405   37.7193   -8.9555 C   0  0  0  0  0  0
   16.0226   39.7939   -7.5015 N   0  0  0  0  0  0
   16.4242   41.1914   -7.2948 C   0  0  0  0  0  0
   15.9285   42.1479   -8.4052 C   0  0  2  0  0  0
   16.7429   43.4618   -8.6450 C   0  0  2  0  0  0
   17.0281   43.6391  -10.1578 C   0  0  0  0  0  0
   17.8674   44.8514  -10.5287 C   0  0  0  0  0  0
   17.2678   46.1213  -10.6484 C   0  0  0  0  0  0
   18.0528   47.2362  -11.0000 C   0  0  0  0  0  0
   19.4362   47.0898  -11.2259 C   0  0  0  0  0  0
   20.0519   45.8209  -11.0961 C   0  0  0  0  0  0
   19.2523   44.7107  -10.7572 C   0  0  0  0  0  0
   21.3975   45.5760  -11.2809 O   0  0  0  0  0  0
   22.3112   46.6649  -11.3982 C   0  0  0  0  0  0
   22.5395   47.3904  -10.0566 C   0  0  0  0  0  0
   23.0145   46.4523   -8.9370 C   0  0  0  0  0  0
   23.0256   47.1452   -7.5577 C   0  0  0  0  0  0
   23.1197   46.2022   -6.4477 N   0  0  0  0  0  0
   22.0868   45.2771   -6.2213 C   0  0  0  0  0  0
   20.7867   45.4492   -6.7509 C   0  0  0  0  0  0
   19.8113   44.4459   -6.6031 C   0  0  0  0  0  0
   20.1164   43.2918   -5.8538 C   0  0  0  0  0  0
   21.3958   43.1165   -5.2767 C   0  0  0  0  0  0
   22.3770   44.1160   -5.4747 C   0  0  0  0  0  0
   21.7453   41.8967   -4.4948 C   0  0  0  0  0  0
   22.8679   41.6862   -4.0389 O   0  0  0  0  0  0
   20.6531   40.8601   -4.2462 C   0  0  0  0  0  0
   18.4656   44.6205   -7.2394 C   0  0  0  0  0  0
   17.9103   45.7192   -7.2402 O   0  0  0  0  0  0
   17.9820   43.5328   -7.8628 N   0  0  0  0  0  0
   14.6195   42.5262   -8.0400 O   0  0  0  0  0  0
   15.8533   41.6053   -9.3478 H   0  0  0  0  0  0
   16.1240   44.3088   -8.3393 H   0  0  0  0  0  0
   22.2004   42.3928  -11.5235 H   0  0  0  0  0  0
   22.7519   41.1461  -10.4222 H   0  0  0  0  0  0
   21.6729   42.4201   -9.8446 H   0  0  0  0  0  0
   19.8983   41.6101  -11.3972 H   0  0  0  0  0  0
   21.4031   40.5252  -13.0888 H   0  0  0  0  0  0
   20.0570   39.4934  -12.6006 H   0  0  0  0  0  0
   21.6601   39.1931  -11.9593 H   0  0  0  0  0  0
   21.9863   39.6016   -8.9852 H   0  0  0  0  0  0
   20.9782   38.3367   -7.1198 H   0  0  0  0  0  0
   18.5142   38.0926   -6.9560 H   0  0  0  0  0  0
   18.0463   40.4162  -10.5520 H   0  0  0  0  0  0
   14.7139   39.2743   -9.8198 H   0  0  0  0  0  0
   16.2065   38.9269  -10.8357 H   0  0  0  0  0  0
   16.7157   36.9582   -9.3428 H   0  0  0  0  0  0
   15.2606   37.3562   -8.2942 H   0  0  0  0  0  0
   16.0611   39.2362   -6.6494 H   0  0  0  0  0  0
   17.5092   41.2194   -7.2397 H   0  0  0  0  0  0
   16.0517   41.5418   -6.3327 H   0  0  0  0  0  0
   17.5331   42.7506  -10.5408 H   0  0  0  0  0  0
   16.0835   43.6971  -10.6990 H   0  0  0  0  0  0
   16.2100   46.2444  -10.4697 H   0  0  0  0  0  0
   17.5950   48.2095  -11.0925 H   0  0  0  0  0  0
   20.0021   47.9670  -11.4950 H   0  0  0  0  0  0
   19.7158   43.7424  -10.6550 H   0  0  0  0  0  0
   23.2594   46.2479  -11.7392 H   0  0  0  0  0  0
   21.9994   47.3583  -12.1800 H   0  0  0  0  0  0
   23.2715   48.1863  -10.1977 H   0  0  0  0  0  0
   21.6173   47.8811   -9.7453 H   0  0  0  0  0  0
   22.3566   45.5835   -8.9173 H   0  0  0  0  0  0
   24.0080   46.0651   -9.1658 H   0  0  0  0  0  0
   23.8719   47.8315   -7.5003 H   0  0  0  0  0  0
   22.1384   47.7649   -7.4238 H   0  0  0  0  0  0
   24.0477   45.9517   -6.1336 H   0  0  0  0  0  0
   20.5346   46.3282   -7.3257 H   0  0  0  0  0  0
   19.3465   42.5503   -5.7338 H   0  0  0  0  0  0
   23.3688   43.9850   -5.0643 H   0  0  0  0  0  0
   20.2290   40.5085   -5.1869 H   0  0  0  0  0  0
   19.8596   41.2907   -3.6362 H   0  0  0  0  0  0
   21.0625   40.0012   -3.7164 H   0  0  0  0  0  0
   18.5338   42.6887   -7.8082 H   0  0  0  0  0  0
   14.5927   42.5502   -7.0868 H   0  0  0  0  0  0
  1  2  1  0  0  0
  1 45  1  0  0  0
  1 46  1  0  0  0
  1 47  1  0  0  0
  2  3  1  0  0  0
  2  4  1  0  0  0
  2 48  1  0  0  0
  3 49  1  0  0  0
  3 50  1  0  0  0
  3 51  1  0  0  0
  4  9  1  0  0  0
  4  5  2  0  0  0
  5  6  1  0  0  0
  5 52  1  0  0  0
  6  7  2  0  0  0
  6 53  1  0  0  0
  7  8  1  0  0  0
  7 54  1  0  0  0
  8  9  2  0  0  0
  8 10  1  0  0  0
  9 55  1  0  0  0
 10 12  1  0  0  0
 10 11  1  0  0  0
 10 13  1  0  0  0
 11 12  1  0  0  0
 11 56  1  0  0  0
 11 57  1  0  0  0
 12 58  1  0  0  0
 12 59  1  0  0  0
 13 14  1  0  0  0
 13 60  1  0  0  0
 14 15  1  0  0  0
 14 61  1  0  0  0
 14 62  1  0  0  0
 15 43  1  0  0  0
 15 16  1  0  0  0
 15 42  1  0  0  0
 16 44  1  0  0  0
 16 41  1  0  0  0
 16 17  1  0  0  0
 17 18  1  0  0  0
 17 63  1  0  0  0
 17 64  1  0  0  0
 18 23  1  0  0  0
 18 19  2  0  0  0
 19 20  1  0  0  0
 19 65  1  0  0  0
 20 21  2  0  0  0
 20 66  1  0  0  0
 21 22  1  0  0  0
 21 67  1  0  0  0
 22 23  2  0  0  0
 22 24  1  0  0  0
 23 68  1  0  0  0
 24 25  1  0  0  0
 25 26  1  0  0  0
 25 69  1  0  0  0
 25 70  1  0  0  0
 26 27  1  0  0  0
 26 71  1  0  0  0
 26 72  1  0  0  0
 27 28  1  0  0  0
 27 73  1  0  0  0
 27 74  1  0  0  0
 28 29  1  0  0  0
 28 75  1  0  0  0
 28 76  1  0  0  0
 29 30  1  0  0  0
 29 77  1  0  0  0
 30 35  1  0  0  0
 30 31  2  0  0  0
 31 32  1  0  0  0
 31 78  1  0  0  0
 32 33  2  0  0  0
 32 39  1  0  0  0
 33 34  1  0  0  0
 33 79  1  0  0  0
 34 35  2  0  0  0
 34 36  1  0  0  0
 35 80  1  0  0  0
 36 37  2  0  0  0
 36 38  1  0  0  0
 38 81  1  0  0  0
 38 82  1  0  0  0
 38 83  1  0  0  0
 39 40  2  0  0  0
 39 41  1  0  0  0
 41 84  1  0  0  0
 42 85  1  0  0  0
M  END
> <s_m_source_file>
BACE_14.smi

> <i_m_source_file_index>
1

> <i_lp_mmshare_version>
42013

> <i_f3d_flags>
0

> <s_epik_input>
W0NIM11bQ0hdKFtDSDNdKWMxW2NIXVtjSF1bY0hdYyhbY0hdMSlDMihbQ0gyXVtDSDJdMilbTkhdW0NIMl1bQ0BASF0oW09IXSlbQ0BIXShbQ0gyXTMpW05IXUMoPU8pYyhbY0hdYyhbY0hdNClDKD1PKVtDSDNdKVtjSF1jNFtOSF1bQ0gyXVtDSDJdW0NIMl1bQ0gyXU9jKFtjSF01KVtjSF1bY0hdW2NIXWMzNQ==

> <s_epik_cmdline>
J2VwaWtfcHl0aG9uJywgJy1waCcsICc3LjAnLCAnLXRuJywgJzgnLCAnLW1hJywgJzIwMCcsICctaW1hZScsICc8aW5maWxlLm1hZT4nLCAnLW9tYWUnLCAnPG91dGZpbGUubWFlPic=

> <r_lp_tautomer_probability>
0.99995

> <r_epik_Ionization_Penalty>
  0.3230

> <r_epik_Ionization_Penalty_Charging>
  0.0000

> <r_epik_Ionization_Penalty_Neutral>
  0.3230

> <r_epik_State_Penalty>
  0.3176

> <r_epik_Charging_Adjusted_Penalty>
0.317604

> <i_epik_Tot_Q>
0

> <i_epik_Tot_abs_Q>
0

> <s_lp_Force_Field>
OPLS_2005

> <r_lp_Energy>
47.6892

> <b_lp_Chiralities_Consistent>
1

> <s_lp_Variant>
BACE_14.smi:1-1

> <chiral flag>
1

> <version>
0

> <r_i_glide_lipo>
-0.807694

> <r_i_glide_hbond>
-1.1636

> <r_i_glide_metal>
-0

> <r_i_glide_rewards>
0

> <r_i_glide_erotb>
0.231492

> <r_i_glide_esite>
-0.00379964

> <chiral flag>
1

> <s_i_glide_gridfile>
second_dock_grid_2

> <i_i_glide_lignum>
28

> <i_i_glide_rotatable_bonds>
8

> <r_i_docking_score>
-2.25028

> <r_i_glide_ligand_efficiency>
-0.053578

> <r_i_glide_ligand_efficiency_sa>
-0.186239

> <r_i_glide_ligand_efficiency_ln>
-0.474976

> <r_glide_XP_GScore>
-2.56788

> <r_i_glide_gscore>
-2.56788

> <r_i_glide_evdw>
-39.8547

> <r_i_glide_ecoul>
-8.48927

> <r_i_glide_energy>
-48.3439

> <r_i_glide_einternal>
4.158

> <r_i_glide_emodel>
-65.7798

> <r_glide_XP_HBond>
-1.34839

> <i_i_glide_confnum>
1

> <i_i_glide_posenum>
11

> <r_i_glide_eff_state_penalty>
0.3176

> <i_glide_XP_PoseRank>
4

$$$$
BACE_14.smi:1
                    3D
 Structure written by MMmdl.
 85 89  0  0  1  0            999 V2000
   17.5872   43.9456  -12.7107 C   0  0  0  0  0  0
   16.9373   44.3244  -11.3680 C   0  0  0  0  0  0
   16.3352   45.7403  -11.4020 C   0  0  0  0  0  0
   15.9218   43.2801  -10.9073 C   0  0  0  0  0  0
   14.5549   43.3967  -11.2454 C   0  0  0  0  0  0
   13.6323   42.4249  -10.8150 C   0  0  0  0  0  0
   14.0669   41.3311  -10.0430 C   0  0  0  0  0  0
   15.4279   41.1970   -9.6901 C   0  0  0  0  0  0
   16.3460   42.1770  -10.1317 C   0  0  0  0  0  0
   15.9079   40.0152   -8.8597 C   0  0  0  0  0  0
   16.5158   40.3104   -7.5093 C   0  0  0  0  0  0
   15.1425   39.6891   -7.5996 C   0  0  0  0  0  0
   16.4667   38.8917   -9.6274 N   0  0  0  0  0  0
   17.8373   39.0756  -10.1107 C   0  0  0  0  0  0
   18.7887   39.4818   -8.9615 C   0  0  2  0  0  0
   19.8247   40.5908   -9.3045 C   0  0  2  0  0  0
   20.9841   40.0376  -10.1785 C   0  0  0  0  0  0
   22.0121   41.0851  -10.5864 C   0  0  0  0  0  0
   21.7307   41.9753  -11.6421 C   0  0  0  0  0  0
   22.6776   42.9475  -12.0135 C   0  0  0  0  0  0
   23.9076   43.0378  -11.3334 C   0  0  0  0  0  0
   24.2036   42.1520  -10.2683 C   0  0  0  0  0  0
   23.2499   41.1753   -9.9129 C   0  0  0  0  0  0
   25.3768   42.1668   -9.5430 O   0  0  0  0  0  0
   26.2663   43.2796   -9.6495 C   0  0  0  0  0  0
   25.7045   44.5363   -8.9565 C   0  0  0  0  0  0
   25.3567   44.2990   -7.4791 C   0  0  0  0  0  0
   24.6215   45.4963   -6.8468 C   0  0  0  0  0  0
   23.9841   45.1546   -5.5780 N   0  0  0  0  0  0
   22.9138   44.2462   -5.5380 C   0  0  0  0  0  0
   22.1747   43.8952   -6.6913 C   0  0  0  0  0  0
   21.1626   42.9158   -6.6327 C   0  0  0  0  0  0
   20.8455   42.3159   -5.3941 C   0  0  0  0  0  0
   21.5509   42.6876   -4.2332 C   0  0  0  0  0  0
   22.5830   43.6439   -4.3068 C   0  0  0  0  0  0
   21.2224   42.0692   -2.9486 C   0  0  0  0  0  0
   21.0800   42.7055   -1.9045 O   0  0  0  0  0  0
   21.0519   40.5503   -2.8995 C   0  0  0  0  0  0
   20.4435   42.5325   -7.8892 C   0  0  0  0  0  0
   20.0885   43.3817   -8.6901 O   0  0  0  0  0  0
   20.3649   41.2125   -8.0879 N   0  0  0  0  0  0
   19.4951   38.3396   -8.5157 O   0  0  0  0  0  0
   18.1983   39.8201   -8.1084 H   0  0  0  0  0  0
   19.3149   41.3376   -9.9162 H   0  0  0  0  0  0
   18.3577   44.6653  -12.9894 H   0  0  0  0  0  0
   16.8607   43.9145  -13.5231 H   0  0  0  0  0  0
   18.0642   42.9666  -12.6532 H   0  0  0  0  0  0
   17.7412   44.3479  -10.6311 H   0  0  0  0  0  0
   17.0910   46.4809  -11.6655 H   0  0  0  0  0  0
   15.9343   46.0196  -10.4270 H   0  0  0  0  0  0
   15.5280   45.8248  -12.1302 H   0  0  0  0  0  0
   14.2032   44.2290  -11.8372 H   0  0  0  0  0  0
   12.5890   42.5181  -11.0786 H   0  0  0  0  0  0
   13.3463   40.5919   -9.7246 H   0  0  0  0  0  0
   17.3891   42.0763   -9.8681 H   0  0  0  0  0  0
   17.3362   39.6752   -7.1753 H   0  0  0  0  0  0
   16.5784   41.3540   -7.2012 H   0  0  0  0  0  0
   14.2869   40.3174   -7.3518 H   0  0  0  0  0  0
   15.0447   38.6386   -7.3260 H   0  0  0  0  0  0
   16.3834   38.0289   -9.0993 H   0  0  0  0  0  0
   17.8362   39.8557  -10.8719 H   0  0  0  0  0  0
   18.2011   38.1700  -10.5979 H   0  0  0  0  0  0
   21.4893   39.2301   -9.6486 H   0  0  0  0  0  0
   20.5721   39.5851  -11.0804 H   0  0  0  0  0  0
   20.7893   41.9188  -12.1684 H   0  0  0  0  0  0
   22.4600   43.6286  -12.8229 H   0  0  0  0  0  0
   24.6060   43.7976  -11.6514 H   0  0  0  0  0  0
   23.4701   40.4967   -9.1022 H   0  0  0  0  0  0
   27.1980   42.9950   -9.1605 H   0  0  0  0  0  0
   26.5356   43.4792  -10.6866 H   0  0  0  0  0  0
   26.4258   45.3502   -9.0307 H   0  0  0  0  0  0
   24.8164   44.8758   -9.4896 H   0  0  0  0  0  0
   24.7569   43.3946   -7.3770 H   0  0  0  0  0  0
   26.2846   44.1013   -6.9423 H   0  0  0  0  0  0
   25.3307   46.3062   -6.6760 H   0  0  0  0  0  0
   23.8760   45.9018   -7.5308 H   0  0  0  0  0  0
   24.5108   45.3163   -4.7315 H   0  0  0  0  0  0
   22.3946   44.3372   -7.6519 H   0  0  0  0  0  0
   20.0605   41.5771   -5.3267 H   0  0  0  0  0  0
   23.1246   43.8991   -3.4080 H   0  0  0  0  0  0
   21.9595   40.0486   -3.2360 H   0  0  0  0  0  0
   20.2187   40.2352   -3.5281 H   0  0  0  0  0  0
   20.8460   40.2242   -1.8796 H   0  0  0  0  0  0
   20.7472   40.6152   -7.3687 H   0  0  0  0  0  0
   19.8908   38.5386   -7.6810 H   0  0  0  0  0  0
  1  2  1  0  0  0
  1 45  1  0  0  0
  1 46  1  0  0  0
  1 47  1  0  0  0
  2  3  1  0  0  0
  2  4  1  0  0  0
  2 48  1  0  0  0
  3 49  1  0  0  0
  3 50  1  0  0  0
  3 51  1  0  0  0
  4  9  1  0  0  0
  4  5  2  0  0  0
  5  6  1  0  0  0
  5 52  1  0  0  0
  6  7  2  0  0  0
  6 53  1  0  0  0
  7  8  1  0  0  0
  7 54  1  0  0  0
  8  9  2  0  0  0
  8 10  1  0  0  0
  9 55  1  0  0  0
 10 12  1  0  0  0
 10 11  1  0  0  0
 10 13  1  0  0  0
 11 12  1  0  0  0
 11 56  1  0  0  0
 11 57  1  0  0  0
 12 58  1  0  0  0
 12 59  1  0  0  0
 13 14  1  0  0  0
 13 60  1  0  0  0
 14 15  1  0  0  0
 14 61  1  0  0  0
 14 62  1  0  0  0
 15 43  1  0  0  0
 15 16  1  0  0  0
 15 42  1  0  0  0
 16 44  1  0  0  0
 16 41  1  0  0  0
 16 17  1  0  0  0
 17 18  1  0  0  0
 17 63  1  0  0  0
 17 64  1  0  0  0
 18 23  1  0  0  0
 18 19  2  0  0  0
 19 20  1  0  0  0
 19 65  1  0  0  0
 20 21  2  0  0  0
 20 66  1  0  0  0
 21 22  1  0  0  0
 21 67  1  0  0  0
 22 23  2  0  0  0
 22 24  1  0  0  0
 23 68  1  0  0  0
 24 25  1  0  0  0
 25 26  1  0  0  0
 25 69  1  0  0  0
 25 70  1  0  0  0
 26 27  1  0  0  0
 26 71  1  0  0  0
 26 72  1  0  0  0
 27 28  1  0  0  0
 27 73  1  0  0  0
 27 74  1  0  0  0
 28 29  1  0  0  0
 28 75  1  0  0  0
 28 76  1  0  0  0
 29 30  1  0  0  0
 29 77  1  0  0  0
 30 35  1  0  0  0
 30 31  2  0  0  0
 31 32  1  0  0  0
 31 78  1  0  0  0
 32 33  2  0  0  0
 32 39  1  0  0  0
 33 34  1  0  0  0
 33 79  1  0  0  0
 34 35  2  0  0  0
 34 36  1  0  0  0
 35 80  1  0  0  0
 36 37  2  0  0  0
 36 38  1  0  0  0
 38 81  1  0  0  0
 38 82  1  0  0  0
 38 83  1  0  0  0
 39 40  2  0  0  0
 39 41  1  0  0  0
 41 84  1  0  0  0
 42 85  1  0  0  0
M  END
> <s_m_source_file>
BACE_14.smi

> <i_m_source_file_index>
1

> <i_lp_mmshare_version>
42013

> <i_f3d_flags>
0

> <s_epik_input>
W0NIM11bQ0hdKFtDSDNdKWMxW2NIXVtjSF1bY0hdYyhbY0hdMSlDMihbQ0gyXVtDSDJdMilbTkhdW0NIMl1bQ0BASF0oW09IXSlbQ0BIXShbQ0gyXTMpW05IXUMoPU8pYyhbY0hdYyhbY0hdNClDKD1PKVtDSDNdKVtjSF1jNFtOSF1bQ0gyXVtDSDJdW0NIMl1bQ0gyXU9jKFtjSF01KVtjSF1bY0hdW2NIXWMzNQ==

> <s_epik_cmdline>
J2VwaWtfcHl0aG9uJywgJy1waCcsICc3LjAnLCAnLXRuJywgJzgnLCAnLW1hJywgJzIwMCcsICctaW1hZScsICc8aW5maWxlLm1hZT4nLCAnLW9tYWUnLCAnPG91dGZpbGUubWFlPic=

> <r_lp_tautomer_probability>
0.99995

> <r_epik_Ionization_Penalty>
  0.3230

> <r_epik_Ionization_Penalty_Charging>
  0.0000

> <r_epik_Ionization_Penalty_Neutral>
  0.3230

> <r_epik_State_Penalty>
  0.3176

> <r_epik_Charging_Adjusted_Penalty>
0.317604

> <i_epik_Tot_Q>
0

> <i_epik_Tot_abs_Q>
0

> <s_lp_Force_Field>
OPLS_2005

> <r_lp_Energy>
47.6892

> <b_lp_Chiralities_Consistent>
1

> <s_lp_Variant>
BACE_14.smi:1-1

> <chiral flag>
1

> <version>
0

> <r_i_glide_lipo>
-0.807694

> <r_i_glide_hbond>
-1.1636

> <r_i_glide_metal>
-0

> <r_i_glide_rewards>
0

> <r_i_glide_erotb>
0.231492

> <r_i_glide_esite>
-0.00379964

> <chiral flag>
1

> <s_i_glide_gridfile>
second_dock_grid_2

> <i_i_glide_lignum>
28

> <i_i_glide_rotatable_bonds>
8

> <r_i_docking_score>
-1.73102

> <r_i_glide_ligand_efficiency>
-0.0412147

> <r_i_glide_ligand_efficiency_sa>
-0.143263

> <r_i_glide_ligand_efficiency_ln>
-0.365373

> <r_glide_XP_GScore>
-2.04862

> <r_i_glide_gscore>
-2.04862

> <r_i_glide_evdw>
-42.1023

> <r_i_glide_ecoul>
-4.25544

> <r_i_glide_energy>
-46.3578

> <r_i_glide_einternal>
7.6323

> <r_i_glide_emodel>
-66.7848

> <r_glide_XP_HBond>
-1.34839

> <i_i_glide_confnum>
1

> <i_i_glide_posenum>
7

> <r_i_glide_eff_state_penalty>
0.3176

> <i_glide_XP_PoseRank>
5

$$$$
BACE_14.smi:1
                    3D
 Structure written by MMmdl.
 85 89  0  0  1  0            999 V2000
   20.6664   40.0172  -12.4259 C   0  0  0  0  0  0
   21.0834   40.6014  -11.0663 C   0  0  0  0  0  0
   20.8081   42.1107  -10.9947 C   0  0  0  0  0  0
   20.4298   39.8727   -9.8966 C   0  0  0  0  0  0
   21.2349   39.2810   -8.8998 C   0  0  0  0  0  0
   20.6389   38.6389   -7.7979 C   0  0  0  0  0  0
   19.2365   38.5750   -7.6901 C   0  0  0  0  0  0
   18.4178   39.1503   -8.6846 C   0  0  0  0  0  0
   19.0228   39.8019   -9.7812 C   0  0  0  0  0  0
   16.9242   39.0781   -8.5753 C   0  0  0  0  0  0
   16.1265   38.3342   -9.6419 C   0  0  0  0  0  0
   16.2631   37.7501   -8.2694 C   0  0  0  0  0  0
   16.3835   40.2555   -7.8783 N   0  0  0  0  0  0
   15.1644   40.8912   -8.3921 C   0  0  0  0  0  0
   15.3356   41.4930   -9.8120 C   0  0  2  0  0  0
   15.8323   42.9619   -9.8832 C   0  0  2  0  0  0
   16.3547   43.3000  -11.2985 C   0  0  0  0  0  0
   16.7247   44.7597  -11.5094 C   0  0  0  0  0  0
   15.7249   45.6925  -11.8461 C   0  0  0  0  0  0
   16.0630   47.0421  -12.0536 C   0  0  0  0  0  0
   17.3984   47.4684  -11.9153 C   0  0  0  0  0  0
   18.4151   46.5425  -11.5741 C   0  0  0  0  0  0
   18.0634   45.1898  -11.3853 C   0  0  0  0  0  0
   19.7482   46.8686  -11.4194 O   0  0  0  0  0  0
   20.1386   48.2378  -11.3137 C   0  0  0  0  0  0
   19.7546   48.8420   -9.9487 C   0  0  0  0  0  0
   20.3852   48.0808   -8.7725 C   0  0  0  0  0  0
   19.8407   48.5283   -7.3980 C   0  0  0  0  0  0
   20.1679   47.5881   -6.3280 N   0  0  0  0  0  0
   19.7020   46.2671   -6.4422 C   0  0  0  0  0  0
   18.4931   45.9582   -7.1012 C   0  0  0  0  0  0
   18.1120   44.6217   -7.3288 C   0  0  0  0  0  0
   18.9289   43.5778   -6.8400 C   0  0  0  0  0  0
   20.1136   43.8668   -6.1237 C   0  0  0  0  0  0
   20.4945   45.2167   -5.9388 C   0  0  0  0  0  0
   20.9657   42.7492   -5.6289 C   0  0  0  0  0  0
   20.8599   41.5865   -6.0183 O   0  0  0  0  0  0
   22.0241   43.0794   -4.5761 C   0  0  0  0  0  0
   16.8443   44.3517   -8.0827 C   0  0  0  0  0  0
   15.9103   45.1571   -8.0405 O   0  0  0  0  0  0
   16.8574   43.2721   -8.8828 N   0  0  0  0  0  0
   14.0611   41.4633  -10.4339 O   0  0  0  0  0  0
   15.9941   40.8653  -10.4110 H   0  0  0  0  0  0
   14.9636   43.5953   -9.6911 H   0  0  0  0  0  0
   21.2054   40.5034  -13.2405 H   0  0  0  0  0  0
   19.6000   40.1478  -12.6094 H   0  0  0  0  0  0
   20.8863   38.9510  -12.4779 H   0  0  0  0  0  0
   22.1636   40.4668  -10.9820 H   0  0  0  0  0  0
   21.3293   42.6417  -11.7916 H   0  0  0  0  0  0
   21.1482   42.5268  -10.0454 H   0  0  0  0  0  0
   19.7433   42.3234  -11.0902 H   0  0  0  0  0  0
   22.3127   39.3260   -8.9661 H   0  0  0  0  0  0
   21.2580   38.1973   -7.0306 H   0  0  0  0  0  0
   18.7835   38.0864   -6.8391 H   0  0  0  0  0  0
   18.3970   40.2504  -10.5385 H   0  0  0  0  0  0
   15.1210   38.6442   -9.9156 H   0  0  0  0  0  0
   16.6916   37.8563  -10.4383 H   0  0  0  0  0  0
   16.8994   36.8738   -8.1597 H   0  0  0  0  0  0
   15.3730   37.7531   -7.6406 H   0  0  0  0  0  0
   17.1101   40.9249   -7.6495 H   0  0  0  0  0  0
   14.8315   41.6647   -7.6987 H   0  0  0  0  0  0
   14.3662   40.1482   -8.3919 H   0  0  0  0  0  0
   17.2176   42.6775  -11.5386 H   0  0  0  0  0  0
   15.5876   43.0479  -12.0277 H   0  0  0  0  0  0
   14.6985   45.3707  -11.9470 H   0  0  0  0  0  0
   15.2979   47.7551  -12.3196 H   0  0  0  0  0  0
   17.6154   48.5116  -12.0825 H   0  0  0  0  0  0
   18.8346   44.4819  -11.1238 H   0  0  0  0  0  0
   21.2223   48.2708  -11.4225 H   0  0  0  0  0  0
   19.7482   48.8317  -12.1407 H   0  0  0  0  0  0
   20.0618   49.8878   -9.9112 H   0  0  0  0  0  0
   18.6694   48.8424   -9.8412 H   0  0  0  0  0  0
   20.1903   47.0197   -8.9273 H   0  0  0  0  0  0
   21.4707   48.1857   -8.7962 H   0  0  0  0  0  0
   20.2608   49.5010   -7.1395 H   0  0  0  0  0  0
   18.7613   48.6754   -7.4364 H   0  0  0  0  0  0
   21.0894   47.6973   -5.9293 H   0  0  0  0  0  0
   17.8621   46.7460   -7.4845 H   0  0  0  0  0  0
   18.6363   42.5471   -6.9861 H   0  0  0  0  0  0
   21.4181   45.4603   -5.4354 H   0  0  0  0  0  0
   21.6029   43.7107   -3.7914 H   0  0  0  0  0  0
   22.8709   43.5947   -5.0329 H   0  0  0  0  0  0
   22.3924   42.1633   -4.1144 H   0  0  0  0  0  0
   17.6841   42.6933   -8.8747 H   0  0  0  0  0  0
   13.4512   41.0119   -9.8627 H   0  0  0  0  0  0
  1  2  1  0  0  0
  1 45  1  0  0  0
  1 46  1  0  0  0
  1 47  1  0  0  0
  2  3  1  0  0  0
  2  4  1  0  0  0
  2 48  1  0  0  0
  3 49  1  0  0  0
  3 50  1  0  0  0
  3 51  1  0  0  0
  4  9  1  0  0  0
  4  5  2  0  0  0
  5  6  1  0  0  0
  5 52  1  0  0  0
  6  7  2  0  0  0
  6 53  1  0  0  0
  7  8  1  0  0  0
  7 54  1  0  0  0
  8  9  2  0  0  0
  8 10  1  0  0  0
  9 55  1  0  0  0
 10 12  1  0  0  0
 10 11  1  0  0  0
 10 13  1  0  0  0
 11 12  1  0  0  0
 11 56  1  0  0  0
 11 57  1  0  0  0
 12 58  1  0  0  0
 12 59  1  0  0  0
 13 14  1  0  0  0
 13 60  1  0  0  0
 14 15  1  0  0  0
 14 61  1  0  0  0
 14 62  1  0  0  0
 15 43  1  0  0  0
 15 16  1  0  0  0
 15 42  1  0  0  0
 16 44  1  0  0  0
 16 41  1  0  0  0
 16 17  1  0  0  0
 17 18  1  0  0  0
 17 63  1  0  0  0
 17 64  1  0  0  0
 18 23  1  0  0  0
 18 19  2  0  0  0
 19 20  1  0  0  0
 19 65  1  0  0  0
 20 21  2  0  0  0
 20 66  1  0  0  0
 21 22  1  0  0  0
 21 67  1  0  0  0
 22 23  2  0  0  0
 22 24  1  0  0  0
 23 68  1  0  0  0
 24 25  1  0  0  0
 25 26  1  0  0  0
 25 69  1  0  0  0
 25 70  1  0  0  0
 26 27  1  0  0  0
 26 71  1  0  0  0
 26 72  1  0  0  0
 27 28  1  0  0  0
 27 73  1  0  0  0
 27 74  1  0  0  0
 28 29  1  0  0  0
 28 75  1  0  0  0
 28 76  1  0  0  0
 29 30  1  0  0  0
 29 77  1  0  0  0
 30 35  1  0  0  0
 30 31  2  0  0  0
 31 32  1  0  0  0
 31 78  1  0  0  0
 32 33  2  0  0  0
 32 39  1  0  0  0
 33 34  1  0  0  0
 33 79  1  0  0  0
 34 35  2  0  0  0
 34 36  1  0  0  0
 35 80  1  0  0  0
 36 37  2  0  0  0
 36 38  1  0  0  0
 38 81  1  0  0  0
 38 82  1  0  0  0
 38 83  1  0  0  0
 39 40  2  0  0  0
 39 41  1  0  0  0
 41 84  1  0  0  0
 42 85  1  0  0  0
M  END
> <s_m_source_file>
BACE_14.smi

> <i_m_source_file_index>
1

> <i_lp_mmshare_version>
42013

> <i_f3d_flags>
0

> <s_epik_input>
W0NIM11bQ0hdKFtDSDNdKWMxW2NIXVtjSF1bY0hdYyhbY0hdMSlDMihbQ0gyXVtDSDJdMilbTkhdW0NIMl1bQ0BASF0oW09IXSlbQ0BIXShbQ0gyXTMpW05IXUMoPU8pYyhbY0hdYyhbY0hdNClDKD1PKVtDSDNdKVtjSF1jNFtOSF1bQ0gyXVtDSDJdW0NIMl1bQ0gyXU9jKFtjSF01KVtjSF1bY0hdW2NIXWMzNQ==

> <s_epik_cmdline>
J2VwaWtfcHl0aG9uJywgJy1waCcsICc3LjAnLCAnLXRuJywgJzgnLCAnLW1hJywgJzIwMCcsICctaW1hZScsICc8aW5maWxlLm1hZT4nLCAnLW9tYWUnLCAnPG91dGZpbGUubWFlPic=

> <r_lp_tautomer_probability>
0.99995

> <r_epik_Ionization_Penalty>
  0.3230

> <r_epik_Ionization_Penalty_Charging>
  0.0000

> <r_epik_Ionization_Penalty_Neutral>
  0.3230

> <r_epik_State_Penalty>
  0.3176

> <r_epik_Charging_Adjusted_Penalty>
0.317604

> <i_epik_Tot_Q>
0

> <i_epik_Tot_abs_Q>
0

> <s_lp_Force_Field>
OPLS_2005

> <r_lp_Energy>
47.6892

> <b_lp_Chiralities_Consistent>
1

> <s_lp_Variant>
BACE_14.smi:1-1

> <chiral flag>
1

> <version>
0

> <r_i_glide_lipo>
-0.807694

> <r_i_glide_hbond>
-1.1636

> <r_i_glide_metal>
-0

> <r_i_glide_rewards>
0

> <r_i_glide_erotb>
0.231492

> <r_i_glide_esite>
-0.00379964

> <chiral flag>
1

> <s_i_glide_gridfile>
second_dock_grid_2

> <i_i_glide_lignum>
28

> <i_i_glide_rotatable_bonds>
8

> <r_i_docking_score>
-1.55182

> <r_i_glide_ligand_efficiency>
-0.0369481

> <r_i_glide_ligand_efficiency_sa>
-0.128433

> <r_i_glide_ligand_efficiency_ln>
-0.327549

> <r_glide_XP_GScore>
-1.86942

> <r_i_glide_gscore>
-1.86942

> <r_i_glide_evdw>
-43.6563

> <r_i_glide_ecoul>
-4.98772

> <r_i_glide_energy>
-48.6441

> <r_i_glide_einternal>
9.77299

> <r_i_glide_emodel>
-66.1901

> <r_glide_XP_HBond>
-1.34839

> <i_i_glide_confnum>
1

> <i_i_glide_posenum>
4

> <r_i_glide_eff_state_penalty>
0.3176

> <i_glide_XP_PoseRank>
6

$$$$
BACE_14.smi:1
                    3D
 Structure written by MMmdl.
 85 89  0  0  1  0            999 V2000
   19.1314   41.7492  -11.7461 C   0  0  0  0  0  0
   19.5115   40.2581  -11.7180 C   0  0  0  0  0  0
   20.9177   40.0142  -12.2940 C   0  0  0  0  0  0
   19.3486   39.6507  -10.3257 C   0  0  0  0  0  0
   18.3674   38.6661  -10.0724 C   0  0  0  0  0  0
   18.2315   38.1149   -8.7847 C   0  0  0  0  0  0
   19.0725   38.5433   -7.7404 C   0  0  0  0  0  0
   20.0574   39.5293   -7.9703 C   0  0  0  0  0  0
   20.1873   40.0727   -9.2688 C   0  0  0  0  0  0
   20.9744   39.9954   -6.8486 C   0  0  0  0  0  0
   21.8132   38.9511   -6.1514 C   0  0  0  0  0  0
   22.4634   39.9367   -7.0926 C   0  0  0  0  0  0
   20.4605   41.1094   -6.0370 N   0  0  0  0  0  0
   21.3838   41.6360   -5.0290 C   0  0  0  0  0  0
   21.0725   43.1143   -4.6993 C   0  0  2  0  0  0
   20.9877   44.0738   -5.9212 C   0  0  2  0  0  0
   20.5639   45.5062   -5.4934 C   0  0  0  0  0  0
   20.3211   46.4506   -6.6643 C   0  0  0  0  0  0
   21.4125   47.0200   -7.3498 C   0  0  0  0  0  0
   21.1861   47.8503   -8.4625 C   0  0  0  0  0  0
   19.8726   48.1169   -8.8952 C   0  0  0  0  0  0
   18.7637   47.5597   -8.2102 C   0  0  0  0  0  0
   19.0055   46.7343   -7.0924 C   0  0  0  0  0  0
   17.4429   47.7648   -8.5549 O   0  0  0  0  0  0
   17.1255   48.4720   -9.7535 C   0  0  0  0  0  0
   17.2808   47.5738  -10.9943 C   0  0  0  0  0  0
   16.2436   46.4360  -11.0383 C   0  0  0  0  0  0
   16.4246   45.4757  -12.2311 C   0  0  0  0  0  0
   17.6818   44.7331  -12.1770 N   0  0  0  0  0  0
   17.8478   43.8814  -11.0785 C   0  0  0  0  0  0
   18.9971   44.0222  -10.2776 C   0  0  0  0  0  0
   19.1619   43.2419   -9.1137 C   0  0  0  0  0  0
   18.1898   42.2714   -8.7817 C   0  0  0  0  0  0
   17.0530   42.1064   -9.5965 C   0  0  0  0  0  0
   16.8768   42.9149  -10.7362 C   0  0  0  0  0  0
   16.0451   41.1034   -9.2525 C   0  0  0  0  0  0
   14.9568   41.0106   -9.8204 O   0  0  0  0  0  0
   16.3583   40.1207   -8.1235 C   0  0  0  0  0  0
   20.3578   43.4714   -8.2425 C   0  0  0  0  0  0
   21.4547   43.6909   -8.7294 O   0  0  0  0  0  0
   20.0640   43.5600   -6.9414 N   0  0  0  0  0  0
   22.0581   43.6117   -3.8142 O   0  0  0  0  0  0
   20.1275   43.1705   -4.1566 H   0  0  0  0  0  0
   21.9938   44.1672   -6.3348 H   0  0  0  0  0  0
   19.1870   42.1483  -12.7594 H   0  0  0  0  0  0
   19.7912   42.3519  -11.1216 H   0  0  0  0  0  0
   18.1103   41.9004  -11.3941 H   0  0  0  0  0  0
   18.8126   39.7483  -12.3823 H   0  0  0  0  0  0
   20.9941   40.3931  -13.3137 H   0  0  0  0  0  0
   21.1490   38.9490  -12.3262 H   0  0  0  0  0  0
   21.6925   40.5053  -11.7048 H   0  0  0  0  0  0
   17.7133   38.3250  -10.8613 H   0  0  0  0  0  0
   17.4812   37.3607   -8.5976 H   0  0  0  0  0  0
   18.9577   38.1066   -6.7590 H   0  0  0  0  0  0
   20.9423   40.8240   -9.4507 H   0  0  0  0  0  0
   21.9931   39.0783   -5.0840 H   0  0  0  0  0  0
   21.7172   37.9190   -6.4887 H   0  0  0  0  0  0
   22.8022   39.5637   -8.0591 H   0  0  0  0  0  0
   23.0781   40.7230   -6.6544 H   0  0  0  0  0  0
   19.5723   40.8570   -5.6154 H   0  0  0  0  0  0
   22.4006   41.5579   -5.4137 H   0  0  0  0  0  0
   21.3508   41.0330   -4.1206 H   0  0  0  0  0  0
   19.6557   45.4518   -4.8933 H   0  0  0  0  0  0
   21.3244   45.9339   -4.8400 H   0  0  0  0  0  0
   22.4246   46.8110   -7.0360 H   0  0  0  0  0  0
   22.0237   48.2797   -8.9922 H   0  0  0  0  0  0
   19.7499   48.7527   -9.7595 H   0  0  0  0  0  0
   18.1658   46.2981   -6.5718 H   0  0  0  0  0  0
   16.0889   48.8004   -9.6783 H   0  0  0  0  0  0
   17.7040   49.3912   -9.8455 H   0  0  0  0  0  0
   17.2164   48.1796  -11.8982 H   0  0  0  0  0  0
   18.2806   47.1396  -10.9941 H   0  0  0  0  0  0
   16.2618   45.8810  -10.1004 H   0  0  0  0  0  0
   15.2475   46.8748  -11.0956 H   0  0  0  0  0  0
   15.6012   44.7617  -12.2509 H   0  0  0  0  0  0
   16.3568   46.0303  -13.1669 H   0  0  0  0  0  0
   18.4909   45.2965  -12.3962 H   0  0  0  0  0  0
   19.7404   44.7673  -10.5200 H   0  0  0  0  0  0
   18.3087   41.6515   -7.9054 H   0  0  0  0  0  0
   15.9925   42.7805  -11.3415 H   0  0  0  0  0  0
   16.5631   40.6525   -7.1940 H   0  0  0  0  0  0
   17.2213   39.5045   -8.3769 H   0  0  0  0  0  0
   15.5102   39.4573   -7.9514 H   0  0  0  0  0  0
   19.1027   43.3948   -6.6793 H   0  0  0  0  0  0
   21.6743   44.3021   -3.2954 H   0  0  0  0  0  0
  1  2  1  0  0  0
  1 45  1  0  0  0
  1 46  1  0  0  0
  1 47  1  0  0  0
  2  3  1  0  0  0
  2  4  1  0  0  0
  2 48  1  0  0  0
  3 49  1  0  0  0
  3 50  1  0  0  0
  3 51  1  0  0  0
  4  9  1  0  0  0
  4  5  2  0  0  0
  5  6  1  0  0  0
  5 52  1  0  0  0
  6  7  2  0  0  0
  6 53  1  0  0  0
  7  8  1  0  0  0
  7 54  1  0  0  0
  8  9  2  0  0  0
  8 10  1  0  0  0
  9 55  1  0  0  0
 10 12  1  0  0  0
 10 11  1  0  0  0
 10 13  1  0  0  0
 11 12  1  0  0  0
 11 56  1  0  0  0
 11 57  1  0  0  0
 12 58  1  0  0  0
 12 59  1  0  0  0
 13 14  1  0  0  0
 13 60  1  0  0  0
 14 15  1  0  0  0
 14 61  1  0  0  0
 14 62  1  0  0  0
 15 43  1  0  0  0
 15 16  1  0  0  0
 15 42  1  0  0  0
 16 44  1  0  0  0
 16 41  1  0  0  0
 16 17  1  0  0  0
 17 18  1  0  0  0
 17 63  1  0  0  0
 17 64  1  0  0  0
 18 23  1  0  0  0
 18 19  2  0  0  0
 19 20  1  0  0  0
 19 65  1  0  0  0
 20 21  2  0  0  0
 20 66  1  0  0  0
 21 22  1  0  0  0
 21 67  1  0  0  0
 22 23  2  0  0  0
 22 24  1  0  0  0
 23 68  1  0  0  0
 24 25  1  0  0  0
 25 26  1  0  0  0
 25 69  1  0  0  0
 25 70  1  0  0  0
 26 27  1  0  0  0
 26 71  1  0  0  0
 26 72  1  0  0  0
 27 28  1  0  0  0
 27 73  1  0  0  0
 27 74  1  0  0  0
 28 29  1  0  0  0
 28 75  1  0  0  0
 28 76  1  0  0  0
 29 30  1  0  0  0
 29 77  1  0  0  0
 30 35  1  0  0  0
 30 31  2  0  0  0
 31 32  1  0  0  0
 31 78  1  0  0  0
 32 33  2  0  0  0
 32 39  1  0  0  0
 33 34  1  0  0  0
 33 79  1  0  0  0
 34 35  2  0  0  0
 34 36  1  0  0  0
 35 80  1  0  0  0
 36 37  2  0  0  0
 36 38  1  0  0  0
 38 81  1  0  0  0
 38 82  1  0  0  0
 38 83  1  0  0  0
 39 40  2  0  0  0
 39 41  1  0  0  0
 41 84  1  0  0  0
 42 85  1  0  0  0
M  END
> <s_m_source_file>
BACE_14.smi

> <i_m_source_file_index>
1

> <i_lp_mmshare_version>
42013

> <i_f3d_flags>
0

> <s_epik_input>
W0NIM11bQ0hdKFtDSDNdKWMxW2NIXVtjSF1bY0hdYyhbY0hdMSlDMihbQ0gyXVtDSDJdMilbTkhdW0NIMl1bQ0BASF0oW09IXSlbQ0BIXShbQ0gyXTMpW05IXUMoPU8pYyhbY0hdYyhbY0hdNClDKD1PKVtDSDNdKVtjSF1jNFtOSF1bQ0gyXVtDSDJdW0NIMl1bQ0gyXU9jKFtjSF01KVtjSF1bY0hdW2NIXWMzNQ==

> <s_epik_cmdline>
J2VwaWtfcHl0aG9uJywgJy1waCcsICc3LjAnLCAnLXRuJywgJzgnLCAnLW1hJywgJzIwMCcsICctaW1hZScsICc8aW5maWxlLm1hZT4nLCAnLW9tYWUnLCAnPG91dGZpbGUubWFlPic=

> <r_lp_tautomer_probability>
0.99995

> <r_epik_Ionization_Penalty>
  0.3230

> <r_epik_Ionization_Penalty_Charging>
  0.0000

> <r_epik_Ionization_Penalty_Neutral>
  0.3230

> <r_epik_State_Penalty>
  0.3176

> <r_epik_Charging_Adjusted_Penalty>
0.317604

> <i_epik_Tot_Q>
0

> <i_epik_Tot_abs_Q>
0

> <s_lp_Force_Field>
OPLS_2005

> <r_lp_Energy>
47.6892

> <b_lp_Chiralities_Consistent>
1

> <s_lp_Variant>
BACE_14.smi:1-1

> <chiral flag>
1

> <version>
0

> <r_i_glide_lipo>
-0.807694

> <r_i_glide_hbond>
-1.1636

> <r_i_glide_metal>
-0

> <r_i_glide_rewards>
0

> <r_i_glide_erotb>
0.231492

> <r_i_glide_esite>
-0.00379964

> <chiral flag>
1

> <s_i_glide_gridfile>
second_dock_grid_2

> <i_i_glide_lignum>
28

> <i_i_glide_rotatable_bonds>
8

> <r_i_docking_score>
-0.118153

> <r_i_glide_ligand_efficiency>
-0.00281318

> <r_i_glide_ligand_efficiency_sa>
-0.00977868

> <r_i_glide_ligand_efficiency_ln>
-0.0249391

> <r_glide_XP_GScore>
-0.435753

> <r_i_glide_gscore>
-0.435753

> <r_i_glide_evdw>
-38.6421

> <r_i_glide_ecoul>
-6.33329

> <r_i_glide_energy>
-44.9754

> <r_i_glide_einternal>
5.10977

> <r_i_glide_emodel>
-68.0067

> <r_glide_XP_HBond>
-1.34839

> <i_i_glide_confnum>
1

> <i_i_glide_posenum>
9

> <r_i_glide_eff_state_penalty>
0.3176

> <i_glide_XP_PoseRank>
7

$$$$
BACE_14.smi:1
                    3D
 Structure written by MMmdl.
 85 89  0  0  1  0            999 V2000
   29.3997   41.1863  -12.0679 C   0  0  0  0  0  0
   29.3238   42.7000  -11.8272 C   0  0  0  0  0  0
   29.1825   43.4732  -13.1447 C   0  0  0  0  0  0
   28.2170   43.0809  -10.8522 C   0  0  0  0  0  0
   28.5358   43.7276   -9.6395 C   0  0  0  0  0  0
   27.5118   44.1476   -8.7693 C   0  0  0  0  0  0
   26.1643   43.9313   -9.1137 C   0  0  0  0  0  0
   25.8276   43.2832  -10.3211 C   0  0  0  0  0  0
   26.8622   42.8439  -11.1747 C   0  0  0  0  0  0
   24.3896   43.0928  -10.7063 C   0  0  0  0  0  0
   23.4792   44.2917  -10.8786 C   0  0  0  0  0  0
   23.9378   43.5140  -12.0875 C   0  0  0  0  0  0
   23.8270   41.8525  -10.1779 N   0  0  0  0  0  0
   23.3014   41.9594   -8.8159 C   0  0  0  0  0  0
   22.6207   40.6433   -8.3903 C   0  0  2  0  0  0
   21.6702   40.7812   -7.1700 C   0  0  2  0  0  0
   20.9996   39.4399   -6.7643 C   0  0  0  0  0  0
   19.8810   38.9732   -7.6887 C   0  0  0  0  0  0
   20.1717   38.2849   -8.8846 C   0  0  0  0  0  0
   19.1238   37.8656   -9.7260 C   0  0  0  0  0  0
   17.7828   38.1131   -9.3754 C   0  0  0  0  0  0
   17.4782   38.8089   -8.1808 C   0  0  0  0  0  0
   18.5356   39.2203   -7.3472 C   0  0  0  0  0  0
   16.2029   39.1282   -7.7664 O   0  0  0  0  0  0
   15.1468   39.1804   -8.7211 C   0  0  0  0  0  0
   15.3660   40.3122   -9.7452 C   0  0  0  0  0  0
   15.5408   41.6973   -9.0967 C   0  0  0  0  0  0
   16.2230   42.6889  -10.0541 C   0  0  0  0  0  0
   16.3761   44.0206   -9.4834 N   0  0  0  0  0  0
   17.3660   44.3309   -8.5358 C   0  0  0  0  0  0
   18.3176   43.3957   -8.0622 C   0  0  0  0  0  0
   19.2769   43.7689   -7.0896 C   0  0  0  0  0  0
   19.2529   45.0844   -6.5710 C   0  0  0  0  0  0
   18.3277   46.0345   -7.0550 C   0  0  0  0  0  0
   17.3929   45.6491   -8.0391 C   0  0  0  0  0  0
   18.2720   47.3944   -6.4611 C   0  0  0  0  0  0
   18.4601   47.6249   -5.2678 O   0  0  0  0  0  0
   17.9339   48.5462   -7.4020 C   0  0  0  0  0  0
   20.2884   42.7822   -6.5696 C   0  0  0  0  0  0
   20.7944   42.9304   -5.4571 O   0  0  0  0  0  0
   20.6529   41.8077   -7.4209 N   0  0  0  0  0  0
   23.6581   39.7508   -8.0398 O   0  0  0  0  0  0
   22.0646   40.2369   -9.2354 H   0  0  0  0  0  0
   22.2931   41.0936   -6.3294 H   0  0  0  0  0  0
   30.1596   40.9502  -12.8110 H   0  0  0  0  0  0
   28.4601   40.7817  -12.4383 H   0  0  0  0  0  0
   29.6604   40.6570  -11.1516 H   0  0  0  0  0  0
   30.2761   42.9986  -11.3848 H   0  0  0  0  0  0
   29.9938   43.2363  -13.8340 H   0  0  0  0  0  0
   29.2012   44.5498  -12.9709 H   0  0  0  0  0  0
   28.2426   43.2350  -13.6393 H   0  0  0  0  0  0
   29.5668   43.9200   -9.3773 H   0  0  0  0  0  0
   27.7621   44.6448   -7.8443 H   0  0  0  0  0  0
   25.3841   44.2710   -8.4486 H   0  0  0  0  0  0
   26.6060   42.3516  -12.1012 H   0  0  0  0  0  0
   22.4263   44.1972  -10.6213 H   0  0  0  0  0  0
   23.9080   45.2820  -10.7304 H   0  0  0  0  0  0
   24.6596   43.9980  -12.7420 H   0  0  0  0  0  0
   23.1887   42.9092  -12.5934 H   0  0  0  0  0  0
   24.5625   41.1539  -10.1713 H   0  0  0  0  0  0
   22.5767   42.7716   -8.7809 H   0  0  0  0  0  0
   24.0881   42.2239   -8.1081 H   0  0  0  0  0  0
   21.7418   38.6452   -6.6760 H   0  0  0  0  0  0
   20.5814   39.5502   -5.7622 H   0  0  0  0  0  0
   21.1949   38.0712   -9.1584 H   0  0  0  0  0  0
   19.3457   37.3502  -10.6485 H   0  0  0  0  0  0
   17.0050   37.7667  -10.0378 H   0  0  0  0  0  0
   18.2996   39.7499   -6.4396 H   0  0  0  0  0  0
   15.0105   38.2166   -9.2140 H   0  0  0  0  0  0
   14.2197   39.3636   -8.1754 H   0  0  0  0  0  0
   16.2405   40.0862  -10.3556 H   0  0  0  0  0  0
   14.5237   40.3430  -10.4373 H   0  0  0  0  0  0
   14.5692   42.0779   -8.7773 H   0  0  0  0  0  0
   16.1369   41.6080   -8.1875 H   0  0  0  0  0  0
   17.1961   42.3107  -10.3732 H   0  0  0  0  0  0
   15.6230   42.7816  -10.9604 H   0  0  0  0  0  0
   15.6843   44.7159   -9.7167 H   0  0  0  0  0  0
   18.3026   42.3809   -8.4288 H   0  0  0  0  0  0
   19.9625   45.3686   -5.8049 H   0  0  0  0  0  0
   16.6588   46.3568   -8.3929 H   0  0  0  0  0  0
   16.8602   48.5936   -7.5765 H   0  0  0  0  0  0
   18.4377   48.4175   -8.3594 H   0  0  0  0  0  0
   18.2538   49.4935   -6.9697 H   0  0  0  0  0  0
   20.1833   41.7647   -8.3120 H   0  0  0  0  0  0
   24.0406   39.3841   -8.8304 H   0  0  0  0  0  0
  1  2  1  0  0  0
  1 45  1  0  0  0
  1 46  1  0  0  0
  1 47  1  0  0  0
  2  3  1  0  0  0
  2  4  1  0  0  0
  2 48  1  0  0  0
  3 49  1  0  0  0
  3 50  1  0  0  0
  3 51  1  0  0  0
  4  9  1  0  0  0
  4  5  2  0  0  0
  5  6  1  0  0  0
  5 52  1  0  0  0
  6  7  2  0  0  0
  6 53  1  0  0  0
  7  8  1  0  0  0
  7 54  1  0  0  0
  8  9  2  0  0  0
  8 10  1  0  0  0
  9 55  1  0  0  0
 10 12  1  0  0  0
 10 11  1  0  0  0
 10 13  1  0  0  0
 11 12  1  0  0  0
 11 56  1  0  0  0
 11 57  1  0  0  0
 12 58  1  0  0  0
 12 59  1  0  0  0
 13 14  1  0  0  0
 13 60  1  0  0  0
 14 15  1  0  0  0
 14 61  1  0  0  0
 14 62  1  0  0  0
 15 43  1  0  0  0
 15 16  1  0  0  0
 15 42  1  0  0  0
 16 44  1  0  0  0
 16 41  1  0  0  0
 16 17  1  0  0  0
 17 18  1  0  0  0
 17 63  1  0  0  0
 17 64  1  0  0  0
 18 23  1  0  0  0
 18 19  2  0  0  0
 19 20  1  0  0  0
 19 65  1  0  0  0
 20 21  2  0  0  0
 20 66  1  0  0  0
 21 22  1  0  0  0
 21 67  1  0  0  0
 22 23  2  0  0  0
 22 24  1  0  0  0
 23 68  1  0  0  0
 24 25  1  0  0  0
 25 26  1  0  0  0
 25 69  1  0  0  0
 25 70  1  0  0  0
 26 27  1  0  0  0
 26 71  1  0  0  0
 26 72  1  0  0  0
 27 28  1  0  0  0
 27 73  1  0  0  0
 27 74  1  0  0  0
 28 29  1  0  0  0
 28 75  1  0  0  0
 28 76  1  0  0  0
 29 30  1  0  0  0
 29 77  1  0  0  0
 30 35  1  0  0  0
 30 31  2  0  0  0
 31 32  1  0  0  0
 31 78  1  0  0  0
 32 33  2  0  0  0
 32 39  1  0  0  0
 33 34  1  0  0  0
 33 79  1  0  0  0
 34 35  2  0  0  0
 34 36  1  0  0  0
 35 80  1  0  0  0
 36 37  2  0  0  0
 36 38  1  0  0  0
 38 81  1  0  0  0
 38 82  1  0  0  0
 38 83  1  0  0  0
 39 40  2  0  0  0
 39 41  1  0  0  0
 41 84  1  0  0  0
 42 85  1  0  0  0
M  END
> <s_m_source_file>
BACE_14.smi

> <i_m_source_file_index>
1

> <i_lp_mmshare_version>
42013

> <i_f3d_flags>
0

> <s_epik_input>
W0NIM11bQ0hdKFtDSDNdKWMxW2NIXVtjSF1bY0hdYyhbY0hdMSlDMihbQ0gyXVtDSDJdMilbTkhdW0NIMl1bQ0BASF0oW09IXSlbQ0BIXShbQ0gyXTMpW05IXUMoPU8pYyhbY0hdYyhbY0hdNClDKD1PKVtDSDNdKVtjSF1jNFtOSF1bQ0gyXVtDSDJdW0NIMl1bQ0gyXU9jKFtjSF01KVtjSF1bY0hdW2NIXWMzNQ==

> <s_epik_cmdline>
J2VwaWtfcHl0aG9uJywgJy1waCcsICc3LjAnLCAnLXRuJywgJzgnLCAnLW1hJywgJzIwMCcsICctaW1hZScsICc8aW5maWxlLm1hZT4nLCAnLW9tYWUnLCAnPG91dGZpbGUubWFlPic=

> <r_lp_tautomer_probability>
0.99995

> <r_epik_Ionization_Penalty>
  0.3230

> <r_epik_Ionization_Penalty_Charging>
  0.0000

> <r_epik_Ionization_Penalty_Neutral>
  0.3230

> <r_epik_State_Penalty>
  0.3176

> <r_epik_Charging_Adjusted_Penalty>
0.317604

> <i_epik_Tot_Q>
0

> <i_epik_Tot_abs_Q>
0

> <s_lp_Force_Field>
OPLS_2005

> <r_lp_Energy>
47.6892

> <b_lp_Chiralities_Consistent>
1

> <s_lp_Variant>
BACE_14.smi:1-1

> <chiral flag>
1

> <version>
0

> <r_i_glide_lipo>
-0.807694

> <r_i_glide_hbond>
-1.1636

> <r_i_glide_metal>
-0

> <r_i_glide_rewards>
0

> <r_i_glide_erotb>
0.231492

> <r_i_glide_esite>
-0.00379964

> <chiral flag>
1

> <s_i_glide_gridfile>
second_dock_grid_2

> <i_i_glide_lignum>
28

> <i_i_glide_rotatable_bonds>
8

> <r_i_docking_score>
1.13763

> <r_i_glide_ligand_efficiency>
0.0270865

> <r_i_glide_ligand_efficiency_sa>
0.0941533

> <r_i_glide_ligand_efficiency_ln>
0.240125

> <r_glide_XP_GScore>
0.820032

> <r_i_glide_gscore>
0.820032

> <r_i_glide_evdw>
-46.8284

> <r_i_glide_ecoul>
-6.27977

> <r_i_glide_energy>
-53.1081

> <r_i_glide_einternal>
8.01241

> <r_i_glide_emodel>
-71.155

> <r_glide_XP_HBond>
-1.34839

> <i_i_glide_confnum>
1

> <i_i_glide_posenum>
12

> <r_i_glide_eff_state_penalty>
0.3176

> <i_glide_XP_PoseRank>
8

$$$$
