BACE_1.smi:1
                    3D
 Structure written by MMmdl.
 87 88  0  0  1  0            999 V2000
   31.0238   43.7950   -9.2645 C   0  0  0  0  0  0
   30.1581   42.6805   -9.8590 C   0  0  0  0  0  0
   29.7179   42.9544  -11.3000 C   0  0  0  0  0  0
   28.8168   41.8423  -11.8688 C   0  0  0  0  0  0
   27.4153   41.7894  -11.4290 N   0  0  0  0  0  0
   26.6769   42.6570  -10.7104 C   0  0  0  0  0  0
   27.1348   43.5266   -9.9743 O   0  0  0  0  0  0
   25.1617   42.5676  -10.9432 C   0  0  2  0  0  0
   24.6651   43.8576  -11.6245 C   0  0  0  0  0  0
   24.3189   42.1957   -9.6978 C   0  0  0  0  0  0
   23.2375   41.1310  -10.0148 C   0  0  1  0  0  0
   22.2843   40.8210   -8.8413 C   0  0  2  0  0  0
   21.4084   39.5777   -9.1498 C   0  0  0  0  0  0
   20.3364   39.2315   -8.0882 C   0  0  1  0  0  0
   19.2711   38.2715   -8.6597 C   0  0  0  0  0  0
   18.0751   37.9673   -7.7280 C   0  0  0  0  0  0
   17.3497   39.2011   -7.1519 C   0  0  0  0  0  0
   16.7963   40.1647   -8.2124 C   0  0  0  0  0  0
   16.1523   41.4230   -7.5983 C   0  0  0  0  0  0
   15.8058   42.4177   -8.6283 N   0  0  0  0  0  0
   16.4214   43.6210   -8.8039 C   0  0  0  0  0  0
   15.9663   44.4904   -9.5540 O   0  0  0  0  0  0
   17.6742   43.9431   -8.0310 C   0  0  0  0  0  0
   18.8253   43.1279   -8.1040 C   0  0  0  0  0  0
   19.9822   43.4377   -7.3505 C   0  0  0  0  0  0
   19.9786   44.5727   -6.5117 C   0  0  0  0  0  0
   18.8576   45.4247   -6.4761 C   0  0  0  0  0  0
   17.7196   45.1143   -7.2489 C   0  0  0  0  0  0
   18.8605   46.5131   -5.6428 O   0  0  0  0  0  0
   19.2192   47.7400   -6.2644 C   0  0  0  0  0  0
   17.9869   48.4635   -6.8166 C   0  0  0  0  0  0
   21.1781   42.5300   -7.3826 C   0  0  0  0  0  0
   21.8529   42.3243   -6.3750 O   0  0  0  0  0  0
   21.4285   41.9752   -8.5769 N   0  0  0  0  0  0
   14.5680   42.0992   -9.3589 C   0  0  0  0  0  0
   14.8336   41.7562  -10.8346 C   0  0  0  0  0  0
   20.9810   38.6950   -6.8048 C   0  0  0  0  0  0
   22.4596   41.5233  -11.1313 O   0  0  0  0  0  0
   25.0410   41.7496  -11.6399 H   0  0  0  0  0  0
   23.7456   40.2084  -10.2943 H   0  0  0  0  0  0
   22.8989   40.6015   -7.9665 H   0  0  0  0  0  0
   19.8058   40.1421   -7.8305 H   0  0  0  0  0  0
   31.3278   43.5470   -8.2500 H   0  0  0  0  0  0
   30.4778   44.7360   -9.2280 H   0  0  0  0  0  0
   31.9230   43.9527   -9.8552 H   0  0  0  0  0  0
   30.7213   41.7509   -9.8452 H   0  0  0  0  0  0
   29.2759   42.5298   -9.2401 H   0  0  0  0  0  0
   29.2342   43.9280  -11.3819 H   0  0  0  0  0  0
   30.6096   43.0231  -11.9204 H   0  0  0  0  0  0
   28.7804   41.9585  -12.9553 H   0  0  0  0  0  0
   29.2743   40.8666  -11.6905 H   0  0  0  0  0  0
   26.8788   41.0743  -11.8972 H   0  0  0  0  0  0
   25.2682   44.0939  -12.5031 H   0  0  0  0  0  0
   24.7227   44.7107  -10.9490 H   0  0  0  0  0  0
   23.6309   43.7672  -11.9540 H   0  0  0  0  0  0
   24.9587   41.8020   -8.9070 H   0  0  0  0  0  0
   23.8622   43.0944   -9.2781 H   0  0  0  0  0  0
   20.9038   39.7355  -10.1022 H   0  0  0  0  0  0
   22.0523   38.7104   -9.3079 H   0  0  0  0  0  0
   18.8826   38.6833   -9.5901 H   0  0  0  0  0  0
   19.7510   37.3393   -8.9445 H   0  0  0  0  0  0
   17.3505   37.3546   -8.2681 H   0  0  0  0  0  0
   18.4118   37.3501   -6.8945 H   0  0  0  0  0  0
   16.5283   38.8646   -6.5159 H   0  0  0  0  0  0
   18.0243   39.7417   -6.4869 H   0  0  0  0  0  0
   17.5912   40.4617   -8.8942 H   0  0  0  0  0  0
   16.0589   39.6394   -8.8216 H   0  0  0  0  0  0
   15.2589   41.1449   -7.0333 H   0  0  0  0  0  0
   16.8081   41.8501   -6.8421 H   0  0  0  0  0  0
   18.8098   42.2475   -8.7273 H   0  0  0  0  0  0
   20.8387   44.7976   -5.8988 H   0  0  0  0  0  0
   16.8582   45.7666   -7.2398 H   0  0  0  0  0  0
   19.6862   48.3646   -5.5020 H   0  0  0  0  0  0
   19.9669   47.5894   -7.0472 H   0  0  0  0  0  0
   18.2463   49.4678   -7.1520 H   0  0  0  0  0  0
   17.2178   48.5532   -6.0518 H   0  0  0  0  0  0
   17.5603   47.9371   -7.6691 H   0  0  0  0  0  0
   20.8818   42.2921   -9.3636 H   0  0  0  0  0  0
   14.0600   41.2476   -8.9014 H   0  0  0  0  0  0
   13.8635   42.9298   -9.2851 H   0  0  0  0  0  0
   13.9041   41.4759  -11.3302 H   0  0  0  0  0  0
   15.5239   40.9180  -10.9268 H   0  0  0  0  0  0
   15.2575   42.6036  -11.3712 H   0  0  0  0  0  0
   21.4971   37.7509   -6.9785 H   0  0  0  0  0  0
   20.2269   38.5399   -6.0400 H   0  0  0  0  0  0
   21.7029   39.3951   -6.3890 H   0  0  0  0  0  0
   22.9734   41.3487  -11.9136 H   0  0  0  0  0  0
  1  2  1  0  0  0
  1 43  1  0  0  0
  1 44  1  0  0  0
  1 45  1  0  0  0
  2  3  1  0  0  0
  2 46  1  0  0  0
  2 47  1  0  0  0
  3  4  1  0  0  0
  3 48  1  0  0  0
  3 49  1  0  0  0
  4  5  1  0  0  0
  4 50  1  0  0  0
  4 51  1  0  0  0
  5  6  1  0  0  0
  5 52  1  0  0  0
  6  7  2  0  0  0
  6  8  1  0  0  0
  8 39  1  0  0  0
  8  9  1  0  0  0
  8 10  1  0  0  0
  9 53  1  0  0  0
  9 54  1  0  0  0
  9 55  1  0  0  0
 10 11  1  0  0  0
 10 56  1  0  0  0
 10 57  1  0  0  0
 11 40  1  0  0  0
 11 12  1  0  0  0
 11 38  1  0  0  0
 12 41  1  0  0  0
 12 34  1  0  0  0
 12 13  1  0  0  0
 13 14  1  0  0  0
 13 58  1  0  0  0
 13 59  1  0  0  0
 14 42  1  0  0  0
 14 15  1  0  0  0
 14 37  1  0  0  0
 15 16  1  0  0  0
 15 60  1  0  0  0
 15 61  1  0  0  0
 16 17  1  0  0  0
 16 62  1  0  0  0
 16 63  1  0  0  0
 17 18  1  0  0  0
 17 64  1  0  0  0
 17 65  1  0  0  0
 18 19  1  0  0  0
 18 66  1  0  0  0
 18 67  1  0  0  0
 19 20  1  0  0  0
 19 68  1  0  0  0
 19 69  1  0  0  0
 20 21  1  0  0  0
 20 35  1  0  0  0
 21 22  2  0  0  0
 21 23  1  0  0  0
 23 28  1  0  0  0
 23 24  2  0  0  0
 24 25  1  0  0  0
 24 70  1  0  0  0
 25 26  2  0  0  0
 25 32  1  0  0  0
 26 27  1  0  0  0
 26 71  1  0  0  0
 27 28  2  0  0  0
 27 29  1  0  0  0
 28 72  1  0  0  0
 29 30  1  0  0  0
 30 31  1  0  0  0
 30 73  1  0  0  0
 30 74  1  0  0  0
 31 75  1  0  0  0
 31 76  1  0  0  0
 31 77  1  0  0  0
 32 33  2  0  0  0
 32 34  1  0  0  0
 34 78  1  0  0  0
 35 36  1  0  0  0
 35 79  1  0  0  0
 35 80  1  0  0  0
 36 81  1  0  0  0
 36 82  1  0  0  0
 36 83  1  0  0  0
 37 84  1  0  0  0
 37 85  1  0  0  0
 37 86  1  0  0  0
 38 87  1  0  0  0
M  END
> <s_m_source_file>
BACE_1.smi

> <i_m_source_file_index>
1

> <i_lp_mmshare_version>
42013

> <i_f3d_flags>
0

> <s_epik_input>
W0NIM11bQ0gyXVtDSDJdW0NIMl1bTkhdQyg9TylbQ0BIXShbQ0gzXSlbQ0gyXVtDQEhdKFtPSF0pW0NAQEhdKFtOSF1DKD1PKWMoW2NIXWMxMilbY0hdYyhbY0hdMilPW0NIMl1bQ0gzXSlbQ0gyXVtDQEhdKFtDSDNdKVtDSDJdW0NIMl1bQ0gyXVtDSDJdW0NIMl1OKEMxPU8pW0NIMl1bQ0gzXQ==

> <s_epik_cmdline>
J2VwaWtfcHl0aG9uJywgJy1waCcsICc3LjAnLCAnLXRuJywgJzgnLCAnLW1hJywgJzIwMCcsICctaW1hZScsICc8aW5maWxlLm1hZT4nLCAnLW9tYWUnLCAnPG91dGZpbGUubWFlPic=

> <r_lp_tautomer_probability>
1

> <r_epik_Ionization_Penalty>
  0.0000

> <r_epik_Ionization_Penalty_Charging>
  0.0000

> <r_epik_Ionization_Penalty_Neutral>
  0.0000

> <r_epik_State_Penalty>
 -0.0000

> <r_epik_Charging_Adjusted_Penalty>
0

> <i_epik_Tot_Q>
0

> <i_epik_Tot_abs_Q>
0

> <s_lp_Force_Field>
OPLS_2005

> <r_lp_Energy>
40.9193

> <b_lp_Chiralities_Consistent>
1

> <s_lp_Variant>
BACE_1.smi:1-1

> <chiral flag>
1

> <version>
0

> <r_i_glide_lipo>
-0.830122

> <r_i_glide_hbond>
-0.11581

> <r_i_glide_metal>
-0

> <r_i_glide_rewards>
-0.151207

> <r_i_glide_erotb>
0.583496

> <r_i_glide_esite>
-0.0337226

> <chiral flag>
1

> <s_i_glide_gridfile>
second_dock_grid_2

> <i_i_glide_lignum>
1

> <i_i_glide_rotatable_bonds>
12

> <r_i_docking_score>
-3.9409

> <r_i_glide_ligand_efficiency>
-0.103708

> <r_i_glide_ligand_efficiency_sa>
-0.348663

> <r_i_glide_ligand_efficiency_ln>
-0.849773

> <r_glide_XP_GScore>
-3.9409

> <r_i_glide_gscore>
-3.9409

> <r_i_glide_evdw>
-41.7204

> <r_i_glide_ecoul>
-7.41631

> <r_i_glide_energy>
-49.1367

> <r_i_glide_einternal>
9.75737

> <r_i_glide_emodel>
-69.3693

> <r_glide_XP_HBond>
-0.7

> <i_i_glide_confnum>
1

> <i_i_glide_posenum>
7

> <r_i_glide_eff_state_penalty>
-0

> <i_glide_XP_PoseRank>
1

$$$$
BACE_1.smi:1
                    3D
 Structure written by MMmdl.
 87 88  0  0  1  0            999 V2000
   15.4739   39.8776   -6.6073 C   0  0  0  0  0  0
   14.4741   38.9691   -7.3413 C   0  0  0  0  0  0
   14.7262   38.8649   -8.8559 C   0  0  0  0  0  0
   14.3380   40.1445   -9.6236 C   0  0  0  0  0  0
   14.9609   41.3465   -9.0833 N   0  0  0  0  0  0
   15.1498   42.4958   -9.7491 C   0  0  0  0  0  0
   14.6714   42.7124  -10.8658 O   0  0  0  0  0  0
   16.0090   43.5617   -9.0470 C   0  0  2  0  0  0
   15.0709   44.6144   -8.4372 C   0  0  0  0  0  0
   17.0424   44.2221  -10.0057 C   0  0  0  0  0  0
   17.6113   43.3598  -11.1660 C   0  0  1  0  0  0
   18.4897   42.1498  -10.7308 C   0  0  2  0  0  0
   17.7547   41.1939   -9.7524 C   0  0  0  0  0  0
   18.5927   39.9810   -9.2590 C   0  0  1  0  0  0
   18.0499   39.4309   -7.9206 C   0  0  0  0  0  0
   18.9349   38.3696   -7.2269 C   0  0  0  0  0  0
   20.3794   38.7905   -6.9036 C   0  0  0  0  0  0
   20.4887   40.0027   -5.9703 C   0  0  0  0  0  0
   21.9548   40.3332   -5.6369 C   0  0  0  0  0  0
   22.1035   41.6515   -5.0054 N   0  0  0  0  0  0
   22.5033   42.7841   -5.6428 C   0  0  0  0  0  0
   22.6744   43.8540   -5.0577 O   0  0  0  0  0  0
   22.7941   42.7402   -7.1173 C   0  0  0  0  0  0
   21.7649   42.5416   -8.0607 C   0  0  0  0  0  0
   22.0444   42.5776   -9.4508 C   0  0  0  0  0  0
   23.3726   42.7980   -9.8825 C   0  0  0  0  0  0
   24.4087   43.0243   -8.9470 C   0  0  0  0  0  0
   24.1036   42.9944   -7.5716 C   0  0  0  0  0  0
   25.7214   43.2821   -9.2848 O   0  0  0  0  0  0
   26.0809   43.3482  -10.6595 C   0  0  0  0  0  0
   26.4842   41.9755  -11.2123 C   0  0  0  0  0  0
   20.9633   42.3262  -10.4669 C   0  0  0  0  0  0
   21.2326   41.8854  -11.5855 O   0  0  0  0  0  0
   19.7130   42.6150  -10.0701 N   0  0  0  0  0  0
   21.8545   41.6577   -3.5542 C   0  0  0  0  0  0
   20.6207   40.8306   -3.1542 C   0  0  0  0  0  0
   18.6851   38.8923  -10.3415 C   0  0  0  0  0  0
   16.5687   42.9469  -12.0303 O   0  0  0  0  0  0
   16.5429   43.0924   -8.2202 H   0  0  0  0  0  0
   18.2388   44.0151  -11.7720 H   0  0  0  0  0  0
   18.7537   41.5824  -11.6233 H   0  0  0  0  0  0
   19.6038   40.3182   -9.0520 H   0  0  0  0  0  0
   15.2979   39.8475   -5.5317 H   0  0  0  0  0  0
   15.3778   40.9209   -6.9126 H   0  0  0  0  0  0
   16.5036   39.5646   -6.7799 H   0  0  0  0  0  0
   14.5331   37.9699   -6.9064 H   0  0  0  0  0  0
   13.4579   39.3197   -7.1542 H   0  0  0  0  0  0
   15.7750   38.6156   -9.0193 H   0  0  0  0  0  0
   14.1486   38.0252   -9.2455 H   0  0  0  0  0  0
   14.6413   40.0520  -10.6674 H   0  0  0  0  0  0
   13.2577   40.2880   -9.6262 H   0  0  0  0  0  0
   15.3768   41.2679   -8.1655 H   0  0  0  0  0  0
   14.3034   44.1557   -7.8115 H   0  0  0  0  0  0
   14.5634   45.1737   -9.2223 H   0  0  0  0  0  0
   15.6145   45.3201   -7.8128 H   0  0  0  0  0  0
   16.6023   45.1248  -10.4346 H   0  0  0  0  0  0
   17.8838   44.5924   -9.4198 H   0  0  0  0  0  0
   17.4403   41.7805   -8.8884 H   0  0  0  0  0  0
   16.8306   40.8278  -10.2014 H   0  0  0  0  0  0
   17.8986   40.2563   -7.2238 H   0  0  0  0  0  0
   17.0569   39.0104   -8.0846 H   0  0  0  0  0  0
   18.4505   38.0689   -6.2975 H   0  0  0  0  0  0
   18.9697   37.4737   -7.8448 H   0  0  0  0  0  0
   20.8852   37.9454   -6.4389 H   0  0  0  0  0  0
   20.9289   38.9910   -7.8242 H   0  0  0  0  0  0
   19.9974   40.8613   -6.4223 H   0  0  0  0  0  0
   19.9410   39.8032   -5.0488 H   0  0  0  0  0  0
   22.3366   39.5744   -4.9543 H   0  0  0  0  0  0
   22.5784   40.2457   -6.5257 H   0  0  0  0  0  0
   20.7596   42.3794   -7.7087 H   0  0  0  0  0  0
   23.5792   42.7811  -10.9415 H   0  0  0  0  0  0
   24.8936   43.1715   -6.8585 H   0  0  0  0  0  0
   25.2917   43.8022  -11.2576 H   0  0  0  0  0  0
   26.9335   44.0216  -10.7314 H   0  0  0  0  0  0
   26.8804   42.0662  -12.2239 H   0  0  0  0  0  0
   25.6303   41.3042  -11.2627 H   0  0  0  0  0  0
   27.2565   41.5069  -10.6028 H   0  0  0  0  0  0
   19.6008   43.0123   -9.1499 H   0  0  0  0  0  0
   22.7370   41.2767   -3.0372 H   0  0  0  0  0  0
   21.7191   42.6778   -3.1886 H   0  0  0  0  0  0
   20.5193   40.8084   -2.0703 H   0  0  0  0  0  0
   20.6937   39.7969   -3.4896 H   0  0  0  0  0  0
   19.7041   41.2569   -3.5640 H   0  0  0  0  0  0
   17.7067   38.4522  -10.5354 H   0  0  0  0  0  0
   19.3589   38.0860  -10.0514 H   0  0  0  0  0  0
   19.0609   39.2917  -11.2845 H   0  0  0  0  0  0
   16.0241   42.3421  -11.5478 H   0  0  0  0  0  0
  1  2  1  0  0  0
  1 43  1  0  0  0
  1 44  1  0  0  0
  1 45  1  0  0  0
  2  3  1  0  0  0
  2 46  1  0  0  0
  2 47  1  0  0  0
  3  4  1  0  0  0
  3 48  1  0  0  0
  3 49  1  0  0  0
  4  5  1  0  0  0
  4 50  1  0  0  0
  4 51  1  0  0  0
  5  6  1  0  0  0
  5 52  1  0  0  0
  6  7  2  0  0  0
  6  8  1  0  0  0
  8 39  1  0  0  0
  8  9  1  0  0  0
  8 10  1  0  0  0
  9 53  1  0  0  0
  9 54  1  0  0  0
  9 55  1  0  0  0
 10 11  1  0  0  0
 10 56  1  0  0  0
 10 57  1  0  0  0
 11 40  1  0  0  0
 11 12  1  0  0  0
 11 38  1  0  0  0
 12 41  1  0  0  0
 12 34  1  0  0  0
 12 13  1  0  0  0
 13 14  1  0  0  0
 13 58  1  0  0  0
 13 59  1  0  0  0
 14 42  1  0  0  0
 14 15  1  0  0  0
 14 37  1  0  0  0
 15 16  1  0  0  0
 15 60  1  0  0  0
 15 61  1  0  0  0
 16 17  1  0  0  0
 16 62  1  0  0  0
 16 63  1  0  0  0
 17 18  1  0  0  0
 17 64  1  0  0  0
 17 65  1  0  0  0
 18 19  1  0  0  0
 18 66  1  0  0  0
 18 67  1  0  0  0
 19 20  1  0  0  0
 19 68  1  0  0  0
 19 69  1  0  0  0
 20 21  1  0  0  0
 20 35  1  0  0  0
 21 22  2  0  0  0
 21 23  1  0  0  0
 23 28  1  0  0  0
 23 24  2  0  0  0
 24 25  1  0  0  0
 24 70  1  0  0  0
 25 26  2  0  0  0
 25 32  1  0  0  0
 26 27  1  0  0  0
 26 71  1  0  0  0
 27 28  2  0  0  0
 27 29  1  0  0  0
 28 72  1  0  0  0
 29 30  1  0  0  0
 30 31  1  0  0  0
 30 73  1  0  0  0
 30 74  1  0  0  0
 31 75  1  0  0  0
 31 76  1  0  0  0
 31 77  1  0  0  0
 32 33  2  0  0  0
 32 34  1  0  0  0
 34 78  1  0  0  0
 35 36  1  0  0  0
 35 79  1  0  0  0
 35 80  1  0  0  0
 36 81  1  0  0  0
 36 82  1  0  0  0
 36 83  1  0  0  0
 37 84  1  0  0  0
 37 85  1  0  0  0
 37 86  1  0  0  0
 38 87  1  0  0  0
M  END
> <s_m_source_file>
BACE_1.smi

> <i_m_source_file_index>
1

> <i_lp_mmshare_version>
42013

> <i_f3d_flags>
0

> <s_epik_input>
W0NIM11bQ0gyXVtDSDJdW0NIMl1bTkhdQyg9TylbQ0BIXShbQ0gzXSlbQ0gyXVtDQEhdKFtPSF0pW0NAQEhdKFtOSF1DKD1PKWMoW2NIXWMxMilbY0hdYyhbY0hdMilPW0NIMl1bQ0gzXSlbQ0gyXVtDQEhdKFtDSDNdKVtDSDJdW0NIMl1bQ0gyXVtDSDJdW0NIMl1OKEMxPU8pW0NIMl1bQ0gzXQ==

> <s_epik_cmdline>
J2VwaWtfcHl0aG9uJywgJy1waCcsICc3LjAnLCAnLXRuJywgJzgnLCAnLW1hJywgJzIwMCcsICctaW1hZScsICc8aW5maWxlLm1hZT4nLCAnLW9tYWUnLCAnPG91dGZpbGUubWFlPic=

> <r_lp_tautomer_probability>
1

> <r_epik_Ionization_Penalty>
  0.0000

> <r_epik_Ionization_Penalty_Charging>
  0.0000

> <r_epik_Ionization_Penalty_Neutral>
  0.0000

> <r_epik_State_Penalty>
 -0.0000

> <r_epik_Charging_Adjusted_Penalty>
0

> <i_epik_Tot_Q>
0

> <i_epik_Tot_abs_Q>
0

> <s_lp_Force_Field>
OPLS_2005

> <r_lp_Energy>
40.9193

> <b_lp_Chiralities_Consistent>
1

> <s_lp_Variant>
BACE_1.smi:1-1

> <chiral flag>
1

> <version>
0

> <r_i_glide_lipo>
-0.830122

> <r_i_glide_hbond>
-0.11581

> <r_i_glide_metal>
-0

> <r_i_glide_rewards>
-0.151207

> <r_i_glide_erotb>
0.583496

> <r_i_glide_esite>
-0.0337226

> <chiral flag>
1

> <s_i_glide_gridfile>
second_dock_grid_2

> <i_i_glide_lignum>
1

> <i_i_glide_rotatable_bonds>
12

> <r_i_docking_score>
-3.26911

> <r_i_glide_ligand_efficiency>
-0.0860292

> <r_i_glide_ligand_efficiency_sa>
-0.289228

> <r_i_glide_ligand_efficiency_ln>
-0.704916

> <r_glide_XP_GScore>
-3.26911

> <r_i_glide_gscore>
-3.26911

> <r_i_glide_evdw>
-42.0939

> <r_i_glide_ecoul>
-10.0336

> <r_i_glide_energy>
-52.1276

> <r_i_glide_einternal>
0

> <r_i_glide_emodel>
-75.0559

> <r_glide_XP_HBond>
-0.7

> <i_i_glide_confnum>
1

> <i_i_glide_posenum>
16

> <r_i_glide_eff_state_penalty>
-0

> <i_glide_XP_PoseRank>
2

$$$$
BACE_1.smi:1
                    3D
 Structure written by MMmdl.
 87 88  0  0  1  0            999 V2000
   31.7685   42.0711  -12.8563 C   0  0  0  0  0  0
   30.8502   43.2474  -12.5083 C   0  0  0  0  0  0
   29.3728   42.8527  -12.3733 C   0  0  0  0  0  0
   29.0426   42.0017  -11.1323 C   0  0  0  0  0  0
   27.6081   41.7516  -11.0769 N   0  0  0  0  0  0
   26.7011   42.6022  -10.5721 C   0  0  0  0  0  0
   27.0004   43.5589   -9.8582 O   0  0  0  0  0  0
   25.2455   42.3884  -11.0053 C   0  0  2  0  0  0
   24.7954   43.5619  -11.8974 C   0  0  0  0  0  0
   24.2793   42.1458   -9.8132 C   0  0  0  0  0  0
   23.2004   41.0749  -10.1016 C   0  0  1  0  0  0
   22.2368   40.7883   -8.9230 C   0  0  2  0  0  0
   21.3279   39.5584   -9.1994 C   0  0  0  0  0  0
   20.2490   39.2463   -8.1298 C   0  0  1  0  0  0
   19.1579   38.3126   -8.7103 C   0  0  0  0  0  0
   17.9280   38.0460   -7.8119 C   0  0  0  0  0  0
   17.2336   39.2851   -7.2131 C   0  0  0  0  0  0
   16.7293   40.3170   -8.2437 C   0  0  0  0  0  0
   16.1309   41.5847   -7.5912 C   0  0  0  0  0  0
   15.7761   42.6130   -8.5860 N   0  0  0  0  0  0
   16.4819   43.7481   -8.8508 C   0  0  0  0  0  0
   16.1036   44.5849   -9.6741 O   0  0  0  0  0  0
   17.7411   44.0508   -8.0884 C   0  0  0  0  0  0
   18.8595   43.1962   -8.1403 C   0  0  0  0  0  0
   20.0563   43.5269   -7.4666 C   0  0  0  0  0  0
   20.1298   44.7307   -6.7343 C   0  0  0  0  0  0
   19.0316   45.6255   -6.7126 C   0  0  0  0  0  0
   17.8471   45.2665   -7.3851 C   0  0  0  0  0  0
   19.0371   46.8458   -6.0727 O   0  0  0  0  0  0
   20.2856   47.4897   -5.8398 C   0  0  0  0  0  0
   20.9511   47.9407   -7.1478 C   0  0  0  0  0  0
   21.2215   42.5828   -7.4961 C   0  0  0  0  0  0
   21.9293   42.4096   -6.5060 O   0  0  0  0  0  0
   21.4080   41.9650   -8.6708 N   0  0  0  0  0  0
   14.4748   42.3894   -9.2391 C   0  0  0  0  0  0
   13.3865   43.3649   -8.7496 C   0  0  0  0  0  0
   20.8782   38.6996   -6.8365 C   0  0  0  0  0  0
   22.4403   41.4356  -11.2400 O   0  0  0  0  0  0
   25.2603   41.4971  -11.6268 H   0  0  0  0  0  0
   23.7145   40.1505  -10.3490 H   0  0  0  0  0  0
   22.8470   40.5677   -8.0460 H   0  0  0  0  0  0
   19.7422   40.1737   -7.8738 H   0  0  0  0  0  0
   32.7878   42.4166  -13.0341 H   0  0  0  0  0  0
   31.4307   41.5451  -13.7554 H   0  0  0  0  0  0
   31.8038   41.3502  -12.0404 H   0  0  0  0  0  0
   31.1936   43.7370  -11.5930 H   0  0  0  0  0  0
   30.9365   43.9936  -13.3012 H   0  0  0  0  0  0
   28.7829   43.7692  -12.3378 H   0  0  0  0  0  0
   29.0537   42.3259  -13.2752 H   0  0  0  0  0  0
   29.5516   41.0380  -11.1832 H   0  0  0  0  0  0
   29.3831   42.4942  -10.2187 H   0  0  0  0  0  0
   27.2757   40.9431  -11.5821 H   0  0  0  0  0  0
   25.4789   43.7070  -12.7346 H   0  0  0  0  0  0
   24.7582   44.4933  -11.3354 H   0  0  0  0  0  0
   23.8082   43.3948  -12.3219 H   0  0  0  0  0  0
   24.8450   41.8199   -8.9392 H   0  0  0  0  0  0
   23.8129   43.0866   -9.5190 H   0  0  0  0  0  0
   20.8205   39.7253  -10.1502 H   0  0  0  0  0  0
   21.9475   38.6742   -9.3576 H   0  0  0  0  0  0
   18.7970   38.7303   -9.6506 H   0  0  0  0  0  0
   19.6122   37.3594   -8.9777 H   0  0  0  0  0  0
   17.1965   37.4733   -8.3840 H   0  0  0  0  0  0
   18.2198   37.3907   -6.9915 H   0  0  0  0  0  0
   16.3904   38.9538   -6.6037 H   0  0  0  0  0  0
   17.9199   39.7497   -6.5083 H   0  0  0  0  0  0
   17.5367   40.5936   -8.9143 H   0  0  0  0  0  0
   15.9783   39.8419   -8.8756 H   0  0  0  0  0  0
   15.2423   41.3105   -7.0194 H   0  0  0  0  0  0
   16.8107   41.9859   -6.8402 H   0  0  0  0  0  0
   18.7994   42.2818   -8.7070 H   0  0  0  0  0  0
   21.0466   44.9624   -6.2135 H   0  0  0  0  0  0
   17.0072   45.9454   -7.3691 H   0  0  0  0  0  0
   20.0760   48.3743   -5.2400 H   0  0  0  0  0  0
   20.9531   46.8720   -5.2401 H   0  0  0  0  0  0
   21.8692   48.4902   -6.9425 H   0  0  0  0  0  0
   20.2921   48.5959   -7.7181 H   0  0  0  0  0  0
   21.2141   47.0967   -7.7847 H   0  0  0  0  0  0
   20.8391   42.2586   -9.4515 H   0  0  0  0  0  0
   14.5926   42.4742  -10.3206 H   0  0  0  0  0  0
   14.1325   41.3661   -9.0719 H   0  0  0  0  0  0
   12.4217   43.1116   -9.1967 H   0  0  0  0  0  0
   13.6077   44.3943   -9.0254 H   0  0  0  0  0  0
   13.2769   43.3344   -7.6634 H   0  0  0  0  0  0
   21.3888   37.7503   -6.9998 H   0  0  0  0  0  0
   20.1212   38.5424   -6.0679 H   0  0  0  0  0  0
   21.6036   39.4001   -6.4201 H   0  0  0  0  0  0
   22.9788   41.2656  -12.0063 H   0  0  0  0  0  0
  1  2  1  0  0  0
  1 43  1  0  0  0
  1 44  1  0  0  0
  1 45  1  0  0  0
  2  3  1  0  0  0
  2 46  1  0  0  0
  2 47  1  0  0  0
  3  4  1  0  0  0
  3 48  1  0  0  0
  3 49  1  0  0  0
  4  5  1  0  0  0
  4 50  1  0  0  0
  4 51  1  0  0  0
  5  6  1  0  0  0
  5 52  1  0  0  0
  6  7  2  0  0  0
  6  8  1  0  0  0
  8 39  1  0  0  0
  8  9  1  0  0  0
  8 10  1  0  0  0
  9 53  1  0  0  0
  9 54  1  0  0  0
  9 55  1  0  0  0
 10 11  1  0  0  0
 10 56  1  0  0  0
 10 57  1  0  0  0
 11 40  1  0  0  0
 11 12  1  0  0  0
 11 38  1  0  0  0
 12 41  1  0  0  0
 12 34  1  0  0  0
 12 13  1  0  0  0
 13 14  1  0  0  0
 13 58  1  0  0  0
 13 59  1  0  0  0
 14 42  1  0  0  0
 14 15  1  0  0  0
 14 37  1  0  0  0
 15 16  1  0  0  0
 15 60  1  0  0  0
 15 61  1  0  0  0
 16 17  1  0  0  0
 16 62  1  0  0  0
 16 63  1  0  0  0
 17 18  1  0  0  0
 17 64  1  0  0  0
 17 65  1  0  0  0
 18 19  1  0  0  0
 18 66  1  0  0  0
 18 67  1  0  0  0
 19 20  1  0  0  0
 19 68  1  0  0  0
 19 69  1  0  0  0
 20 21  1  0  0  0
 20 35  1  0  0  0
 21 22  2  0  0  0
 21 23  1  0  0  0
 23 28  1  0  0  0
 23 24  2  0  0  0
 24 25  1  0  0  0
 24 70  1  0  0  0
 25 26  2  0  0  0
 25 32  1  0  0  0
 26 27  1  0  0  0
 26 71  1  0  0  0
 27 28  2  0  0  0
 27 29  1  0  0  0
 28 72  1  0  0  0
 29 30  1  0  0  0
 30 31  1  0  0  0
 30 73  1  0  0  0
 30 74  1  0  0  0
 31 75  1  0  0  0
 31 76  1  0  0  0
 31 77  1  0  0  0
 32 33  2  0  0  0
 32 34  1  0  0  0
 34 78  1  0  0  0
 35 36  1  0  0  0
 35 79  1  0  0  0
 35 80  1  0  0  0
 36 81  1  0  0  0
 36 82  1  0  0  0
 36 83  1  0  0  0
 37 84  1  0  0  0
 37 85  1  0  0  0
 37 86  1  0  0  0
 38 87  1  0  0  0
M  END
> <s_m_source_file>
BACE_1.smi

> <i_m_source_file_index>
1

> <i_lp_mmshare_version>
42013

> <i_f3d_flags>
0

> <s_epik_input>
W0NIM11bQ0gyXVtDSDJdW0NIMl1bTkhdQyg9TylbQ0BIXShbQ0gzXSlbQ0gyXVtDQEhdKFtPSF0pW0NAQEhdKFtOSF1DKD1PKWMoW2NIXWMxMilbY0hdYyhbY0hdMilPW0NIMl1bQ0gzXSlbQ0gyXVtDQEhdKFtDSDNdKVtDSDJdW0NIMl1bQ0gyXVtDSDJdW0NIMl1OKEMxPU8pW0NIMl1bQ0gzXQ==

> <s_epik_cmdline>
J2VwaWtfcHl0aG9uJywgJy1waCcsICc3LjAnLCAnLXRuJywgJzgnLCAnLW1hJywgJzIwMCcsICctaW1hZScsICc8aW5maWxlLm1hZT4nLCAnLW9tYWUnLCAnPG91dGZpbGUubWFlPic=

> <r_lp_tautomer_probability>
1

> <r_epik_Ionization_Penalty>
  0.0000

> <r_epik_Ionization_Penalty_Charging>
  0.0000

> <r_epik_Ionization_Penalty_Neutral>
  0.0000

> <r_epik_State_Penalty>
 -0.0000

> <r_epik_Charging_Adjusted_Penalty>
0

> <i_epik_Tot_Q>
0

> <i_epik_Tot_abs_Q>
0

> <s_lp_Force_Field>
OPLS_2005

> <r_lp_Energy>
40.9193

> <b_lp_Chiralities_Consistent>
1

> <s_lp_Variant>
BACE_1.smi:1-1

> <chiral flag>
1

> <version>
0

> <r_i_glide_lipo>
-0.830122

> <r_i_glide_hbond>
-0.11581

> <r_i_glide_metal>
-0

> <r_i_glide_rewards>
-0.151207

> <r_i_glide_erotb>
0.583496

> <r_i_glide_esite>
-0.0337226

> <chiral flag>
1

> <s_i_glide_gridfile>
second_dock_grid_2

> <i_i_glide_lignum>
1

> <i_i_glide_rotatable_bonds>
12

> <r_i_docking_score>
-3.12911

> <r_i_glide_ligand_efficiency>
-0.0823449

> <r_i_glide_ligand_efficiency_sa>
-0.276842

> <r_i_glide_ligand_efficiency_ln>
-0.674728

> <r_glide_XP_GScore>
-3.12911

> <r_i_glide_gscore>
-3.12911

> <r_i_glide_evdw>
-39.3104

> <r_i_glide_ecoul>
-7.53898

> <r_i_glide_energy>
-46.8494

> <r_i_glide_einternal>
0

> <r_i_glide_emodel>
-72.6159

> <r_glide_XP_HBond>
-0.7

> <i_i_glide_confnum>
1

> <i_i_glide_posenum>
5

> <r_i_glide_eff_state_penalty>
-0

> <i_glide_XP_PoseRank>
3

$$$$
BACE_1.smi:1
                    3D
 Structure written by MMmdl.
 87 88  0  0  1  0            999 V2000
   24.4457   46.5562  -15.9768 C   0  0  0  0  0  0
   23.9911   46.4967  -14.5182 C   0  0  0  0  0  0
   24.4600   45.2348  -13.7785 C   0  0  0  0  0  0
   23.9900   45.2567  -12.3147 C   0  0  0  0  0  0
   24.3291   44.0444  -11.5786 N   0  0  0  0  0  0
   25.5426   43.7206  -11.1130 C   0  0  0  0  0  0
   26.5657   44.3105  -11.4602 O   0  0  0  0  0  0
   25.6300   42.6163  -10.0426 C   0  0  2  0  0  0
   26.3548   41.3563  -10.5465 C   0  0  0  0  0  0
   24.3203   42.3369   -9.2515 C   0  0  0  0  0  0
   23.3201   41.3009   -9.8279 C   0  0  1  0  0  0
   22.2052   40.9662   -8.8118 C   0  0  2  0  0  0
   21.4233   39.6784   -9.1619 C   0  0  0  0  0  0
   20.3584   39.2728   -8.1116 C   0  0  1  0  0  0
   19.3377   38.2757   -8.6971 C   0  0  0  0  0  0
   18.1271   37.9514   -7.7890 C   0  0  0  0  0  0
   17.3511   39.1639   -7.2331 C   0  0  0  0  0  0
   16.7868   40.1011   -8.3099 C   0  0  0  0  0  0
   16.0964   41.3449   -7.7145 C   0  0  0  0  0  0
   15.6813   42.2825   -8.7720 N   0  0  0  0  0  0
   16.1932   43.5288   -8.9759 C   0  0  0  0  0  0
   15.6561   44.3463   -9.7265 O   0  0  0  0  0  0
   17.4399   43.9608   -8.2473 C   0  0  0  0  0  0
   18.6299   43.2017   -8.2846 C   0  0  0  0  0  0
   19.7858   43.6349   -7.5930 C   0  0  0  0  0  0
   19.7489   44.8459   -6.8698 C   0  0  0  0  0  0
   18.5796   45.6428   -6.8577 C   0  0  0  0  0  0
   17.4435   45.1948   -7.5628 C   0  0  0  0  0  0
   18.4601   46.8243   -6.1592 O   0  0  0  0  0  0
   19.6105   47.6506   -6.0057 C   0  0  0  0  0  0
   19.9230   48.3768   -7.3211 C   0  0  0  0  0  0
   21.0159   42.7727   -7.5529 C   0  0  0  0  0  0
   21.7245   42.7254   -6.5475 O   0  0  0  0  0  0
   21.2722   42.0858   -8.6773 N   0  0  0  0  0  0
   14.4748   41.8462   -9.4966 C   0  0  0  0  0  0
   14.7541   41.5314  -10.9753 C   0  0  0  0  0  0
   21.0053   38.7391   -6.8203 C   0  0  0  0  0  0
   22.7370   41.7466  -11.0428 O   0  0  0  0  0  0
   26.3036   43.0585   -9.3074 H   0  0  0  0  0  0
   23.8550   40.3759  -10.0393 H   0  0  0  0  0  0
   22.7001   40.7827   -7.8601 H   0  0  0  0  0  0
   19.7981   40.1658   -7.8458 H   0  0  0  0  0  0
   24.0923   47.4673  -16.4572 H   0  0  0  0  0  0
   24.0562   45.7176  -16.5500 H   0  0  0  0  0  0
   25.5320   46.5517  -16.0401 H   0  0  0  0  0  0
   24.3557   47.3774  -13.9903 H   0  0  0  0  0  0
   22.9065   46.5518  -14.4819 H   0  0  0  0  0  0
   24.0601   44.3473  -14.2714 H   0  0  0  0  0  0
   25.5498   45.1633  -13.8270 H   0  0  0  0  0  0
   24.3987   46.1262  -11.7948 H   0  0  0  0  0  0
   22.9057   45.3594  -12.2806 H   0  0  0  0  0  0
   23.5596   43.4512  -11.2777 H   0  0  0  0  0  0
   27.2869   41.6013  -11.0599 H   0  0  0  0  0  0
   25.7398   40.7848  -11.2403 H   0  0  0  0  0  0
   26.6081   40.6957   -9.7158 H   0  0  0  0  0  0
   24.6256   41.9870   -8.2638 H   0  0  0  0  0  0
   23.7987   43.2731   -9.0480 H   0  0  0  0  0  0
   20.9358   39.8255  -10.1265 H   0  0  0  0  0  0
   22.1197   38.8492   -9.3074 H   0  0  0  0  0  0
   18.9602   38.6646   -9.6438 H   0  0  0  0  0  0
   19.8467   37.3469   -8.9549 H   0  0  0  0  0  0
   17.4359   37.3100   -8.3380 H   0  0  0  0  0  0
   18.4575   37.3508   -6.9437 H   0  0  0  0  0  0
   16.5283   38.8016   -6.6135 H   0  0  0  0  0  0
   17.9939   39.7249   -6.5567 H   0  0  0  0  0  0
   17.5831   40.4077   -8.9832 H   0  0  0  0  0  0
   16.0770   39.5428   -8.9207 H   0  0  0  0  0  0
   15.2251   41.0398   -7.1323 H   0  0  0  0  0  0
   16.7413   41.8207   -6.9772 H   0  0  0  0  0  0
   18.6483   42.2728   -8.8308 H   0  0  0  0  0  0
   20.6280   45.1346   -6.3170 H   0  0  0  0  0  0
   16.5473   45.7972   -7.5548 H   0  0  0  0  0  0
   19.3780   48.3933   -5.2400 H   0  0  0  0  0  0
   20.4859   47.1149   -5.6389 H   0  0  0  0  0  0
   20.7915   49.0207   -7.2040 H   0  0  0  0  0  0
   19.0773   48.9953   -7.6347 H   0  0  0  0  0  0
   20.1391   47.6782   -8.1313 H   0  0  0  0  0  0
   20.6938   42.2657   -9.4828 H   0  0  0  0  0  0
   14.0610   40.9490   -9.0383 H   0  0  0  0  0  0
   13.6962   42.6045   -9.4141 H   0  0  0  0  0  0
   13.8549   41.1415  -11.4535 H   0  0  0  0  0  0
   15.5338   40.7743  -11.0746 H   0  0  0  0  0  0
   15.0691   42.4193  -11.5209 H   0  0  0  0  0  0
   21.5576   37.8169   -6.9968 H   0  0  0  0  0  0
   20.2512   38.5420   -6.0602 H   0  0  0  0  0  0
   21.6940   39.4587   -6.3796 H   0  0  0  0  0  0
   23.2196   41.3563  -11.7707 H   0  0  0  0  0  0
  1  2  1  0  0  0
  1 43  1  0  0  0
  1 44  1  0  0  0
  1 45  1  0  0  0
  2  3  1  0  0  0
  2 46  1  0  0  0
  2 47  1  0  0  0
  3  4  1  0  0  0
  3 48  1  0  0  0
  3 49  1  0  0  0
  4  5  1  0  0  0
  4 50  1  0  0  0
  4 51  1  0  0  0
  5  6  1  0  0  0
  5 52  1  0  0  0
  6  7  2  0  0  0
  6  8  1  0  0  0
  8 39  1  0  0  0
  8  9  1  0  0  0
  8 10  1  0  0  0
  9 53  1  0  0  0
  9 54  1  0  0  0
  9 55  1  0  0  0
 10 11  1  0  0  0
 10 56  1  0  0  0
 10 57  1  0  0  0
 11 40  1  0  0  0
 11 12  1  0  0  0
 11 38  1  0  0  0
 12 41  1  0  0  0
 12 34  1  0  0  0
 12 13  1  0  0  0
 13 14  1  0  0  0
 13 58  1  0  0  0
 13 59  1  0  0  0
 14 42  1  0  0  0
 14 15  1  0  0  0
 14 37  1  0  0  0
 15 16  1  0  0  0
 15 60  1  0  0  0
 15 61  1  0  0  0
 16 17  1  0  0  0
 16 62  1  0  0  0
 16 63  1  0  0  0
 17 18  1  0  0  0
 17 64  1  0  0  0
 17 65  1  0  0  0
 18 19  1  0  0  0
 18 66  1  0  0  0
 18 67  1  0  0  0
 19 20  1  0  0  0
 19 68  1  0  0  0
 19 69  1  0  0  0
 20 21  1  0  0  0
 20 35  1  0  0  0
 21 22  2  0  0  0
 21 23  1  0  0  0
 23 28  1  0  0  0
 23 24  2  0  0  0
 24 25  1  0  0  0
 24 70  1  0  0  0
 25 26  2  0  0  0
 25 32  1  0  0  0
 26 27  1  0  0  0
 26 71  1  0  0  0
 27 28  2  0  0  0
 27 29  1  0  0  0
 28 72  1  0  0  0
 29 30  1  0  0  0
 30 31  1  0  0  0
 30 73  1  0  0  0
 30 74  1  0  0  0
 31 75  1  0  0  0
 31 76  1  0  0  0
 31 77  1  0  0  0
 32 33  2  0  0  0
 32 34  1  0  0  0
 34 78  1  0  0  0
 35 36  1  0  0  0
 35 79  1  0  0  0
 35 80  1  0  0  0
 36 81  1  0  0  0
 36 82  1  0  0  0
 36 83  1  0  0  0
 37 84  1  0  0  0
 37 85  1  0  0  0
 37 86  1  0  0  0
 38 87  1  0  0  0
M  END
> <s_m_source_file>
BACE_1.smi

> <i_m_source_file_index>
1

> <i_lp_mmshare_version>
42013

> <i_f3d_flags>
0

> <s_epik_input>
W0NIM11bQ0gyXVtDSDJdW0NIMl1bTkhdQyg9TylbQ0BIXShbQ0gzXSlbQ0gyXVtDQEhdKFtPSF0pW0NAQEhdKFtOSF1DKD1PKWMoW2NIXWMxMilbY0hdYyhbY0hdMilPW0NIMl1bQ0gzXSlbQ0gyXVtDQEhdKFtDSDNdKVtDSDJdW0NIMl1bQ0gyXVtDSDJdW0NIMl1OKEMxPU8pW0NIMl1bQ0gzXQ==

> <s_epik_cmdline>
J2VwaWtfcHl0aG9uJywgJy1waCcsICc3LjAnLCAnLXRuJywgJzgnLCAnLW1hJywgJzIwMCcsICctaW1hZScsICc8aW5maWxlLm1hZT4nLCAnLW9tYWUnLCAnPG91dGZpbGUubWFlPic=

> <r_lp_tautomer_probability>
1

> <r_epik_Ionization_Penalty>
  0.0000

> <r_epik_Ionization_Penalty_Charging>
  0.0000

> <r_epik_Ionization_Penalty_Neutral>
  0.0000

> <r_epik_State_Penalty>
 -0.0000

> <r_epik_Charging_Adjusted_Penalty>
0

> <i_epik_Tot_Q>
0

> <i_epik_Tot_abs_Q>
0

> <s_lp_Force_Field>
OPLS_2005

> <r_lp_Energy>
40.9193

> <b_lp_Chiralities_Consistent>
1

> <s_lp_Variant>
BACE_1.smi:1-1

> <chiral flag>
1

> <version>
0

> <r_i_glide_lipo>
-0.830122

> <r_i_glide_hbond>
-0.11581

> <r_i_glide_metal>
-0

> <r_i_glide_rewards>
-0.151207

> <r_i_glide_erotb>
0.583496

> <r_i_glide_esite>
-0.0337226

> <chiral flag>
1

> <s_i_glide_gridfile>
second_dock_grid_2

> <i_i_glide_lignum>
1

> <i_i_glide_rotatable_bonds>
12

> <r_i_docking_score>
-3.11587

> <r_i_glide_ligand_efficiency>
-0.0819965

> <r_i_glide_ligand_efficiency_sa>
-0.27567

> <r_i_glide_ligand_efficiency_ln>
-0.671873

> <r_glide_XP_GScore>
-3.11587

> <r_i_glide_gscore>
-3.11587

> <r_i_glide_evdw>
-38.1861

> <r_i_glide_ecoul>
-7.07433

> <r_i_glide_energy>
-45.2604

> <r_i_glide_einternal>
0

> <r_i_glide_emodel>
-69.3754

> <r_glide_XP_HBond>
-0.7

> <i_i_glide_confnum>
1

> <i_i_glide_posenum>
9

> <r_i_glide_eff_state_penalty>
-0

> <i_glide_XP_PoseRank>
4

$$$$
BACE_1.smi:1
                    3D
 Structure written by MMmdl.
 87 88  0  0  1  0            999 V2000
   31.1346   43.4995   -8.5662 C   0  0  0  0  0  0
   29.9488   43.4746   -9.5368 C   0  0  0  0  0  0
   30.0612   42.3873  -10.6192 C   0  0  0  0  0  0
   29.0508   42.5381  -11.7727 C   0  0  0  0  0  0
   27.6507   42.3143  -11.4057 N   0  0  0  0  0  0
   26.7836   43.2807  -11.0559 C   0  0  0  0  0  0
   27.1397   44.3954  -10.6731 O   0  0  0  0  0  0
   25.2914   42.9864  -11.2689 C   0  0  2  0  0  0
   24.6230   44.1685  -12.0024 C   0  0  0  0  0  0
   24.5354   42.5967   -9.9681 C   0  0  0  0  0  0
   23.5179   41.4439  -10.1637 C   0  0  1  0  0  0
   22.6397   41.1135   -8.9303 C   0  0  2  0  0  0
   21.7943   39.8296   -9.1801 C   0  0  0  0  0  0
   20.7520   39.4577   -8.0973 C   0  0  1  0  0  0
   19.6796   38.4978   -8.6679 C   0  0  0  0  0  0
   18.4682   38.2149   -7.7513 C   0  0  0  0  0  0
   17.7334   39.4505   -7.2029 C   0  0  0  0  0  0
   17.1417   40.3908   -8.2649 C   0  0  0  0  0  0
   16.4269   41.6123   -7.6445 C   0  0  0  0  0  0
   16.0610   42.6098   -8.6655 N   0  0  0  0  0  0
   16.7515   43.7498   -8.9371 C   0  0  0  0  0  0
   16.3920   44.5588   -9.7949 O   0  0  0  0  0  0
   17.9611   44.0911   -8.1136 C   0  0  0  0  0  0
   19.1439   43.3285   -8.1914 C   0  0  0  0  0  0
   20.2745   43.6626   -7.4071 C   0  0  0  0  0  0
   20.2037   44.7740   -6.5362 C   0  0  0  0  0  0
   19.0336   45.5634   -6.4774 C   0  0  0  0  0  0
   17.9244   45.2197   -7.2738 C   0  0  0  0  0  0
   18.9449   46.6514   -5.6454 O   0  0  0  0  0  0
   19.7016   47.7742   -6.0807 C   0  0  0  0  0  0
   18.9730   48.5215   -7.2049 C   0  0  0  0  0  0
   21.5093   42.8045   -7.4550 C   0  0  0  0  0  0
   22.2119   42.6363   -6.4604 O   0  0  0  0  0  0
   21.7548   42.2428   -8.6496 N   0  0  0  0  0  0
   14.7744   42.3479   -9.3275 C   0  0  0  0  0  0
   13.6592   43.2676   -8.8008 C   0  0  0  0  0  0
   21.4281   38.9003   -6.8349 C   0  0  0  0  0  0
   22.6474   41.7494  -11.2401 O   0  0  0  0  0  0
   25.2599   42.1461  -11.9575 H   0  0  0  0  0  0
   24.0765   40.5495  -10.4396 H   0  0  0  0  0  0
   23.2998   40.9364   -8.0801 H   0  0  0  0  0  0
   20.2256   40.3657   -7.8156 H   0  0  0  0  0  0
   30.9933   44.2662   -7.8046 H   0  0  0  0  0  0
   32.0650   43.7329   -9.0843 H   0  0  0  0  0  0
   31.2600   42.5493   -8.0497 H   0  0  0  0  0  0
   29.0237   43.3464   -8.9746 H   0  0  0  0  0  0
   29.8759   44.4529  -10.0114 H   0  0  0  0  0  0
   31.0602   42.4421  -11.0549 H   0  0  0  0  0  0
   29.9852   41.3893  -10.1869 H   0  0  0  0  0  0
   29.1616   43.5171  -12.2424 H   0  0  0  0  0  0
   29.2921   41.8111  -12.5487 H   0  0  0  0  0  0
   27.2699   41.4123  -11.6494 H   0  0  0  0  0  0
   25.1805   44.4434  -12.8982 H   0  0  0  0  0  0
   24.5648   45.0530  -11.3664 H   0  0  0  0  0  0
   23.6100   43.9232  -12.3177 H   0  0  0  0  0  0
   25.2460   42.2923   -9.1988 H   0  0  0  0  0  0
   24.0336   43.4766   -9.5652 H   0  0  0  0  0  0
   21.2565   39.9572  -10.1210 H   0  0  0  0  0  0
   22.4610   38.9822   -9.3470 H   0  0  0  0  0  0
   19.2991   38.9050   -9.6061 H   0  0  0  0  0  0
   20.1501   37.5507   -8.9361 H   0  0  0  0  0  0
   17.7558   37.5844   -8.2838 H   0  0  0  0  0  0
   18.7933   37.6240   -6.8968 H   0  0  0  0  0  0
   16.9337   39.1154   -6.5401 H   0  0  0  0  0  0
   18.4248   40.0004   -6.5685 H   0  0  0  0  0  0
   17.9294   40.7200   -8.9385 H   0  0  0  0  0  0
   16.4380   39.8342   -8.8829 H   0  0  0  0  0  0
   15.5298   41.2809   -7.1179 H   0  0  0  0  0  0
   17.0368   42.0649   -6.8645 H   0  0  0  0  0  0
   19.1779   42.4784   -8.8534 H   0  0  0  0  0  0
   21.0490   45.0246   -5.9106 H   0  0  0  0  0  0
   17.0333   45.8283   -7.2440 H   0  0  0  0  0  0
   19.8320   48.4533   -5.2392 H   0  0  0  0  0  0
   20.7048   47.4833   -6.4004 H   0  0  0  0  0  0
   19.5246   49.4168   -7.4922 H   0  0  0  0  0  0
   17.9761   48.8273   -6.8848 H   0  0  0  0  0  0
   18.8665   47.9002   -8.0953 H   0  0  0  0  0  0
   21.1745   42.5246   -9.4262 H   0  0  0  0  0  0
   14.8805   42.4706  -10.4063 H   0  0  0  0  0  0
   14.4755   41.3091   -9.1809 H   0  0  0  0  0  0
   12.6987   42.9909   -9.2391 H   0  0  0  0  0  0
   13.8450   44.3137   -9.0434 H   0  0  0  0  0  0
   13.5681   43.1870   -7.7167 H   0  0  0  0  0  0
   21.9187   37.9482   -7.0324 H   0  0  0  0  0  0
   20.6993   38.7435   -6.0411 H   0  0  0  0  0  0
   22.1773   39.5892   -6.4457 H   0  0  0  0  0  0
   23.0873   41.4963  -12.0469 H   0  0  0  0  0  0
  1  2  1  0  0  0
  1 43  1  0  0  0
  1 44  1  0  0  0
  1 45  1  0  0  0
  2  3  1  0  0  0
  2 46  1  0  0  0
  2 47  1  0  0  0
  3  4  1  0  0  0
  3 48  1  0  0  0
  3 49  1  0  0  0
  4  5  1  0  0  0
  4 50  1  0  0  0
  4 51  1  0  0  0
  5  6  1  0  0  0
  5 52  1  0  0  0
  6  7  2  0  0  0
  6  8  1  0  0  0
  8 39  1  0  0  0
  8  9  1  0  0  0
  8 10  1  0  0  0
  9 53  1  0  0  0
  9 54  1  0  0  0
  9 55  1  0  0  0
 10 11  1  0  0  0
 10 56  1  0  0  0
 10 57  1  0  0  0
 11 40  1  0  0  0
 11 12  1  0  0  0
 11 38  1  0  0  0
 12 41  1  0  0  0
 12 34  1  0  0  0
 12 13  1  0  0  0
 13 14  1  0  0  0
 13 58  1  0  0  0
 13 59  1  0  0  0
 14 42  1  0  0  0
 14 15  1  0  0  0
 14 37  1  0  0  0
 15 16  1  0  0  0
 15 60  1  0  0  0
 15 61  1  0  0  0
 16 17  1  0  0  0
 16 62  1  0  0  0
 16 63  1  0  0  0
 17 18  1  0  0  0
 17 64  1  0  0  0
 17 65  1  0  0  0
 18 19  1  0  0  0
 18 66  1  0  0  0
 18 67  1  0  0  0
 19 20  1  0  0  0
 19 68  1  0  0  0
 19 69  1  0  0  0
 20 21  1  0  0  0
 20 35  1  0  0  0
 21 22  2  0  0  0
 21 23  1  0  0  0
 23 28  1  0  0  0
 23 24  2  0  0  0
 24 25  1  0  0  0
 24 70  1  0  0  0
 25 26  2  0  0  0
 25 32  1  0  0  0
 26 27  1  0  0  0
 26 71  1  0  0  0
 27 28  2  0  0  0
 27 29  1  0  0  0
 28 72  1  0  0  0
 29 30  1  0  0  0
 30 31  1  0  0  0
 30 73  1  0  0  0
 30 74  1  0  0  0
 31 75  1  0  0  0
 31 76  1  0  0  0
 31 77  1  0  0  0
 32 33  2  0  0  0
 32 34  1  0  0  0
 34 78  1  0  0  0
 35 36  1  0  0  0
 35 79  1  0  0  0
 35 80  1  0  0  0
 36 81  1  0  0  0
 36 82  1  0  0  0
 36 83  1  0  0  0
 37 84  1  0  0  0
 37 85  1  0  0  0
 37 86  1  0  0  0
 38 87  1  0  0  0
M  END
> <s_m_source_file>
BACE_1.smi

> <i_m_source_file_index>
1

> <i_lp_mmshare_version>
42013

> <i_f3d_flags>
0

> <s_epik_input>
W0NIM11bQ0gyXVtDSDJdW0NIMl1bTkhdQyg9TylbQ0BIXShbQ0gzXSlbQ0gyXVtDQEhdKFtPSF0pW0NAQEhdKFtOSF1DKD1PKWMoW2NIXWMxMilbY0hdYyhbY0hdMilPW0NIMl1bQ0gzXSlbQ0gyXVtDQEhdKFtDSDNdKVtDSDJdW0NIMl1bQ0gyXVtDSDJdW0NIMl1OKEMxPU8pW0NIMl1bQ0gzXQ==

> <s_epik_cmdline>
J2VwaWtfcHl0aG9uJywgJy1waCcsICc3LjAnLCAnLXRuJywgJzgnLCAnLW1hJywgJzIwMCcsICctaW1hZScsICc8aW5maWxlLm1hZT4nLCAnLW9tYWUnLCAnPG91dGZpbGUubWFlPic=

> <r_lp_tautomer_probability>
1

> <r_epik_Ionization_Penalty>
  0.0000

> <r_epik_Ionization_Penalty_Charging>
  0.0000

> <r_epik_Ionization_Penalty_Neutral>
  0.0000

> <r_epik_State_Penalty>
 -0.0000

> <r_epik_Charging_Adjusted_Penalty>
0

> <i_epik_Tot_Q>
0

> <i_epik_Tot_abs_Q>
0

> <s_lp_Force_Field>
OPLS_2005

> <r_lp_Energy>
40.9193

> <b_lp_Chiralities_Consistent>
1

> <s_lp_Variant>
BACE_1.smi:1-1

> <chiral flag>
1

> <version>
0

> <r_i_glide_lipo>
-0.830122

> <r_i_glide_hbond>
-0.11581

> <r_i_glide_metal>
-0

> <r_i_glide_rewards>
-0.151207

> <r_i_glide_erotb>
0.583496

> <r_i_glide_esite>
-0.0337226

> <chiral flag>
1

> <s_i_glide_gridfile>
second_dock_grid_2

> <i_i_glide_lignum>
1

> <i_i_glide_rotatable_bonds>
12

> <r_i_docking_score>
-2.75279

> <r_i_glide_ligand_efficiency>
-0.0724417

> <r_i_glide_ligand_efficiency_sa>
-0.243547

> <r_i_glide_ligand_efficiency_ln>
-0.593582

> <r_glide_XP_GScore>
-2.75279

> <r_i_glide_gscore>
-2.75279

> <r_i_glide_evdw>
-38.5364

> <r_i_glide_ecoul>
-7.82762

> <r_i_glide_energy>
-46.364

> <r_i_glide_einternal>
10.0852

> <r_i_glide_emodel>
-69.447

> <r_glide_XP_HBond>
-0.7

> <i_i_glide_confnum>
1

> <i_i_glide_posenum>
6

> <r_i_glide_eff_state_penalty>
-0

> <i_glide_XP_PoseRank>
5

$$$$
BACE_1.smi:1
                    3D
 Structure written by MMmdl.
 87 88  0  0  1  0            999 V2000
   31.7244   41.8987  -12.9755 C   0  0  0  0  0  0
   30.7765   43.0920  -12.8115 C   0  0  0  0  0  0
   29.3137   42.6929  -12.5820 C   0  0  0  0  0  0
   29.0323   42.0044  -11.2316 C   0  0  0  0  0  0
   27.6034   41.7528  -11.1061 N   0  0  0  0  0  0
   26.7189   42.5957  -10.5519 C   0  0  0  0  0  0
   27.0386   43.5278   -9.8132 O   0  0  0  0  0  0
   25.2575   42.4113  -10.9781 C   0  0  2  0  0  0
   24.8151   43.6148  -11.8349 C   0  0  0  0  0  0
   24.2944   42.1420   -9.7901 C   0  0  0  0  0  0
   23.2069   41.0851  -10.1016 C   0  0  1  0  0  0
   22.2309   40.8083   -8.9356 C   0  0  2  0  0  0
   21.3567   39.5557   -9.2069 C   0  0  0  0  0  0
   20.3189   39.2160   -8.1086 C   0  0  1  0  0  0
   19.2434   38.2411   -8.6397 C   0  0  0  0  0  0
   18.0604   37.9573   -7.6868 C   0  0  0  0  0  0
   17.3450   39.1991   -7.1205 C   0  0  0  0  0  0
   16.7633   40.1374   -8.1842 C   0  0  0  0  0  0
   16.1341   41.4012   -7.5679 C   0  0  0  0  0  0
   15.7534   42.3780   -8.5983 N   0  0  0  0  0  0
   16.3184   43.6068   -8.7598 C   0  0  0  0  0  0
   15.7995   44.4806   -9.4610 O   0  0  0  0  0  0
   17.6047   43.9503   -8.0501 C   0  0  0  0  0  0
   18.7585   43.1418   -8.1584 C   0  0  0  0  0  0
   19.9593   43.4974   -7.5018 C   0  0  0  0  0  0
   20.0083   44.6899   -6.7494 C   0  0  0  0  0  0
   18.8776   45.5378   -6.6705 C   0  0  0  0  0  0
   17.6865   45.1514   -7.3160 C   0  0  0  0  0  0
   18.8592   46.7294   -5.9773 O   0  0  0  0  0  0
   20.0732   47.4794   -5.9036 C   0  0  0  0  0  0
   20.4876   48.0267   -7.2773 C   0  0  0  0  0  0
   21.1478   42.5790   -7.5322 C   0  0  0  0  0  0
   21.8542   42.4179   -6.5383 O   0  0  0  0  0  0
   21.3658   41.9675   -8.7064 N   0  0  0  0  0  0
   14.5214   42.0215   -9.3205 C   0  0  0  0  0  0
   14.7816   41.7284  -10.8067 C   0  0  0  0  0  0
   20.9976   38.6964   -6.8314 C   0  0  0  0  0  0
   22.4602   41.4742  -11.2398 O   0  0  0  0  0  0
   25.2602   41.5320  -11.6165 H   0  0  0  0  0  0
   23.7040   40.1501  -10.3550 H   0  0  0  0  0  0
   22.8347   40.6063   -8.0507 H   0  0  0  0  0  0
   19.7967   40.1324   -7.8498 H   0  0  0  0  0  0
   32.7218   42.2341  -13.2639 H   0  0  0  0  0  0
   31.3727   41.2018  -13.7438 H   0  0  0  0  0  0
   31.8214   41.3502  -12.0389 H   0  0  0  0  0  0
   31.1243   43.7307  -11.9957 H   0  0  0  0  0  0
   30.8365   43.6954  -13.7176 H   0  0  0  0  0  0
   28.7058   43.5997  -12.6559 H   0  0  0  0  0  0
   28.9828   42.0446  -13.3951 H   0  0  0  0  0  0
   29.5532   41.0482  -11.1757 H   0  0  0  0  0  0
   29.3943   42.6163  -10.4051 H   0  0  0  0  0  0
   27.2459   40.9729  -11.6382 H   0  0  0  0  0  0
   25.5130   43.7964  -12.6515 H   0  0  0  0  0  0
   24.7624   44.5253  -11.2379 H   0  0  0  0  0  0
   23.8352   43.4547  -12.2837 H   0  0  0  0  0  0
   24.8605   41.7883   -8.9253 H   0  0  0  0  0  0
   23.8294   43.0740   -9.4682 H   0  0  0  0  0  0
   20.8198   39.7103  -10.1429 H   0  0  0  0  0  0
   21.9974   38.6887   -9.3754 H   0  0  0  0  0  0
   18.8441   38.6319   -9.5757 H   0  0  0  0  0  0
   19.7157   37.2976   -8.9044 H   0  0  0  0  0  0
   17.3274   37.3401   -8.2063 H   0  0  0  0  0  0
   18.4035   37.3517   -6.8490 H   0  0  0  0  0  0
   16.5369   38.8665   -6.4640 H   0  0  0  0  0  0
   18.0391   39.7499   -6.4859 H   0  0  0  0  0  0
   17.5367   40.4206   -8.8932 H   0  0  0  0  0  0
   16.0144   39.5958   -8.7607 H   0  0  0  0  0  0
   15.2579   41.1298   -6.9772 H   0  0  0  0  0  0
   16.8149   41.8383   -6.8405 H   0  0  0  0  0  0
   18.7142   42.2332   -8.7381 H   0  0  0  0  0  0
   20.9228   44.9326   -6.2296 H   0  0  0  0  0  0
   16.8184   45.7882   -7.2401 H   0  0  0  0  0  0
   19.8838   48.3245   -5.2408 H   0  0  0  0  0  0
   20.8824   46.9130   -5.4330 H   0  0  0  0  0  0
   21.4023   48.6101   -7.1881 H   0  0  0  0  0  0
   19.7163   48.6772   -7.6983 H   0  0  0  0  0  0
   20.6794   47.2210   -7.9907 H   0  0  0  0  0  0
   20.7879   42.2364   -9.4881 H   0  0  0  0  0  0
   14.0603   41.1382   -8.8789 H   0  0  0  0  0  0
   13.7802   42.8145   -9.2183 H   0  0  0  0  0  0
   13.8552   41.4286  -11.2971 H   0  0  0  0  0  0
   15.4992   40.9190  -10.9291 H   0  0  0  0  0  0
   15.1665   42.6037  -11.3299 H   0  0  0  0  0  0
   21.5091   37.7501   -7.0049 H   0  0  0  0  0  0
   20.2657   38.5450   -6.0399 H   0  0  0  0  0  0
   21.7264   39.4116   -6.4465 H   0  0  0  0  0  0
   23.0059   41.3176  -12.0044 H   0  0  0  0  0  0
  1  2  1  0  0  0
  1 43  1  0  0  0
  1 44  1  0  0  0
  1 45  1  0  0  0
  2  3  1  0  0  0
  2 46  1  0  0  0
  2 47  1  0  0  0
  3  4  1  0  0  0
  3 48  1  0  0  0
  3 49  1  0  0  0
  4  5  1  0  0  0
  4 50  1  0  0  0
  4 51  1  0  0  0
  5  6  1  0  0  0
  5 52  1  0  0  0
  6  7  2  0  0  0
  6  8  1  0  0  0
  8 39  1  0  0  0
  8  9  1  0  0  0
  8 10  1  0  0  0
  9 53  1  0  0  0
  9 54  1  0  0  0
  9 55  1  0  0  0
 10 11  1  0  0  0
 10 56  1  0  0  0
 10 57  1  0  0  0
 11 40  1  0  0  0
 11 12  1  0  0  0
 11 38  1  0  0  0
 12 41  1  0  0  0
 12 34  1  0  0  0
 12 13  1  0  0  0
 13 14  1  0  0  0
 13 58  1  0  0  0
 13 59  1  0  0  0
 14 42  1  0  0  0
 14 15  1  0  0  0
 14 37  1  0  0  0
 15 16  1  0  0  0
 15 60  1  0  0  0
 15 61  1  0  0  0
 16 17  1  0  0  0
 16 62  1  0  0  0
 16 63  1  0  0  0
 17 18  1  0  0  0
 17 64  1  0  0  0
 17 65  1  0  0  0
 18 19  1  0  0  0
 18 66  1  0  0  0
 18 67  1  0  0  0
 19 20  1  0  0  0
 19 68  1  0  0  0
 19 69  1  0  0  0
 20 21  1  0  0  0
 20 35  1  0  0  0
 21 22  2  0  0  0
 21 23  1  0  0  0
 23 28  1  0  0  0
 23 24  2  0  0  0
 24 25  1  0  0  0
 24 70  1  0  0  0
 25 26  2  0  0  0
 25 32  1  0  0  0
 26 27  1  0  0  0
 26 71  1  0  0  0
 27 28  2  0  0  0
 27 29  1  0  0  0
 28 72  1  0  0  0
 29 30  1  0  0  0
 30 31  1  0  0  0
 30 73  1  0  0  0
 30 74  1  0  0  0
 31 75  1  0  0  0
 31 76  1  0  0  0
 31 77  1  0  0  0
 32 33  2  0  0  0
 32 34  1  0  0  0
 34 78  1  0  0  0
 35 36  1  0  0  0
 35 79  1  0  0  0
 35 80  1  0  0  0
 36 81  1  0  0  0
 36 82  1  0  0  0
 36 83  1  0  0  0
 37 84  1  0  0  0
 37 85  1  0  0  0
 37 86  1  0  0  0
 38 87  1  0  0  0
M  END
> <s_m_source_file>
BACE_1.smi

> <i_m_source_file_index>
1

> <i_lp_mmshare_version>
42013

> <i_f3d_flags>
0

> <s_epik_input>
W0NIM11bQ0gyXVtDSDJdW0NIMl1bTkhdQyg9TylbQ0BIXShbQ0gzXSlbQ0gyXVtDQEhdKFtPSF0pW0NAQEhdKFtOSF1DKD1PKWMoW2NIXWMxMilbY0hdYyhbY0hdMilPW0NIMl1bQ0gzXSlbQ0gyXVtDQEhdKFtDSDNdKVtDSDJdW0NIMl1bQ0gyXVtDSDJdW0NIMl1OKEMxPU8pW0NIMl1bQ0gzXQ==

> <s_epik_cmdline>
J2VwaWtfcHl0aG9uJywgJy1waCcsICc3LjAnLCAnLXRuJywgJzgnLCAnLW1hJywgJzIwMCcsICctaW1hZScsICc8aW5maWxlLm1hZT4nLCAnLW9tYWUnLCAnPG91dGZpbGUubWFlPic=

> <r_lp_tautomer_probability>
1

> <r_epik_Ionization_Penalty>
  0.0000

> <r_epik_Ionization_Penalty_Charging>
  0.0000

> <r_epik_Ionization_Penalty_Neutral>
  0.0000

> <r_epik_State_Penalty>
 -0.0000

> <r_epik_Charging_Adjusted_Penalty>
0

> <i_epik_Tot_Q>
0

> <i_epik_Tot_abs_Q>
0

> <s_lp_Force_Field>
OPLS_2005

> <r_lp_Energy>
40.9193

> <b_lp_Chiralities_Consistent>
1

> <s_lp_Variant>
BACE_1.smi:1-1

> <chiral flag>
1

> <version>
0

> <r_i_glide_lipo>
-0.830122

> <r_i_glide_hbond>
-0.11581

> <r_i_glide_metal>
-0

> <r_i_glide_rewards>
-0.151207

> <r_i_glide_erotb>
0.583496

> <r_i_glide_esite>
-0.0337226

> <chiral flag>
1

> <s_i_glide_gridfile>
second_dock_grid_2

> <i_i_glide_lignum>
1

> <i_i_glide_rotatable_bonds>
12

> <r_i_docking_score>
-2.31741

> <r_i_glide_ligand_efficiency>
-0.0609845

> <r_i_glide_ligand_efficiency_sa>
-0.205029

> <r_i_glide_ligand_efficiency_ln>
-0.499702

> <r_glide_XP_GScore>
-2.31741

> <r_i_glide_gscore>
-2.31741

> <r_i_glide_evdw>
-39.5517

> <r_i_glide_ecoul>
-7.95797

> <r_i_glide_energy>
-47.5097

> <r_i_glide_einternal>
13.6116

> <r_i_glide_emodel>
-67.3546

> <r_glide_XP_HBond>
-0.7

> <i_i_glide_confnum>
1

> <i_i_glide_posenum>
3

> <r_i_glide_eff_state_penalty>
-0

> <i_glide_XP_PoseRank>
6

$$$$
BACE_2.smi:1
                    3D
 Structure written by MMmdl.
 96 98  0  0  1  0            999 V2000
   31.9423   43.4958  -12.0627 C   0  0  0  0  0  0
   32.0044   43.0020  -13.3751 C   0  0  0  0  0  0
   30.8576   42.4477  -13.9812 C   0  0  0  0  0  0
   30.9133   41.9441  -15.4166 C   0  0  0  0  0  0
   30.9264   43.1129  -16.4101 C   0  0  0  0  0  0
   32.0973   40.9922  -15.6555 C   0  0  0  0  0  0
   29.6494   42.3830  -13.2524 C   0  0  0  0  0  0
   29.5781   42.8715  -11.9263 C   0  0  0  0  0  0
   30.7349   43.4563  -11.3421 C   0  0  0  0  0  0
   28.2719   42.8253  -11.1352 C   0  0  2  0  0  0
   28.5644   43.0847   -9.6431 C   0  0  0  0  0  0
   29.5003   44.3023   -9.4589 C   0  0  0  0  0  0
   30.7474   44.0065  -10.0795 O   0  0  0  0  0  0
   28.9233   45.6057  -10.0548 C   0  0  0  0  0  0
   29.8394   44.5495   -7.9790 C   0  0  0  0  0  0
   27.5064   41.5704  -11.3748 N   0  3  0  0  0  0
   26.2113   41.3794  -10.6619 C   0  0  0  0  0  0
   25.2646   42.6083  -10.7010 C   0  0  1  0  0  0
   25.0117   42.9524  -12.0401 O   0  0  0  0  0  0
   23.8974   42.4968   -9.9645 C   0  0  1  0  0  0
   23.2423   41.2197  -10.2701 N   0  0  0  0  0  0
   21.9501   41.0827  -10.6181 C   0  0  0  0  0  0
   21.1924   42.0417  -10.7720 O   0  0  0  0  0  0
   21.4222   39.6477  -10.8102 C   0  0  2  0  0  0
   20.9495   39.5107  -12.2767 C   0  0  0  0  0  0
   23.9948   42.6537   -8.4243 C   0  0  0  0  0  0
   23.9189   44.0944   -7.8438 C   0  0  2  0  0  0
   24.8599   45.1117   -8.5133 C   0  0  0  0  0  0
   24.1837   44.1134   -6.3191 C   0  0  0  0  0  0
   23.2147   43.2960   -5.4498 C   0  0  0  0  0  0
   21.7600   43.7888   -5.5030 C   0  0  0  0  0  0
   20.8328   43.0757   -4.5044 C   0  0  0  0  0  0
   20.8033   41.5406   -4.6236 C   0  0  0  0  0  0
   20.4599   41.0284   -6.0337 C   0  0  0  0  0  0
   20.1218   39.5285   -6.0444 C   0  0  0  0  0  0
   19.6477   39.0098   -7.4158 C   0  0  0  0  0  0
   20.7208   39.1006   -8.5226 C   0  0  0  0  0  0
   21.9004   38.9463   -8.1969 O   0  0  0  0  0  0
   20.3571   39.3687   -9.8071 N   0  0  0  0  0  0
   18.9336   39.4530  -10.1888 C   0  0  0  0  0  0
   27.6697   43.6425  -11.5301 H   0  0  0  0  0  0
   25.7918   43.4589  -10.2873 H   0  0  0  0  0  0
   23.2646   43.3133  -10.3181 H   0  0  0  0  0  0
   22.2353   38.9356  -10.6631 H   0  0  0  0  0  0
   22.9075   44.4630   -8.0199 H   0  0  0  0  0  0
   32.8213   43.9361  -11.6133 H   0  0  0  0  0  0
   32.9357   43.0696  -13.9183 H   0  0  0  0  0  0
   30.0034   41.3708  -15.6003 H   0  0  0  0  0  0
   30.0599   43.7579  -16.2637 H   0  0  0  0  0  0
   30.8997   42.7520  -17.4382 H   0  0  0  0  0  0
   31.8214   43.7245  -16.2941 H   0  0  0  0  0  0
   32.0600   40.1528  -14.9608 H   0  0  0  0  0  0
   33.0622   41.4828  -15.5372 H   0  0  0  0  0  0
   32.0641   40.5794  -16.6648 H   0  0  0  0  0  0
   28.7785   41.9643  -13.7294 H   0  0  0  0  0  0
   27.6513   43.2155   -9.0641 H   0  0  0  0  0  0
   29.0651   42.2058   -9.2402 H   0  0  0  0  0  0
   27.9547   45.8434   -9.6135 H   0  0  0  0  0  0
   28.7969   45.5607  -11.1349 H   0  0  0  0  0  0
   29.5858   46.4502   -9.8615 H   0  0  0  0  0  0
   28.9383   44.6458   -7.3733 H   0  0  0  0  0  0
   30.4179   45.4653   -7.8555 H   0  0  0  0  0  0
   30.4501   43.7497   -7.5608 H   0  0  0  0  0  0
   27.2941   41.5589  -12.3616 H   0  0  0  0  0  0
   25.7218   40.5124  -11.1060 H   0  0  0  0  0  0
   26.4307   41.0972   -9.6380 H   0  0  0  0  0  0
   24.4600   42.2785  -12.4283 H   0  0  0  0  0  0
   23.7699   40.3705  -10.1229 H   0  0  0  0  0  0
   21.7941   39.5668  -12.9636 H   0  0  0  0  0  0
   20.2502   40.2950  -12.5732 H   0  0  0  0  0  0
   20.4603   38.5521  -12.4403 H   0  0  0  0  0  0
   23.1629   42.1033   -7.9824 H   0  0  0  0  0  0
   24.8802   42.1476   -8.0556 H   0  0  0  0  0  0
   24.7621   46.0949   -8.0517 H   0  0  0  0  0  0
   24.6294   45.2476   -9.5698 H   0  0  0  0  0  0
   25.9026   44.8130   -8.4127 H   0  0  0  0  0  0
   25.1986   43.7593   -6.1303 H   0  0  0  0  0  0
   24.1679   45.1432   -5.9614 H   0  0  0  0  0  0
   23.5640   43.3433   -4.4192 H   0  0  0  0  0  0
   23.2609   42.2438   -5.7227 H   0  0  0  0  0  0
   21.7307   44.8615   -5.3023 H   0  0  0  0  0  0
   21.3663   43.6620   -6.5117 H   0  0  0  0  0  0
   19.8188   43.4573   -4.6357 H   0  0  0  0  0  0
   21.1209   43.3466   -3.4866 H   0  0  0  0  0  0
   21.7541   41.1161   -4.3008 H   0  0  0  0  0  0
   20.0603   41.1669   -3.9167 H   0  0  0  0  0  0
   21.2962   41.2243   -6.7038 H   0  0  0  0  0  0
   19.6170   41.5877   -6.4398 H   0  0  0  0  0  0
   20.9800   38.9534   -5.6975 H   0  0  0  0  0  0
   19.3213   39.3501   -5.3257 H   0  0  0  0  0  0
   18.7497   39.5696   -7.6707 H   0  0  0  0  0  0
   19.3461   37.9657   -7.3238 H   0  0  0  0  0  0
   18.7201   39.3655  -11.2495 H   0  0  0  0  0  0
   18.5189   40.4079   -9.8633 H   0  0  0  0  0  0
   18.3563   38.6510   -9.7248 H   0  0  0  0  0  0
   28.0926   40.7674  -11.1737 H   0  0  0  0  0  0
  1  9  1  0  0  0
  1  2  2  0  0  0
  1 46  1  0  0  0
  2  3  1  0  0  0
  2 47  1  0  0  0
  3  4  1  0  0  0
  3  7  2  0  0  0
  4  5  1  0  0  0
  4  6  1  0  0  0
  4 48  1  0  0  0
  5 49  1  0  0  0
  5 50  1  0  0  0
  5 51  1  0  0  0
  6 52  1  0  0  0
  6 53  1  0  0  0
  6 54  1  0  0  0
  7  8  1  0  0  0
  7 55  1  0  0  0
  8  9  2  0  0  0
  8 10  1  0  0  0
  9 13  1  0  0  0
 10 41  1  0  0  0
 10 11  1  0  0  0
 10 16  1  0  0  0
 11 12  1  0  0  0
 11 56  1  0  0  0
 11 57  1  0  0  0
 12 13  1  0  0  0
 12 14  1  0  0  0
 12 15  1  0  0  0
 14 58  1  0  0  0
 14 59  1  0  0  0
 14 60  1  0  0  0
 15 61  1  0  0  0
 15 62  1  0  0  0
 15 63  1  0  0  0
 16 17  1  0  0  0
 16 64  1  0  0  0
 16 96  1  0  0  0
 17 18  1  0  0  0
 17 65  1  0  0  0
 17 66  1  0  0  0
 18 42  1  0  0  0
 18 19  1  0  0  0
 18 20  1  0  0  0
 19 67  1  0  0  0
 20 43  1  0  0  0
 20 21  1  0  0  0
 20 26  1  0  0  0
 21 22  1  0  0  0
 21 68  1  0  0  0
 22 23  2  0  0  0
 22 24  1  0  0  0
 24 44  1  0  0  0
 24 39  1  0  0  0
 24 25  1  0  0  0
 25 69  1  0  0  0
 25 70  1  0  0  0
 25 71  1  0  0  0
 26 27  1  0  0  0
 26 72  1  0  0  0
 26 73  1  0  0  0
 27 45  1  0  0  0
 27 28  1  0  0  0
 27 29  1  0  0  0
 28 74  1  0  0  0
 28 75  1  0  0  0
 28 76  1  0  0  0
 29 30  1  0  0  0
 29 77  1  0  0  0
 29 78  1  0  0  0
 30 31  1  0  0  0
 30 79  1  0  0  0
 30 80  1  0  0  0
 31 32  1  0  0  0
 31 81  1  0  0  0
 31 82  1  0  0  0
 32 33  1  0  0  0
 32 83  1  0  0  0
 32 84  1  0  0  0
 33 34  1  0  0  0
 33 85  1  0  0  0
 33 86  1  0  0  0
 34 35  1  0  0  0
 34 87  1  0  0  0
 34 88  1  0  0  0
 35 36  1  0  0  0
 35 89  1  0  0  0
 35 90  1  0  0  0
 36 37  1  0  0  0
 36 91  1  0  0  0
 36 92  1  0  0  0
 37 38  2  0  0  0
 37 39  1  0  0  0
 39 40  1  0  0  0
 40 93  1  0  0  0
 40 94  1  0  0  0
 40 95  1  0  0  0
M  CHG  1  16   1
M  END
> <s_m_source_file>
BACE_2.smi

> <i_m_source_file_index>
1

> <i_lp_mmshare_version>
42013

> <i_f3d_flags>
0

> <s_epik_input>
W0NIM11bQ0hdKFtDSDNdKWMoW2NIXTEpW2NIXVtjSF1jKGMxMilPQyhbQ0gzXSkoW0NIM10pW0NIMl1bQ0BASF0yW05IXVtDSDJdW0NAQEhdKFtPSF0pW0NASF0zW05IXUMoPU8pW0NASF0oW0NIM10pTihbQ0gzXSlDKD1PKVtDSDJdW0NIMl1bQ0gyXVtDSDJdW0NIMl1bQ0gyXVtDSDJdW0NIMl1bQ0BIXShbQ0gyXTMpW0NIM10=

> <s_epik_cmdline>
J2VwaWtfcHl0aG9uJywgJy1waCcsICc3LjAnLCAnLXRuJywgJzgnLCAnLW1hJywgJzIwMCcsICctaW1hZScsICc8aW5maWxlLm1hZT4nLCAnLW9tYWUnLCAnPG91dGZpbGUubWFlPic=

> <r_lp_tautomer_probability>
1

> <r_epik_Ionization_Penalty>
  0.0187

> <r_epik_Ionization_Penalty_Charging>
  0.0187

> <r_epik_Ionization_Penalty_Neutral>
  0.0000

> <r_epik_State_Penalty>
  0.0149

> <r_epik_Charging_Adjusted_Penalty>
0.0336543

> <i_epik_Tot_Q>
1

> <i_epik_Tot_abs_Q>
1

> <s_lp_Force_Field>
OPLS_2005

> <r_lp_Energy>
39.6981

> <b_lp_Chiralities_Consistent>
1

> <s_lp_Variant>
BACE_2.smi:1-1

> <chiral flag>
1

> <version>
0

> <r_i_glide_lipo>
-1.16718

> <r_i_glide_hbond>
-0.864

> <r_i_glide_metal>
-0

> <r_i_glide_rewards>
-0.0224461

> <r_i_glide_erotb>
0.187911

> <r_i_glide_esite>
-0.0353584

> <chiral flag>
1

> <s_i_glide_gridfile>
second_dock_grid_2

> <i_i_glide_lignum>
2

> <i_i_glide_rotatable_bonds>
6

> <r_i_docking_score>
-4.47059

> <r_i_glide_ligand_efficiency>
-0.111765

> <r_i_glide_ligand_efficiency_sa>
-0.38223

> <r_i_glide_ligand_efficiency_ln>
-0.953446

> <r_glide_XP_GScore>
-4.48549

> <r_i_glide_gscore>
-4.48549

> <r_i_glide_evdw>
-39.7181

> <r_i_glide_ecoul>
-8.59469

> <r_i_glide_energy>
-48.3128

> <r_i_glide_einternal>
5.06032

> <r_i_glide_emodel>
-61.7047

> <r_glide_XP_HBond>
-0.7

> <i_i_glide_confnum>
1

> <i_i_glide_posenum>
2

> <r_i_glide_eff_state_penalty>
0.0149

> <i_glide_XP_PoseRank>
1

$$$$
BACE_2.smi:1
                    3D
 Structure written by MMmdl.
 96 98  0  0  1  0            999 V2000
   20.4180   40.5382   -6.8326 C   0  0  0  0  0  0
   21.0711   41.2835   -5.8403 C   0  0  0  0  0  0
   22.2351   42.0150   -6.1540 C   0  0  0  0  0  0
   22.9652   42.8030   -5.0715 C   0  0  0  0  0  0
   22.3016   44.1654   -4.8415 C   0  0  0  0  0  0
   23.0919   42.0137   -3.7570 C   0  0  0  0  0  0
   22.7190   42.0132   -7.4825 C   0  0  0  0  0  0
   22.0618   41.2654   -8.4896 C   0  0  0  0  0  0
   20.8959   40.5284   -8.1531 C   0  0  0  0  0  0
   22.5605   41.2603   -9.9346 C   0  0  2  0  0  0
   21.9681   40.0636  -10.6950 C   0  0  0  0  0  0
   20.4509   39.9222  -10.4461 C   0  0  0  0  0  0
   20.1920   39.7682   -9.0568 O   0  0  0  0  0  0
   19.6364   41.1162  -10.9850 C   0  0  0  0  0  0
   19.9189   38.6203  -11.0609 C   0  0  0  0  0  0
   24.0418   41.2723  -10.0399 N   0  3  0  0  0  0
   24.6113   42.5804  -10.4452 C   0  0  0  0  0  0
   26.1481   42.6109  -10.3411 C   0  0  1  0  0  0
   26.6751   41.7059  -11.2876 O   0  0  0  0  0  0
   26.7556   44.0263  -10.5514 C   0  0  1  0  0  0
   28.1957   43.9978  -10.2812 N   0  0  0  0  0  0
   28.7551   44.1108   -9.0664 C   0  0  0  0  0  0
   28.0639   44.3221   -8.0687 O   0  0  0  0  0  0
   30.2865   43.8945   -8.9106 C   0  0  2  0  0  0
   30.8274   44.9236   -7.8864 C   0  0  0  0  0  0
   26.4751   44.6519  -11.9388 C   0  0  0  0  0  0
   27.0174   46.0935  -12.1471 C   0  0  2  0  0  0
   26.4591   47.0802  -11.1036 C   0  0  0  0  0  0
   26.7021   46.6184  -13.5686 C   0  0  0  0  0  0
   27.5370   45.9770  -14.6912 C   0  0  0  0  0  0
   28.9670   46.5330  -14.7863 C   0  0  0  0  0  0
   29.8888   45.7413  -15.7354 C   0  0  0  0  0  0
   30.1715   44.2855  -15.3154 C   0  0  0  0  0  0
   30.8116   44.1819  -13.9245 C   0  0  0  0  0  0
   31.2705   42.7657  -13.5476 C   0  0  0  0  0  0
   32.0188   42.7138  -12.2002 C   0  0  0  0  0  0
   31.0924   42.7858  -10.9742 C   0  0  0  0  0  0
   30.4538   41.7671  -10.6983 O   0  0  0  0  0  0
   31.0360   43.9086  -10.2017 N   0  0  0  0  0  0
   31.7331   45.1445  -10.5901 C   0  0  0  0  0  0
   22.1750   42.1698  -10.3978 H   0  0  0  0  0  0
   26.4221   42.2594   -9.3498 H   0  0  0  0  0  0
   26.2789   44.6672   -9.8108 H   0  0  0  0  0  0
   30.4586   42.9231   -8.4411 H   0  0  0  0  0  0
   28.1002   46.0776  -12.0209 H   0  0  0  0  0  0
   19.5275   39.9808   -6.5785 H   0  0  0  0  0  0
   20.6573   41.2871   -4.8443 H   0  0  0  0  0  0
   23.9804   42.9900   -5.4239 H   0  0  0  0  0  0
   22.2661   44.7465   -5.7636 H   0  0  0  0  0  0
   22.8591   44.7491   -4.1078 H   0  0  0  0  0  0
   21.2804   44.0524   -4.4742 H   0  0  0  0  0  0
   23.6049   41.0633   -3.9185 H   0  0  0  0  0  0
   22.1276   41.7999   -3.2988 H   0  0  0  0  0  0
   23.6598   42.5783   -3.0197 H   0  0  0  0  0  0
   23.5985   42.5938   -7.7125 H   0  0  0  0  0  0
   22.1685   40.1529  -11.7615 H   0  0  0  0  0  0
   22.4605   39.1507  -10.3616 H   0  0  0  0  0  0
   19.8112   41.2615  -12.0508 H   0  0  0  0  0  0
   19.8831   42.0484  -10.4743 H   0  0  0  0  0  0
   18.5682   40.9568  -10.8463 H   0  0  0  0  0  0
   20.1203   38.5801  -12.1279 H   0  0  0  0  0  0
   18.8413   38.5270  -10.9213 H   0  0  0  0  0  0
   20.3748   37.7502  -10.5849 H   0  0  0  0  0  0
   24.4293   40.9813   -9.1540 H   0  0  0  0  0  0
   24.2884   42.7896  -11.4659 H   0  0  0  0  0  0
   24.1911   43.3616   -9.8126 H   0  0  0  0  0  0
   27.5824   41.5202  -11.0727 H   0  0  0  0  0  0
   28.8036   43.8102  -11.0635 H   0  0  0  0  0  0
   30.4409   44.7137   -6.8890 H   0  0  0  0  0  0
   30.5447   45.9510   -8.1199 H   0  0  0  0  0  0
   31.9154   44.8757   -7.8083 H   0  0  0  0  0  0
   26.8908   43.9879  -12.6975 H   0  0  0  0  0  0
   25.4022   44.6677  -12.1191 H   0  0  0  0  0  0
   26.8062   48.0951  -11.2998 H   0  0  0  0  0  0
   26.7880   46.8329  -10.0949 H   0  0  0  0  0  0
   25.3686   47.0956  -11.1126 H   0  0  0  0  0  0
   25.6426   46.4594  -13.7738 H   0  0  0  0  0  0
   26.8469   47.6991  -13.6117 H   0  0  0  0  0  0
   27.0336   46.1530  -15.6408 H   0  0  0  0  0  0
   27.5500   44.8998  -14.5640 H   0  0  0  0  0  0
   28.9166   47.5671  -15.1302 H   0  0  0  0  0  0
   29.4227   46.5884  -13.7993 H   0  0  0  0  0  0
   30.8394   46.2695  -15.8063 H   0  0  0  0  0  0
   29.4757   45.7511  -16.7438 H   0  0  0  0  0  0
   29.2646   43.6833  -15.3492 H   0  0  0  0  0  0
   30.8425   43.8417  -16.0524 H   0  0  0  0  0  0
   30.1063   44.5350  -13.1718 H   0  0  0  0  0  0
   31.6728   44.8504  -13.8946 H   0  0  0  0  0  0
   30.4122   42.0875  -13.5303 H   0  0  0  0  0  0
   31.9320   42.3835  -14.3282 H   0  0  0  0  0  0
   32.8284   43.4419  -12.1698 H   0  0  0  0  0  0
   32.5222   41.7491  -12.1482 H   0  0  0  0  0  0
   31.3071   46.0415  -10.1398 H   0  0  0  0  0  0
   31.6827   45.3354  -11.6604 H   0  0  0  0  0  0
   32.7876   45.0912  -10.3061 H   0  0  0  0  0  0
   24.3303   40.6004  -10.7375 H   0  0  0  0  0  0
  1  9  1  0  0  0
  1  2  2  0  0  0
  1 46  1  0  0  0
  2  3  1  0  0  0
  2 47  1  0  0  0
  3  4  1  0  0  0
  3  7  2  0  0  0
  4  5  1  0  0  0
  4  6  1  0  0  0
  4 48  1  0  0  0
  5 49  1  0  0  0
  5 50  1  0  0  0
  5 51  1  0  0  0
  6 52  1  0  0  0
  6 53  1  0  0  0
  6 54  1  0  0  0
  7  8  1  0  0  0
  7 55  1  0  0  0
  8  9  2  0  0  0
  8 10  1  0  0  0
  9 13  1  0  0  0
 10 41  1  0  0  0
 10 11  1  0  0  0
 10 16  1  0  0  0
 11 12  1  0  0  0
 11 56  1  0  0  0
 11 57  1  0  0  0
 12 13  1  0  0  0
 12 14  1  0  0  0
 12 15  1  0  0  0
 14 58  1  0  0  0
 14 59  1  0  0  0
 14 60  1  0  0  0
 15 61  1  0  0  0
 15 62  1  0  0  0
 15 63  1  0  0  0
 16 17  1  0  0  0
 16 64  1  0  0  0
 16 96  1  0  0  0
 17 18  1  0  0  0
 17 65  1  0  0  0
 17 66  1  0  0  0
 18 42  1  0  0  0
 18 19  1  0  0  0
 18 20  1  0  0  0
 19 67  1  0  0  0
 20 43  1  0  0  0
 20 21  1  0  0  0
 20 26  1  0  0  0
 21 22  1  0  0  0
 21 68  1  0  0  0
 22 23  2  0  0  0
 22 24  1  0  0  0
 24 44  1  0  0  0
 24 39  1  0  0  0
 24 25  1  0  0  0
 25 69  1  0  0  0
 25 70  1  0  0  0
 25 71  1  0  0  0
 26 27  1  0  0  0
 26 72  1  0  0  0
 26 73  1  0  0  0
 27 45  1  0  0  0
 27 28  1  0  0  0
 27 29  1  0  0  0
 28 74  1  0  0  0
 28 75  1  0  0  0
 28 76  1  0  0  0
 29 30  1  0  0  0
 29 77  1  0  0  0
 29 78  1  0  0  0
 30 31  1  0  0  0
 30 79  1  0  0  0
 30 80  1  0  0  0
 31 32  1  0  0  0
 31 81  1  0  0  0
 31 82  1  0  0  0
 32 33  1  0  0  0
 32 83  1  0  0  0
 32 84  1  0  0  0
 33 34  1  0  0  0
 33 85  1  0  0  0
 33 86  1  0  0  0
 34 35  1  0  0  0
 34 87  1  0  0  0
 34 88  1  0  0  0
 35 36  1  0  0  0
 35 89  1  0  0  0
 35 90  1  0  0  0
 36 37  1  0  0  0
 36 91  1  0  0  0
 36 92  1  0  0  0
 37 38  2  0  0  0
 37 39  1  0  0  0
 39 40  1  0  0  0
 40 93  1  0  0  0
 40 94  1  0  0  0
 40 95  1  0  0  0
M  CHG  1  16   1
M  END
> <s_m_source_file>
BACE_2.smi

> <i_m_source_file_index>
1

> <i_lp_mmshare_version>
42013

> <i_f3d_flags>
0

> <s_epik_input>
W0NIM11bQ0hdKFtDSDNdKWMoW2NIXTEpW2NIXVtjSF1jKGMxMilPQyhbQ0gzXSkoW0NIM10pW0NIMl1bQ0BASF0yW05IXVtDSDJdW0NAQEhdKFtPSF0pW0NASF0zW05IXUMoPU8pW0NASF0oW0NIM10pTihbQ0gzXSlDKD1PKVtDSDJdW0NIMl1bQ0gyXVtDSDJdW0NIMl1bQ0gyXVtDSDJdW0NIMl1bQ0BIXShbQ0gyXTMpW0NIM10=

> <s_epik_cmdline>
J2VwaWtfcHl0aG9uJywgJy1waCcsICc3LjAnLCAnLXRuJywgJzgnLCAnLW1hJywgJzIwMCcsICctaW1hZScsICc8aW5maWxlLm1hZT4nLCAnLW9tYWUnLCAnPG91dGZpbGUubWFlPic=

> <r_lp_tautomer_probability>
1

> <r_epik_Ionization_Penalty>
  0.0187

> <r_epik_Ionization_Penalty_Charging>
  0.0187

> <r_epik_Ionization_Penalty_Neutral>
  0.0000

> <r_epik_State_Penalty>
  0.0149

> <r_epik_Charging_Adjusted_Penalty>
0.0336543

> <i_epik_Tot_Q>
1

> <i_epik_Tot_abs_Q>
1

> <s_lp_Force_Field>
OPLS_2005

> <r_lp_Energy>
39.6981

> <b_lp_Chiralities_Consistent>
1

> <s_lp_Variant>
BACE_2.smi:1-1

> <chiral flag>
1

> <version>
0

> <r_i_glide_lipo>
-1.16718

> <r_i_glide_hbond>
-0.864

> <r_i_glide_metal>
-0

> <r_i_glide_rewards>
-0.0224461

> <r_i_glide_erotb>
0.187911

> <r_i_glide_esite>
-0.0353584

> <chiral flag>
1

> <s_i_glide_gridfile>
second_dock_grid_2

> <i_i_glide_lignum>
2

> <i_i_glide_rotatable_bonds>
6

> <r_i_docking_score>
-3.81282

> <r_i_glide_ligand_efficiency>
-0.0953204

> <r_i_glide_ligand_efficiency_sa>
-0.325991

> <r_i_glide_ligand_efficiency_ln>
-0.813162

> <r_glide_XP_GScore>
-3.82772

> <r_i_glide_gscore>
-3.82772

> <r_i_glide_evdw>
-32.8109

> <r_i_glide_ecoul>
-5.47749

> <r_i_glide_energy>
-38.2884

> <r_i_glide_einternal>
3.41076

> <r_i_glide_emodel>
-54.9013

> <r_glide_XP_HBond>
-0.7

> <i_i_glide_confnum>
1

> <i_i_glide_posenum>
14

> <r_i_glide_eff_state_penalty>
0.0149

> <i_glide_XP_PoseRank>
2

$$$$
BACE_2.smi:1
                    3D
 Structure written by MMmdl.
 96 98  0  0  1  0            999 V2000
   19.7545   39.2436   -7.9415 C   0  0  0  0  0  0
   19.9276   39.4886   -6.5654 C   0  0  0  0  0  0
   20.9311   40.3740   -6.1287 C   0  0  0  0  0  0
   21.1187   40.6392   -4.6417 C   0  0  0  0  0  0
   22.4212   40.0206   -4.1036 C   0  0  0  0  0  0
   21.0123   42.1368   -4.3032 C   0  0  0  0  0  0
   21.7644   41.0101   -7.0684 C   0  0  0  0  0  0
   21.5945   40.7653   -8.4468 C   0  0  0  0  0  0
   20.5758   39.8842   -8.8905 C   0  0  0  0  0  0
   22.5096   41.4460   -9.4484 C   0  0  2  0  0  0
   22.4062   40.7994  -10.8322 C   0  0  0  0  0  0
   20.9382   40.5123  -11.1640 C   0  0  0  0  0  0
   20.3724   39.6019  -10.2232 O   0  0  0  0  0  0
   20.1256   41.8039  -11.1782 C   0  0  0  0  0  0
   20.8253   39.9044  -12.5592 C   0  0  0  0  0  0
   23.9010   41.4132   -8.9721 N   0  3  0  0  0  0
   24.5754   42.7195   -8.7722 C   0  0  0  0  0  0
   23.7860   43.6867   -7.8554 C   0  0  1  0  0  0
   23.3234   42.9731   -6.7232 O   0  0  0  0  0  0
   24.6242   44.9180   -7.3938 C   0  0  1  0  0  0
   23.7773   45.8780   -6.6743 N   0  0  0  0  0  0
   23.8649   47.2077   -6.6783 C   0  0  0  0  0  0
   24.7534   47.8161   -7.2516 O   0  0  0  0  0  0
   22.7429   47.9538   -5.9215 C   0  0  2  0  0  0
   21.7630   48.6101   -6.8898 C   0  0  0  0  0  0
   25.8791   44.5613   -6.5431 C   0  0  0  0  0  0
   27.1484   45.3418   -6.9446 C   0  0  2  0  0  0
   27.4954   44.9882   -8.3879 C   0  0  0  0  0  0
   28.3816   45.0495   -6.0626 C   0  0  0  0  0  0
   28.3021   45.5717   -4.6110 C   0  0  0  0  0  0
   28.1300   47.0993   -4.5095 C   0  0  0  0  0  0
   28.2158   47.6328   -3.0663 C   0  0  0  0  0  0
   28.0514   49.1658   -2.9612 C   0  0  0  0  0  0
   26.6494   49.6991   -3.3271 C   0  0  0  0  0  0
   25.5685   49.3971   -2.2677 C   0  0  0  0  0  0
   24.1268   49.6659   -2.7623 C   0  0  0  0  0  0
   23.5747   48.5691   -3.6801 C   0  0  0  0  0  0
   23.4148   47.4438   -3.2370 O   0  0  0  0  0  0
   23.2805   48.9217   -4.9408 N   0  0  0  0  0  0
   23.5374   50.2904   -5.3412 C   0  0  0  0  0  0
   22.2201   42.4950   -9.5097 H   0  0  0  0  0  0
   22.9151   44.0399   -8.4092 H   0  0  0  0  0  0
   24.9734   45.4165   -8.2980 H   0  0  0  0  0  0
   22.1625   47.2031   -5.3850 H   0  0  0  0  0  0
   26.9480   46.4132   -6.9580 H   0  0  0  0  0  0
   18.9836   38.5623   -8.2699 H   0  0  0  0  0  0
   19.2904   38.9964   -5.8456 H   0  0  0  0  0  0
   20.3012   40.1447   -4.1154 H   0  0  0  0  0  0
   22.4540   38.9474   -4.2949 H   0  0  0  0  0  0
   22.5042   40.1599   -3.0252 H   0  0  0  0  0  0
   23.3055   40.4669   -4.5591 H   0  0  0  0  0  0
   20.0577   42.5469   -4.6346 H   0  0  0  0  0  0
   21.8055   42.7201   -4.7715 H   0  0  0  0  0  0
   21.0790   42.3005   -3.2271 H   0  0  0  0  0  0
   22.5366   41.6839   -6.7275 H   0  0  0  0  0  0
   22.8617   41.4402  -11.5871 H   0  0  0  0  0  0
   22.9601   39.8607  -10.8425 H   0  0  0  0  0  0
   20.5149   42.5078  -11.9147 H   0  0  0  0  0  0
   20.1237   42.3117  -10.2141 H   0  0  0  0  0  0
   19.0834   41.6092  -11.4341 H   0  0  0  0  0  0
   21.2496   40.5626  -13.3184 H   0  0  0  0  0  0
   19.7849   39.7194  -12.8292 H   0  0  0  0  0  0
   21.3480   38.9493  -12.6227 H   0  0  0  0  0  0
   23.8852   40.9508   -8.0743 H   0  0  0  0  0  0
   25.6077   42.5856   -8.4457 H   0  0  0  0  0  0
   24.6346   43.1562   -9.7695 H   0  0  0  0  0  0
   24.0721   42.6855   -6.2235 H   0  0  0  0  0  0
   23.0030   45.4865   -6.1572 H   0  0  0  0  0  0
   21.3515   47.8829   -7.5911 H   0  0  0  0  0  0
   22.2339   49.4010   -7.4747 H   0  0  0  0  0  0
   20.9201   49.0537   -6.3587 H   0  0  0  0  0  0
   25.6617   44.6913   -5.4829 H   0  0  0  0  0  0
   26.0867   43.4978   -6.6610 H   0  0  0  0  0  0
   28.3984   45.4983   -8.7221 H   0  0  0  0  0  0
   26.7046   45.2779   -9.0788 H   0  0  0  0  0  0
   27.6624   43.9172   -8.5087 H   0  0  0  0  0  0
   28.5389   43.9714   -6.0330 H   0  0  0  0  0  0
   29.2718   45.4560   -6.5425 H   0  0  0  0  0  0
   29.1860   45.2633   -4.0526 H   0  0  0  0  0  0
   27.4607   45.0848   -4.1180 H   0  0  0  0  0  0
   28.8853   47.5931   -5.1209 H   0  0  0  0  0  0
   27.1648   47.3695   -4.9378 H   0  0  0  0  0  0
   29.1857   47.3605   -2.6501 H   0  0  0  0  0  0
   27.4793   47.1291   -2.4402 H   0  0  0  0  0  0
   28.3036   49.4881   -1.9510 H   0  0  0  0  0  0
   28.7906   49.6409   -3.6062 H   0  0  0  0  0  0
   26.3485   49.3144   -4.3016 H   0  0  0  0  0  0
   26.7073   50.7795   -3.4589 H   0  0  0  0  0  0
   25.6475   48.3699   -1.9117 H   0  0  0  0  0  0
   25.7655   50.0150   -1.3916 H   0  0  0  0  0  0
   24.0640   50.6435   -3.2403 H   0  0  0  0  0  0
   23.4519   49.7212   -1.9083 H   0  0  0  0  0  0
   23.1524   50.5343   -6.3294 H   0  0  0  0  0  0
   24.6069   50.5038   -5.3514 H   0  0  0  0  0  0
   23.0443   50.9944   -4.6695 H   0  0  0  0  0  0
   24.4547   40.8510   -9.6024 H   0  0  0  0  0  0
  1  9  1  0  0  0
  1  2  2  0  0  0
  1 46  1  0  0  0
  2  3  1  0  0  0
  2 47  1  0  0  0
  3  4  1  0  0  0
  3  7  2  0  0  0
  4  5  1  0  0  0
  4  6  1  0  0  0
  4 48  1  0  0  0
  5 49  1  0  0  0
  5 50  1  0  0  0
  5 51  1  0  0  0
  6 52  1  0  0  0
  6 53  1  0  0  0
  6 54  1  0  0  0
  7  8  1  0  0  0
  7 55  1  0  0  0
  8  9  2  0  0  0
  8 10  1  0  0  0
  9 13  1  0  0  0
 10 41  1  0  0  0
 10 11  1  0  0  0
 10 16  1  0  0  0
 11 12  1  0  0  0
 11 56  1  0  0  0
 11 57  1  0  0  0
 12 13  1  0  0  0
 12 14  1  0  0  0
 12 15  1  0  0  0
 14 58  1  0  0  0
 14 59  1  0  0  0
 14 60  1  0  0  0
 15 61  1  0  0  0
 15 62  1  0  0  0
 15 63  1  0  0  0
 16 17  1  0  0  0
 16 64  1  0  0  0
 16 96  1  0  0  0
 17 18  1  0  0  0
 17 65  1  0  0  0
 17 66  1  0  0  0
 18 42  1  0  0  0
 18 19  1  0  0  0
 18 20  1  0  0  0
 19 67  1  0  0  0
 20 43  1  0  0  0
 20 21  1  0  0  0
 20 26  1  0  0  0
 21 22  1  0  0  0
 21 68  1  0  0  0
 22 23  2  0  0  0
 22 24  1  0  0  0
 24 44  1  0  0  0
 24 39  1  0  0  0
 24 25  1  0  0  0
 25 69  1  0  0  0
 25 70  1  0  0  0
 25 71  1  0  0  0
 26 27  1  0  0  0
 26 72  1  0  0  0
 26 73  1  0  0  0
 27 45  1  0  0  0
 27 28  1  0  0  0
 27 29  1  0  0  0
 28 74  1  0  0  0
 28 75  1  0  0  0
 28 76  1  0  0  0
 29 30  1  0  0  0
 29 77  1  0  0  0
 29 78  1  0  0  0
 30 31  1  0  0  0
 30 79  1  0  0  0
 30 80  1  0  0  0
 31 32  1  0  0  0
 31 81  1  0  0  0
 31 82  1  0  0  0
 32 33  1  0  0  0
 32 83  1  0  0  0
 32 84  1  0  0  0
 33 34  1  0  0  0
 33 85  1  0  0  0
 33 86  1  0  0  0
 34 35  1  0  0  0
 34 87  1  0  0  0
 34 88  1  0  0  0
 35 36  1  0  0  0
 35 89  1  0  0  0
 35 90  1  0  0  0
 36 37  1  0  0  0
 36 91  1  0  0  0
 36 92  1  0  0  0
 37 38  2  0  0  0
 37 39  1  0  0  0
 39 40  1  0  0  0
 40 93  1  0  0  0
 40 94  1  0  0  0
 40 95  1  0  0  0
M  CHG  1  16   1
M  END
> <s_m_source_file>
BACE_2.smi

> <i_m_source_file_index>
1

> <i_lp_mmshare_version>
42013

> <i_f3d_flags>
0

> <s_epik_input>
W0NIM11bQ0hdKFtDSDNdKWMoW2NIXTEpW2NIXVtjSF1jKGMxMilPQyhbQ0gzXSkoW0NIM10pW0NIMl1bQ0BASF0yW05IXVtDSDJdW0NAQEhdKFtPSF0pW0NASF0zW05IXUMoPU8pW0NASF0oW0NIM10pTihbQ0gzXSlDKD1PKVtDSDJdW0NIMl1bQ0gyXVtDSDJdW0NIMl1bQ0gyXVtDSDJdW0NIMl1bQ0BIXShbQ0gyXTMpW0NIM10=

> <s_epik_cmdline>
J2VwaWtfcHl0aG9uJywgJy1waCcsICc3LjAnLCAnLXRuJywgJzgnLCAnLW1hJywgJzIwMCcsICctaW1hZScsICc8aW5maWxlLm1hZT4nLCAnLW9tYWUnLCAnPG91dGZpbGUubWFlPic=

> <r_lp_tautomer_probability>
1

> <r_epik_Ionization_Penalty>
  0.0187

> <r_epik_Ionization_Penalty_Charging>
  0.0187

> <r_epik_Ionization_Penalty_Neutral>
  0.0000

> <r_epik_State_Penalty>
  0.0149

> <r_epik_Charging_Adjusted_Penalty>
0.0336543

> <i_epik_Tot_Q>
1

> <i_epik_Tot_abs_Q>
1

> <s_lp_Force_Field>
OPLS_2005

> <r_lp_Energy>
39.6981

> <b_lp_Chiralities_Consistent>
1

> <s_lp_Variant>
BACE_2.smi:1-1

> <chiral flag>
1

> <version>
0

> <r_i_glide_lipo>
-1.16718

> <r_i_glide_hbond>
-0.864

> <r_i_glide_metal>
-0

> <r_i_glide_rewards>
-0.0224461

> <r_i_glide_erotb>
0.187911

> <r_i_glide_esite>
-0.0353584

> <chiral flag>
1

> <s_i_glide_gridfile>
second_dock_grid_2

> <i_i_glide_lignum>
2

> <i_i_glide_rotatable_bonds>
6

> <r_i_docking_score>
-1.37176

> <r_i_glide_ligand_efficiency>
-0.034294

> <r_i_glide_ligand_efficiency_sa>
-0.117284

> <r_i_glide_ligand_efficiency_ln>
-0.292556

> <r_glide_XP_GScore>
-1.38666

> <r_i_glide_gscore>
-1.38666

> <r_i_glide_evdw>
-35.3757

> <r_i_glide_ecoul>
-4.51944

> <r_i_glide_energy>
-39.8951

> <r_i_glide_einternal>
4.87455

> <r_i_glide_emodel>
-55.6277

> <r_glide_XP_HBond>
-0.7

> <i_i_glide_confnum>
1

> <i_i_glide_posenum>
8

> <r_i_glide_eff_state_penalty>
0.0149

> <i_glide_XP_PoseRank>
3

$$$$
BACE_2.smi:1
                    3D
 Structure written by MMmdl.
 96 98  0  0  1  0            999 V2000
   19.6636   39.2560   -7.9177 C   0  0  0  0  0  0
   19.8443   39.5011   -6.5426 C   0  0  0  0  0  0
   20.8544   40.3816   -6.1113 C   0  0  0  0  0  0
   21.0504   40.6470   -4.6255 C   0  0  0  0  0  0
   22.3548   40.0267   -4.0941 C   0  0  0  0  0  0
   20.9480   42.1449   -4.2869 C   0  0  0  0  0  0
   21.6866   41.0127   -7.0554 C   0  0  0  0  0  0
   21.5090   40.7677   -8.4328 C   0  0  0  0  0  0
   20.4837   39.8915   -8.8710 C   0  0  0  0  0  0
   22.4229   41.4429   -9.4393 C   0  0  2  0  0  0
   22.3096   40.7957  -10.8220 C   0  0  0  0  0  0
   20.8386   40.5160  -11.1468 C   0  0  0  0  0  0
   20.2725   39.6093  -10.2025 O   0  0  0  0  0  0
   20.0326   41.8118  -11.1581 C   0  0  0  0  0  0
   20.7160   39.9076  -12.5409 C   0  0  0  0  0  0
   23.8163   41.4032   -8.9694 N   0  3  0  0  0  0
   24.4983   42.7063   -8.7734 C   0  0  0  0  0  0
   23.7323   43.6670   -7.8302 C   0  0  1  0  0  0
   23.2803   42.9409   -6.7016 O   0  0  0  0  0  0
   24.5890   44.8834   -7.3637 C   0  0  1  0  0  0
   23.7517   45.8655   -6.6628 N   0  0  0  0  0  0
   23.8671   47.1930   -6.6737 C   0  0  0  0  0  0
   24.7766   47.7791   -7.2373 O   0  0  0  0  0  0
   22.7499   47.9671   -5.9383 C   0  0  2  0  0  0
   21.7984   48.6375   -6.9253 C   0  0  0  0  0  0
   25.8234   44.5062   -6.4921 C   0  0  0  0  0  0
   27.1145   45.2576   -6.8793 C   0  0  2  0  0  0
   27.4755   44.8875   -8.3151 C   0  0  0  0  0  0
   28.3281   44.9454   -5.9771 C   0  0  0  0  0  0
   28.2380   45.4784   -4.5301 C   0  0  0  0  0  0
   28.0964   47.0099   -4.4405 C   0  0  0  0  0  0
   28.1719   47.5507   -2.9995 C   0  0  0  0  0  0
   28.0380   49.0875   -2.9063 C   0  0  0  0  0  0
   26.6530   49.6474   -3.2964 C   0  0  0  0  0  0
   25.5504   49.3748   -2.2515 C   0  0  0  0  0  0
   24.1222   49.6704   -2.7693 C   0  0  0  0  0  0
   23.5610   48.5794   -3.6886 C   0  0  0  0  0  0
   23.3710   47.4605   -3.2410 O   0  0  0  0  0  0
   23.2929   48.9299   -4.9556 N   0  0  0  0  0  0
   23.5843   50.2904   -5.3605 C   0  0  0  0  0  0
   22.1385   42.4933   -9.5000 H   0  0  0  0  0  0
   22.8563   44.0363   -8.3653 H   0  0  0  0  0  0
   24.9619   45.3688   -8.2656 H   0  0  0  0  0  0
   22.1460   47.2322   -5.4060 H   0  0  0  0  0  0
   26.9368   46.3327   -6.9023 H   0  0  0  0  0  0
   18.8876   38.5784   -8.2419 H   0  0  0  0  0  0
   19.2080   39.0128   -5.8195 H   0  0  0  0  0  0
   20.2350   40.1539   -4.0946 H   0  0  0  0  0  0
   22.3851   38.9534   -4.2853 H   0  0  0  0  0  0
   22.4439   40.1663   -3.0163 H   0  0  0  0  0  0
   23.2373   40.4716   -4.5546 H   0  0  0  0  0  0
   19.9922   42.5563   -4.6133 H   0  0  0  0  0  0
   21.7395   42.7269   -4.7596 H   0  0  0  0  0  0
   21.0207   42.3088   -3.2112 H   0  0  0  0  0  0
   22.4638   41.6827   -6.7187 H   0  0  0  0  0  0
   22.7649   41.4336  -11.5796 H   0  0  0  0  0  0
   22.8586   39.8542  -10.8342 H   0  0  0  0  0  0
   20.4222   42.5131  -11.8970 H   0  0  0  0  0  0
   20.0379   42.3204  -10.1945 H   0  0  0  0  0  0
   18.9883   41.6223  -11.4090 H   0  0  0  0  0  0
   21.1401   40.5630  -13.3026 H   0  0  0  0  0  0
   19.6734   39.7278  -12.8059 H   0  0  0  0  0  0
   21.2335   38.9497  -12.6061 H   0  0  0  0  0  0
   23.8024   40.9413   -8.0714 H   0  0  0  0  0  0
   25.5374   42.5671   -8.4716 H   0  0  0  0  0  0
   24.5358   43.1517   -9.7678 H   0  0  0  0  0  0
   22.7791   43.5233   -6.1515 H   0  0  0  0  0  0
   22.9619   45.4935   -6.1551 H   0  0  0  0  0  0
   21.3823   47.9145   -7.6282 H   0  0  0  0  0  0
   22.2944   49.4146   -7.5078 H   0  0  0  0  0  0
   20.9572   49.1019   -6.4096 H   0  0  0  0  0  0
   25.5931   44.6475   -5.4362 H   0  0  0  0  0  0
   26.0105   43.4379   -6.6004 H   0  0  0  0  0  0
   28.3938   45.3766   -8.6388 H   0  0  0  0  0  0
   26.7013   45.1892   -9.0195 H   0  0  0  0  0  0
   27.6219   43.8126   -8.4268 H   0  0  0  0  0  0
   28.4624   43.8643   -5.9386 H   0  0  0  0  0  0
   29.2337   45.3301   -6.4462 H   0  0  0  0  0  0
   29.1069   45.1552   -3.9567 H   0  0  0  0  0  0
   27.3794   45.0122   -4.0468 H   0  0  0  0  0  0
   28.8709   47.4838   -5.0435 H   0  0  0  0  0  0
   27.1435   47.2973   -4.8849 H   0  0  0  0  0  0
   29.1296   47.2609   -2.5672 H   0  0  0  0  0  0
   27.4158   47.0665   -2.3814 H   0  0  0  0  0  0
   28.2819   49.4109   -1.8944 H   0  0  0  0  0  0
   28.7964   49.5429   -3.5430 H   0  0  0  0  0  0
   26.3586   49.2628   -4.2729 H   0  0  0  0  0  0
   26.7355   50.7256   -3.4340 H   0  0  0  0  0  0
   25.6026   48.3485   -1.8881 H   0  0  0  0  0  0
   25.7472   49.9940   -1.3763 H   0  0  0  0  0  0
   24.0869   50.6460   -3.2541 H   0  0  0  0  0  0
   23.4359   49.7451   -1.9258 H   0  0  0  0  0  0
   23.2192   50.5359   -6.3559 H   0  0  0  0  0  0
   24.6580   50.4814   -5.3559 H   0  0  0  0  0  0
   23.0962   51.0088   -4.7006 H   0  0  0  0  0  0
   24.3642   40.8379   -9.6021 H   0  0  0  0  0  0
  1  9  1  0  0  0
  1  2  2  0  0  0
  1 46  1  0  0  0
  2  3  1  0  0  0
  2 47  1  0  0  0
  3  4  1  0  0  0
  3  7  2  0  0  0
  4  5  1  0  0  0
  4  6  1  0  0  0
  4 48  1  0  0  0
  5 49  1  0  0  0
  5 50  1  0  0  0
  5 51  1  0  0  0
  6 52  1  0  0  0
  6 53  1  0  0  0
  6 54  1  0  0  0
  7  8  1  0  0  0
  7 55  1  0  0  0
  8  9  2  0  0  0
  8 10  1  0  0  0
  9 13  1  0  0  0
 10 41  1  0  0  0
 10 11  1  0  0  0
 10 16  1  0  0  0
 11 12  1  0  0  0
 11 56  1  0  0  0
 11 57  1  0  0  0
 12 13  1  0  0  0
 12 14  1  0  0  0
 12 15  1  0  0  0
 14 58  1  0  0  0
 14 59  1  0  0  0
 14 60  1  0  0  0
 15 61  1  0  0  0
 15 62  1  0  0  0
 15 63  1  0  0  0
 16 17  1  0  0  0
 16 64  1  0  0  0
 16 96  1  0  0  0
 17 18  1  0  0  0
 17 65  1  0  0  0
 17 66  1  0  0  0
 18 42  1  0  0  0
 18 19  1  0  0  0
 18 20  1  0  0  0
 19 67  1  0  0  0
 20 43  1  0  0  0
 20 21  1  0  0  0
 20 26  1  0  0  0
 21 22  1  0  0  0
 21 68  1  0  0  0
 22 23  2  0  0  0
 22 24  1  0  0  0
 24 44  1  0  0  0
 24 39  1  0  0  0
 24 25  1  0  0  0
 25 69  1  0  0  0
 25 70  1  0  0  0
 25 71  1  0  0  0
 26 27  1  0  0  0
 26 72  1  0  0  0
 26 73  1  0  0  0
 27 45  1  0  0  0
 27 28  1  0  0  0
 27 29  1  0  0  0
 28 74  1  0  0  0
 28 75  1  0  0  0
 28 76  1  0  0  0
 29 30  1  0  0  0
 29 77  1  0  0  0
 29 78  1  0  0  0
 30 31  1  0  0  0
 30 79  1  0  0  0
 30 80  1  0  0  0
 31 32  1  0  0  0
 31 81  1  0  0  0
 31 82  1  0  0  0
 32 33  1  0  0  0
 32 83  1  0  0  0
 32 84  1  0  0  0
 33 34  1  0  0  0
 33 85  1  0  0  0
 33 86  1  0  0  0
 34 35  1  0  0  0
 34 87  1  0  0  0
 34 88  1  0  0  0
 35 36  1  0  0  0
 35 89  1  0  0  0
 35 90  1  0  0  0
 36 37  1  0  0  0
 36 91  1  0  0  0
 36 92  1  0  0  0
 37 38  2  0  0  0
 37 39  1  0  0  0
 39 40  1  0  0  0
 40 93  1  0  0  0
 40 94  1  0  0  0
 40 95  1  0  0  0
M  CHG  1  16   1
M  END
> <s_m_source_file>
BACE_2.smi

> <i_m_source_file_index>
1

> <i_lp_mmshare_version>
42013

> <i_f3d_flags>
0

> <s_epik_input>
W0NIM11bQ0hdKFtDSDNdKWMoW2NIXTEpW2NIXVtjSF1jKGMxMilPQyhbQ0gzXSkoW0NIM10pW0NIMl1bQ0BASF0yW05IXVtDSDJdW0NAQEhdKFtPSF0pW0NASF0zW05IXUMoPU8pW0NASF0oW0NIM10pTihbQ0gzXSlDKD1PKVtDSDJdW0NIMl1bQ0gyXVtDSDJdW0NIMl1bQ0gyXVtDSDJdW0NIMl1bQ0BIXShbQ0gyXTMpW0NIM10=

> <s_epik_cmdline>
J2VwaWtfcHl0aG9uJywgJy1waCcsICc3LjAnLCAnLXRuJywgJzgnLCAnLW1hJywgJzIwMCcsICctaW1hZScsICc8aW5maWxlLm1hZT4nLCAnLW9tYWUnLCAnPG91dGZpbGUubWFlPic=

> <r_lp_tautomer_probability>
1

> <r_epik_Ionization_Penalty>
  0.0187

> <r_epik_Ionization_Penalty_Charging>
  0.0187

> <r_epik_Ionization_Penalty_Neutral>
  0.0000

> <r_epik_State_Penalty>
  0.0149

> <r_epik_Charging_Adjusted_Penalty>
0.0336543

> <i_epik_Tot_Q>
1

> <i_epik_Tot_abs_Q>
1

> <s_lp_Force_Field>
OPLS_2005

> <r_lp_Energy>
39.6981

> <b_lp_Chiralities_Consistent>
1

> <s_lp_Variant>
BACE_2.smi:1-1

> <chiral flag>
1

> <version>
0

> <r_i_glide_lipo>
-1.16718

> <r_i_glide_hbond>
-0.864

> <r_i_glide_metal>
-0

> <r_i_glide_rewards>
-0.0224461

> <r_i_glide_erotb>
0.187911

> <r_i_glide_esite>
-0.0353584

> <chiral flag>
1

> <s_i_glide_gridfile>
second_dock_grid_2

> <i_i_glide_lignum>
2

> <i_i_glide_rotatable_bonds>
6

> <r_i_docking_score>
-1.37011

> <r_i_glide_ligand_efficiency>
-0.0342528

> <r_i_glide_ligand_efficiency_sa>
-0.117143

> <r_i_glide_ligand_efficiency_ln>
-0.292205

> <r_glide_XP_GScore>
-1.38501

> <r_i_glide_gscore>
-1.38501

> <r_i_glide_evdw>
-35.2472

> <r_i_glide_ecoul>
-4.70743

> <r_i_glide_energy>
-39.9546

> <r_i_glide_einternal>
5.15227

> <r_i_glide_emodel>
-55.5025

> <r_glide_XP_HBond>
-0.7

> <i_i_glide_confnum>
1

> <i_i_glide_posenum>
9

> <r_i_glide_eff_state_penalty>
0.0149

> <i_glide_XP_PoseRank>
4

$$$$
