BACE_5.smi:1
                    3D
 Structure written by MMmdl.
 79 80  0  0  1  0            999 V2000
   30.9516   41.7783  -13.6541 C   0  0  0  0  0  0
   29.5434   41.5290  -13.1032 C   0  0  0  0  0  0
   29.0379   42.6875  -12.2287 C   0  0  0  0  0  0
   27.6696   42.4813  -11.6588 C   0  0  0  0  0  0
   26.5586   43.2793  -11.6559 C   0  0  0  0  0  0
   25.5864   42.5407  -10.9159 C   0  0  0  0  0  0
   26.0613   41.3797  -10.4944 N   0  0  0  0  0  0
   27.3173   41.3500  -10.9609 N   0  0  0  0  0  0
   24.1722   42.9396  -10.5848 C   0  0  0  0  0  0
   23.1845   41.8861  -10.8400 N   0  0  0  0  0  0
   22.9959   40.9598   -9.7140 C   0  0  0  0  0  0
   21.8330   39.9659   -9.9458 C   0  0  2  0  0  0
   20.4348   40.5593   -9.6158 C   0  0  2  0  0  0
   19.2735   39.5591   -9.8704 C   0  0  0  0  0  0
   18.2657   39.4443   -8.6983 C   0  0  1  0  0  0
   16.9787   38.6869   -9.0994 C   0  0  0  0  0  0
   16.0752   39.3841  -10.1343 C   0  0  0  0  0  0
   15.5020   40.7340   -9.6640 C   0  0  0  0  0  0
   14.4804   41.3058  -10.6595 C   0  0  0  0  0  0
   13.8986   42.6687  -10.2475 C   0  0  0  0  0  0
   14.8681   43.8399  -10.4546 C   0  0  0  0  0  0
   14.9803   44.1292  -11.8454 O   0  0  0  0  0  0
   15.9909   45.0758  -12.1865 C   0  0  0  0  0  0
   17.3781   44.4102  -12.1293 C   0  0  0  0  0  0
   17.6267   43.5736  -13.0009 O   0  0  0  0  0  0
   18.2606   44.7340  -11.1445 N   0  0  0  0  0  0
   19.5552   44.0178  -11.0611 C   0  0  2  0  0  0
   19.4640   42.8211  -10.0984 C   0  0  0  0  0  0
   18.7300   42.8565   -9.1114 O   0  0  0  0  0  0
   20.2452   41.7762  -10.3982 N   0  0  0  0  0  0
   20.7066   44.9463  -10.6102 C   0  0  0  0  0  0
   17.9402   45.7198  -10.0973 C   0  0  0  0  0  0
   18.9000   38.7583   -7.4731 C   0  0  0  0  0  0
   22.0592   38.8707   -9.0823 O   0  0  0  0  0  0
   27.8944   40.5154  -10.8404 H   0  0  0  0  0  0
   21.8597   39.5886  -10.9711 H   0  0  0  0  0  0
   20.4452   40.8536   -8.5653 H   0  0  0  0  0  0
   17.9837   40.4468   -8.3809 H   0  0  0  0  0  0
   19.8433   43.6379  -12.0399 H   0  0  0  0  0  0
   31.2699   40.9498  -14.2871 H   0  0  0  0  0  0
   31.6781   41.8757  -12.8458 H   0  0  0  0  0  0
   30.9863   42.6869  -14.2566 H   0  0  0  0  0  0
   29.5559   40.6012  -12.5286 H   0  0  0  0  0  0
   28.8600   41.3706  -13.9379 H   0  0  0  0  0  0
   29.0451   43.6074  -12.8149 H   0  0  0  0  0  0
   29.7397   42.8513  -11.4099 H   0  0  0  0  0  0
   26.4543   44.2528  -12.1092 H   0  0  0  0  0  0
   23.9171   43.8043  -11.1969 H   0  0  0  0  0  0
   24.1079   43.2842   -9.5524 H   0  0  0  0  0  0
   23.5177   41.3497  -11.6478 H   0  0  0  0  0  0
   22.8169   41.5115   -8.7890 H   0  0  0  0  0  0
   23.9141   40.3983   -9.5535 H   0  0  0  0  0  0
   18.7578   39.8484  -10.7851 H   0  0  0  0  0  0
   19.6682   38.5662  -10.0856 H   0  0  0  0  0  0
   17.2484   37.7001   -9.4765 H   0  0  0  0  0  0
   16.3807   38.5009   -8.2056 H   0  0  0  0  0  0
   15.2456   38.7129  -10.3572 H   0  0  0  0  0  0
   16.6034   39.5204  -11.0774 H   0  0  0  0  0  0
   15.0259   40.6069   -8.6893 H   0  0  0  0  0  0
   16.3173   41.4436   -9.5255 H   0  0  0  0  0  0
   13.6609   40.5915  -10.7542 H   0  0  0  0  0  0
   14.9411   41.3846  -11.6405 H   0  0  0  0  0  0
   12.9859   42.8606  -10.8115 H   0  0  0  0  0  0
   13.6008   42.6221   -9.2014 H   0  0  0  0  0  0
   15.8298   43.5999  -10.0057 H   0  0  0  0  0  0
   14.4930   44.7264   -9.9443 H   0  0  0  0  0  0
   15.8989   45.9876  -11.5979 H   0  0  0  0  0  0
   15.8284   45.3818  -13.2222 H   0  0  0  0  0  0
   20.8688   41.8815  -11.1886 H   0  0  0  0  0  0
   21.6668   44.4639  -10.7840 H   0  0  0  0  0  0
   20.6733   45.1978   -9.5500 H   0  0  0  0  0  0
   20.7107   45.8757  -11.1812 H   0  0  0  0  0  0
   18.5881   45.6402   -9.2261 H   0  0  0  0  0  0
   16.9358   45.5916   -9.6953 H   0  0  0  0  0  0
   18.0239   46.7332  -10.4925 H   0  0  0  0  0  0
   18.1846   38.6795   -6.6527 H   0  0  0  0  0  0
   19.7586   39.3089   -7.0885 H   0  0  0  0  0  0
   19.2354   37.7501   -7.7158 H   0  0  0  0  0  0
   22.9378   38.5472   -9.2425 H   0  0  0  0  0  0
  1  2  1  0  0  0
  1 40  1  0  0  0
  1 41  1  0  0  0
  1 42  1  0  0  0
  2  3  1  0  0  0
  2 43  1  0  0  0
  2 44  1  0  0  0
  3  4  1  0  0  0
  3 45  1  0  0  0
  3 46  1  0  0  0
  4  8  1  0  0  0
  4  5  2  0  0  0
  5  6  1  0  0  0
  5 47  1  0  0  0
  6  7  2  0  0  0
  6  9  1  0  0  0
  7  8  1  0  0  0
  8 35  1  0  0  0
  9 10  1  0  0  0
  9 48  1  0  0  0
  9 49  1  0  0  0
 10 11  1  0  0  0
 10 50  1  0  0  0
 11 12  1  0  0  0
 11 51  1  0  0  0
 11 52  1  0  0  0
 12 36  1  0  0  0
 12 13  1  0  0  0
 12 34  1  0  0  0
 13 37  1  0  0  0
 13 30  1  0  0  0
 13 14  1  0  0  0
 14 15  1  0  0  0
 14 53  1  0  0  0
 14 54  1  0  0  0
 15 38  1  0  0  0
 15 16  1  0  0  0
 15 33  1  0  0  0
 16 17  1  0  0  0
 16 55  1  0  0  0
 16 56  1  0  0  0
 17 18  1  0  0  0
 17 57  1  0  0  0
 17 58  1  0  0  0
 18 19  1  0  0  0
 18 59  1  0  0  0
 18 60  1  0  0  0
 19 20  1  0  0  0
 19 61  1  0  0  0
 19 62  1  0  0  0
 20 21  1  0  0  0
 20 63  1  0  0  0
 20 64  1  0  0  0
 21 22  1  0  0  0
 21 65  1  0  0  0
 21 66  1  0  0  0
 22 23  1  0  0  0
 23 24  1  0  0  0
 23 67  1  0  0  0
 23 68  1  0  0  0
 24 25  2  0  0  0
 24 26  1  0  0  0
 26 27  1  0  0  0
 26 32  1  0  0  0
 27 39  1  0  0  0
 27 28  1  0  0  0
 27 31  1  0  0  0
 28 29  2  0  0  0
 28 30  1  0  0  0
 30 69  1  0  0  0
 31 70  1  0  0  0
 31 71  1  0  0  0
 31 72  1  0  0  0
 32 73  1  0  0  0
 32 74  1  0  0  0
 32 75  1  0  0  0
 33 76  1  0  0  0
 33 77  1  0  0  0
 33 78  1  0  0  0
 34 79  1  0  0  0
M  END
> <s_m_source_file>
BACE_5.smi

> <i_m_source_file_index>
1

> <i_lp_mmshare_version>
42013

> <i_f3d_flags>
0

> <s_epik_input>
W0NIM11bQ0gyXVtDSDJdYzFbY0hdYyhuW25IXTEpW0NIMl1bTkhdW0NIMl1bQ0BASF0oW09IXSlbQ0BASF0yW0NIMl1bQ0BIXShbQ0gzXSlbQ0gyXVtDSDJdW0NIMl1bQ0gyXVtDSDJdW0NIMl1PW0NIMl1DKD1PKU4oW0NIM10pW0NAQEhdKFtDSDNdKUMoPU8pW05IXTI=

> <s_epik_cmdline>
J2VwaWtfcHl0aG9uJywgJy1waCcsICc3LjAnLCAnLXRuJywgJzgnLCAnLW1hJywgJzIwMCcsICctaW1hZScsICc8aW5maWxlLm1hZT4nLCAnLW9tYWUnLCAnPG91dGZpbGUubWFlPic=

> <r_lp_tautomer_probability>
0.5

> <r_epik_Ionization_Penalty>
  1.4191

> <r_epik_Ionization_Penalty_Charging>
  0.0000

> <r_epik_Ionization_Penalty_Neutral>
  1.4191

> <r_epik_State_Penalty>
  1.7435

> <r_epik_Charging_Adjusted_Penalty>
1.74351

> <i_epik_Tot_Q>
0

> <i_epik_Tot_abs_Q>
0

> <s_lp_Force_Field>
OPLS_2005

> <r_lp_Energy>
36.9156

> <b_lp_Chiralities_Consistent>
1

> <s_lp_Variant>
BACE_5.smi:1-4

> <chiral flag>
1

> <version>
0

> <r_i_glide_lipo>
-0.492847

> <r_i_glide_hbond>
-0.758524

> <r_i_glide_metal>
-0

> <r_i_glide_rewards>
-0.13871

> <r_i_glide_erotb>
0.52871

> <r_i_glide_esite>
-0.0811955

> <chiral flag>
1

> <s_i_glide_gridfile>
second_dock_grid_2

> <i_i_glide_lignum>
11

> <i_i_glide_rotatable_bonds>
8

> <r_i_docking_score>
-5.06639

> <r_i_glide_ligand_efficiency>
-0.149012

> <r_i_glide_ligand_efficiency_sa>
-0.48274

> <r_i_glide_ligand_efficiency_ln>
-1.11931

> <r_glide_XP_GScore>
-6.80989

> <r_i_glide_gscore>
-6.80989

> <r_i_glide_evdw>
-34.8645

> <r_i_glide_ecoul>
-11.8652

> <r_i_glide_energy>
-46.7297

> <r_i_glide_einternal>
5.05987

> <r_i_glide_emodel>
-65.0051

> <r_glide_XP_HBond>
-3.07903

> <i_i_glide_confnum>
1

> <i_i_glide_posenum>
1

> <r_i_glide_eff_state_penalty>
1.7435

> <i_glide_XP_PoseRank>
1

$$$$
BACE_5.smi:1
                    3D
 Structure written by MMmdl.
 79 80  0  0  1  0            999 V2000
   22.1837   43.6727    1.4115 C   0  0  0  0  0  0
   22.0236   43.8835   -0.1006 C   0  0  0  0  0  0
   20.7097   43.3103   -0.6586 C   0  0  0  0  0  0
   20.8764   42.4728   -1.8874 C   0  0  0  0  0  0
   21.7423   42.5541   -2.9439 C   0  0  0  0  0  0
   21.4333   41.4313   -3.7637 C   0  0  0  0  0  0
   20.4604   40.6960   -3.2377 N   0  0  0  0  0  0
   20.1125   41.3506   -2.1149 N   0  0  0  0  0  0
   22.0803   41.0569   -5.0788 C   0  0  0  0  0  0
   21.6492   39.7468   -5.5763 N   0  0  0  0  0  0
   22.1637   39.3112   -6.8792 C   0  0  0  0  0  0
   21.7228   40.1827   -8.0771 C   0  0  2  0  0  0
   20.1952   40.3934   -8.2061 C   0  0  2  0  0  0
   19.3924   39.1074   -8.5191 C   0  0  0  0  0  0
   17.9929   39.0863   -7.8697 C   0  0  1  0  0  0
   16.9923   38.2071   -8.6481 C   0  0  0  0  0  0
   16.4233   38.8528   -9.9277 C   0  0  0  0  0  0
   15.5113   40.0600   -9.6496 C   0  0  0  0  0  0
   14.7722   40.5791  -10.8959 C   0  0  0  0  0  0
   13.7892   41.7163  -10.5580 C   0  0  0  0  0  0
   14.4612   43.0797  -10.3570 C   0  0  0  0  0  0
   14.7227   43.6356  -11.6397 O   0  0  0  0  0  0
   15.7031   44.6639  -11.6716 C   0  0  0  0  0  0
   17.1047   44.0297  -11.6279 C   0  0  0  0  0  0
   17.4328   43.3527  -12.6069 O   0  0  0  0  0  0
   17.8906   44.1844  -10.5297 N   0  0  0  0  0  0
   19.1513   43.4151  -10.3767 C   0  0  2  0  0  0
   19.1627   42.4753   -9.1499 C   0  0  0  0  0  0
   18.5064   42.7259   -8.1438 O   0  0  0  0  0  0
   19.9565   41.4003   -9.2408 N   0  0  0  0  0  0
   20.3678   44.3732  -10.3769 C   0  0  0  0  0  0
   17.5313   45.1384   -9.4630 C   0  0  0  0  0  0
   18.0786   38.6298   -6.4057 C   0  0  0  0  0  0
   22.1866   39.5740   -9.2675 O   0  0  0  0  0  0
   19.3682   41.0149   -1.5128 H   0  0  0  0  0  0
   22.2154   41.1511   -7.9928 H   0  0  0  0  0  0
   19.8593   40.7928   -7.2504 H   0  0  0  0  0  0
   17.5996   40.1011   -7.8481 H   0  0  0  0  0  0
   19.3034   42.7628  -11.2430 H   0  0  0  0  0  0
   23.1215   44.1001    1.7691 H   0  0  0  0  0  0
   22.1913   42.6074    1.6511 H   0  0  0  0  0  0
   21.3695   44.1483    1.9587 H   0  0  0  0  0  0
   22.8714   43.4234   -0.6040 H   0  0  0  0  0  0
   22.0827   44.9450   -0.3438 H   0  0  0  0  0  0
   20.0482   44.1423   -0.8846 H   0  0  0  0  0  0
   20.2013   42.7270    0.1111 H   0  0  0  0  0  0
   22.4927   43.3117   -3.1117 H   0  0  0  0  0  0
   23.1638   41.0599   -4.9614 H   0  0  0  0  0  0
   21.8515   41.8304   -5.8139 H   0  0  0  0  0  0
   20.6325   39.6962   -5.5399 H   0  0  0  0  0  0
   21.8538   38.2809   -7.0464 H   0  0  0  0  0  0
   23.2527   39.2888   -6.8498 H   0  0  0  0  0  0
   19.3224   38.9833   -9.5975 H   0  0  0  0  0  0
   19.9328   38.2253   -8.1846 H   0  0  0  0  0  0
   17.4682   37.2589   -8.8971 H   0  0  0  0  0  0
   16.1497   37.9469   -8.0042 H   0  0  0  0  0  0
   15.8371   38.0925  -10.4405 H   0  0  0  0  0  0
   17.2256   39.1371  -10.6110 H   0  0  0  0  0  0
   14.7785   39.7744   -8.8943 H   0  0  0  0  0  0
   16.0921   40.8724   -9.2159 H   0  0  0  0  0  0
   14.2119   39.7518  -11.3314 H   0  0  0  0  0  0
   15.4878   40.9051  -11.6502 H   0  0  0  0  0  0
   13.0297   41.8083  -11.3365 H   0  0  0  0  0  0
   13.2542   41.4497   -9.6471 H   0  0  0  0  0  0
   15.3614   42.9724   -9.7510 H   0  0  0  0  0  0
   13.7931   43.7503   -9.8153 H   0  0  0  0  0  0
   15.4928   45.4075  -10.9034 H   0  0  0  0  0  0
   15.6056   45.1870  -12.6239 H   0  0  0  0  0  0
   20.4780   41.2665  -10.0913 H   0  0  0  0  0  0
   21.3056   43.8190  -10.4495 H   0  0  0  0  0  0
   20.4168   44.9689   -9.4592 H   0  0  0  0  0  0
   20.3301   45.0595  -11.2252 H   0  0  0  0  0  0
   18.3126   45.2483   -8.7094 H   0  0  0  0  0  0
   16.6333   44.8087   -8.9338 H   0  0  0  0  0  0
   17.3590   46.1368   -9.8704 H   0  0  0  0  0  0
   17.0828   38.5827   -5.9661 H   0  0  0  0  0  0
   18.6597   39.3381   -5.8111 H   0  0  0  0  0  0
   18.5092   37.6297   -6.3098 H   0  0  0  0  0  0
   23.1177   39.4037   -9.2093 H   0  0  0  0  0  0
  1  2  1  0  0  0
  1 40  1  0  0  0
  1 41  1  0  0  0
  1 42  1  0  0  0
  2  3  1  0  0  0
  2 43  1  0  0  0
  2 44  1  0  0  0
  3  4  1  0  0  0
  3 45  1  0  0  0
  3 46  1  0  0  0
  4  8  1  0  0  0
  4  5  2  0  0  0
  5  6  1  0  0  0
  5 47  1  0  0  0
  6  7  2  0  0  0
  6  9  1  0  0  0
  7  8  1  0  0  0
  8 35  1  0  0  0
  9 10  1  0  0  0
  9 48  1  0  0  0
  9 49  1  0  0  0
 10 11  1  0  0  0
 10 50  1  0  0  0
 11 12  1  0  0  0
 11 51  1  0  0  0
 11 52  1  0  0  0
 12 36  1  0  0  0
 12 13  1  0  0  0
 12 34  1  0  0  0
 13 37  1  0  0  0
 13 30  1  0  0  0
 13 14  1  0  0  0
 14 15  1  0  0  0
 14 53  1  0  0  0
 14 54  1  0  0  0
 15 38  1  0  0  0
 15 16  1  0  0  0
 15 33  1  0  0  0
 16 17  1  0  0  0
 16 55  1  0  0  0
 16 56  1  0  0  0
 17 18  1  0  0  0
 17 57  1  0  0  0
 17 58  1  0  0  0
 18 19  1  0  0  0
 18 59  1  0  0  0
 18 60  1  0  0  0
 19 20  1  0  0  0
 19 61  1  0  0  0
 19 62  1  0  0  0
 20 21  1  0  0  0
 20 63  1  0  0  0
 20 64  1  0  0  0
 21 22  1  0  0  0
 21 65  1  0  0  0
 21 66  1  0  0  0
 22 23  1  0  0  0
 23 24  1  0  0  0
 23 67  1  0  0  0
 23 68  1  0  0  0
 24 25  2  0  0  0
 24 26  1  0  0  0
 26 27  1  0  0  0
 26 32  1  0  0  0
 27 39  1  0  0  0
 27 28  1  0  0  0
 27 31  1  0  0  0
 28 29  2  0  0  0
 28 30  1  0  0  0
 30 69  1  0  0  0
 31 70  1  0  0  0
 31 71  1  0  0  0
 31 72  1  0  0  0
 32 73  1  0  0  0
 32 74  1  0  0  0
 32 75  1  0  0  0
 33 76  1  0  0  0
 33 77  1  0  0  0
 33 78  1  0  0  0
 34 79  1  0  0  0
M  END
> <s_m_source_file>
BACE_5.smi

> <i_m_source_file_index>
1

> <i_lp_mmshare_version>
42013

> <i_f3d_flags>
0

> <s_epik_input>
W0NIM11bQ0gyXVtDSDJdYzFbY0hdYyhuW25IXTEpW0NIMl1bTkhdW0NIMl1bQ0BASF0oW09IXSlbQ0BASF0yW0NIMl1bQ0BIXShbQ0gzXSlbQ0gyXVtDSDJdW0NIMl1bQ0gyXVtDSDJdW0NIMl1PW0NIMl1DKD1PKU4oW0NIM10pW0NAQEhdKFtDSDNdKUMoPU8pW05IXTI=

> <s_epik_cmdline>
J2VwaWtfcHl0aG9uJywgJy1waCcsICc3LjAnLCAnLXRuJywgJzgnLCAnLW1hJywgJzIwMCcsICctaW1hZScsICc8aW5maWxlLm1hZT4nLCAnLW9tYWUnLCAnPG91dGZpbGUubWFlPic=

> <r_lp_tautomer_probability>
0.5

> <r_epik_Ionization_Penalty>
  1.4191

> <r_epik_Ionization_Penalty_Charging>
  0.0000

> <r_epik_Ionization_Penalty_Neutral>
  1.4191

> <r_epik_State_Penalty>
  1.7435

> <r_epik_Charging_Adjusted_Penalty>
1.74351

> <i_epik_Tot_Q>
0

> <i_epik_Tot_abs_Q>
0

> <s_lp_Force_Field>
OPLS_2005

> <r_lp_Energy>
36.9156

> <b_lp_Chiralities_Consistent>
1

> <s_lp_Variant>
BACE_5.smi:1-4

> <chiral flag>
1

> <version>
0

> <r_i_glide_lipo>
-0.492847

> <r_i_glide_hbond>
-0.758524

> <r_i_glide_metal>
-0

> <r_i_glide_rewards>
-0.13871

> <r_i_glide_erotb>
0.52871

> <r_i_glide_esite>
-0.0811955

> <chiral flag>
1

> <s_i_glide_gridfile>
second_dock_grid_2

> <i_i_glide_lignum>
11

> <i_i_glide_rotatable_bonds>
8

> <r_i_docking_score>
-3.93723

> <r_i_glide_ligand_efficiency>
-0.115801

> <r_i_glide_ligand_efficiency_sa>
-0.37515

> <r_i_glide_ligand_efficiency_ln>
-0.869845

> <r_glide_XP_GScore>
-5.68073

> <r_i_glide_gscore>
-5.68073

> <r_i_glide_evdw>
-45.3071

> <r_i_glide_ecoul>
-7.66675

> <r_i_glide_energy>
-52.9738

> <r_i_glide_einternal>
7.85004

> <r_i_glide_emodel>
-59.7381

> <r_glide_XP_HBond>
-3.07903

> <i_i_glide_confnum>
1

> <i_i_glide_posenum>
12

> <r_i_glide_eff_state_penalty>
1.7435

> <i_glide_XP_PoseRank>
2

$$$$
BACE_5.smi:1
                    3D
 Structure written by MMmdl.
 79 80  0  0  1  0            999 V2000
   22.4368   43.7798    0.8203 C   0  0  0  0  0  0
   20.9719   43.3240    0.8195 C   0  0  0  0  0  0
   20.2773   43.5093   -0.5341 C   0  0  0  0  0  0
   20.7062   42.5503   -1.5983 C   0  0  0  0  0  0
   21.7152   42.5907   -2.5182 C   0  0  0  0  0  0
   21.5710   41.3829   -3.2602 C   0  0  0  0  0  0
   20.5528   40.6525   -2.8405 N   0  0  0  0  0  0
   20.0562   41.3570   -1.8073 N   0  0  0  0  0  0
   22.4031   40.8973   -4.4104 C   0  0  0  0  0  0
   21.8665   41.3039   -5.7102 N   0  0  0  0  0  0
   21.9815   42.7329   -6.0137 C   0  0  0  0  0  0
   20.6378   43.5051   -5.9206 C   0  0  2  0  0  0
   19.7244   43.3283   -7.1699 C   0  0  2  0  0  0
   18.4896   44.2740   -7.2041 C   0  0  0  0  0  0
   18.1957   44.8703   -8.6045 C   0  0  1  0  0  0
   16.8002   45.5355   -8.6847 C   0  0  0  0  0  0
   15.5925   44.5875   -8.5688 C   0  0  0  0  0  0
   15.4409   43.5928   -9.7247 C   0  0  0  0  0  0
   14.1850   42.7242   -9.5536 C   0  0  0  0  0  0
   13.9473   41.7479  -10.7154 C   0  0  0  0  0  0
   14.8934   40.5402  -10.7060 C   0  0  0  0  0  0
   14.5152   39.6836   -9.6398 O   0  0  0  0  0  0
   15.4520   38.6636   -9.3218 C   0  0  0  0  0  0
   16.6053   39.2490   -8.4855 C   0  0  0  0  0  0
   16.3102   39.7730   -7.4106 O   0  0  0  0  0  0
   17.8898   39.1869   -8.9268 N   0  0  0  0  0  0
   18.9799   39.6568   -8.0346 C   0  0  2  0  0  0
   19.3216   41.1329   -8.3030 C   0  0  0  0  0  0
   19.6700   41.5071   -9.4235 O   0  0  0  0  0  0
   19.2606   41.9458   -7.2404 N   0  0  0  0  0  0
   20.2675   38.8144   -8.1917 C   0  0  0  0  0  0
   18.2200   38.7812  -10.3041 C   0  0  0  0  0  0
   19.2654   45.9050   -9.0075 C   0  0  0  0  0  0
   20.9947   44.8717   -5.8189 O   0  0  0  0  0  0
   19.2315   41.0458   -1.3002 H   0  0  0  0  0  0
   20.0992   43.2360   -5.0104 H   0  0  0  0  0  0
   20.3510   43.5275   -8.0385 H   0  0  0  0  0  0
   18.2338   44.0623   -9.3359 H   0  0  0  0  0  0
   18.6839   39.5416   -6.9881 H   0  0  0  0  0  0
   22.9332   43.5091    1.7536 H   0  0  0  0  0  0
   22.4982   44.8629    0.7103 H   0  0  0  0  0  0
   22.9984   43.3506   -0.0047 H   0  0  0  0  0  0
   20.4600   43.9340    1.5602 H   0  0  0  0  0  0
   20.8646   42.2934    1.1596 H   0  0  0  0  0  0
   20.4598   44.5356   -0.8400 H   0  0  0  0  0  0
   19.1960   43.4285   -0.4265 H   0  0  0  0  0  0
   22.4505   43.3702   -2.6528 H   0  0  0  0  0  0
   22.4584   39.8089   -4.3741 H   0  0  0  0  0  0
   23.4306   41.2448   -4.3014 H   0  0  0  0  0  0
   20.8883   41.0320   -5.7507 H   0  0  0  0  0  0
   22.3900   42.8547   -7.0165 H   0  0  0  0  0  0
   22.7180   43.1905   -5.3500 H   0  0  0  0  0  0
   17.6259   43.7214   -6.8368 H   0  0  0  0  0  0
   18.5990   45.0961   -6.4972 H   0  0  0  0  0  0
   16.7285   46.2933   -7.9037 H   0  0  0  0  0  0
   16.7123   46.0761   -9.6282 H   0  0  0  0  0  0
   14.6903   45.1945   -8.5042 H   0  0  0  0  0  0
   15.6361   44.0309   -7.6401 H   0  0  0  0  0  0
   15.3935   44.1335  -10.6709 H   0  0  0  0  0  0
   16.3217   42.9541   -9.7722 H   0  0  0  0  0  0
   13.3154   43.3766   -9.4664 H   0  0  0  0  0  0
   14.2408   42.1714   -8.6126 H   0  0  0  0  0  0
   12.9213   41.3865  -10.6485 H   0  0  0  0  0  0
   14.0271   42.2844  -11.6590 H   0  0  0  0  0  0
   15.9275   40.8728  -10.6227 H   0  0  0  0  0  0
   14.8039   39.9842  -11.6401 H   0  0  0  0  0  0
   15.7653   38.1194  -10.2128 H   0  0  0  0  0  0
   14.9378   37.9354   -8.6920 H   0  0  0  0  0  0
   18.8506   41.5707   -6.3858 H   0  0  0  0  0  0
   20.9598   39.0200   -7.3748 H   0  0  0  0  0  0
   20.8126   39.0135   -9.1141 H   0  0  0  0  0  0
   20.0435   37.7500   -8.1545 H   0  0  0  0  0  0
   19.2402   39.0284  -10.5971 H   0  0  0  0  0  0
   17.5860   39.2926  -11.0300 H   0  0  0  0  0  0
   18.0901   37.7042  -10.4348 H   0  0  0  0  0  0
   19.0529   46.3235   -9.9905 H   0  0  0  0  0  0
   20.2629   45.4706   -9.0604 H   0  0  0  0  0  0
   19.3023   46.7302   -8.2972 H   0  0  0  0  0  0
   21.4904   45.1071   -6.5879 H   0  0  0  0  0  0
  1  2  1  0  0  0
  1 40  1  0  0  0
  1 41  1  0  0  0
  1 42  1  0  0  0
  2  3  1  0  0  0
  2 43  1  0  0  0
  2 44  1  0  0  0
  3  4  1  0  0  0
  3 45  1  0  0  0
  3 46  1  0  0  0
  4  8  1  0  0  0
  4  5  2  0  0  0
  5  6  1  0  0  0
  5 47  1  0  0  0
  6  7  2  0  0  0
  6  9  1  0  0  0
  7  8  1  0  0  0
  8 35  1  0  0  0
  9 10  1  0  0  0
  9 48  1  0  0  0
  9 49  1  0  0  0
 10 11  1  0  0  0
 10 50  1  0  0  0
 11 12  1  0  0  0
 11 51  1  0  0  0
 11 52  1  0  0  0
 12 36  1  0  0  0
 12 13  1  0  0  0
 12 34  1  0  0  0
 13 37  1  0  0  0
 13 30  1  0  0  0
 13 14  1  0  0  0
 14 15  1  0  0  0
 14 53  1  0  0  0
 14 54  1  0  0  0
 15 38  1  0  0  0
 15 16  1  0  0  0
 15 33  1  0  0  0
 16 17  1  0  0  0
 16 55  1  0  0  0
 16 56  1  0  0  0
 17 18  1  0  0  0
 17 57  1  0  0  0
 17 58  1  0  0  0
 18 19  1  0  0  0
 18 59  1  0  0  0
 18 60  1  0  0  0
 19 20  1  0  0  0
 19 61  1  0  0  0
 19 62  1  0  0  0
 20 21  1  0  0  0
 20 63  1  0  0  0
 20 64  1  0  0  0
 21 22  1  0  0  0
 21 65  1  0  0  0
 21 66  1  0  0  0
 22 23  1  0  0  0
 23 24  1  0  0  0
 23 67  1  0  0  0
 23 68  1  0  0  0
 24 25  2  0  0  0
 24 26  1  0  0  0
 26 27  1  0  0  0
 26 32  1  0  0  0
 27 39  1  0  0  0
 27 28  1  0  0  0
 27 31  1  0  0  0
 28 29  2  0  0  0
 28 30  1  0  0  0
 30 69  1  0  0  0
 31 70  1  0  0  0
 31 71  1  0  0  0
 31 72  1  0  0  0
 32 73  1  0  0  0
 32 74  1  0  0  0
 32 75  1  0  0  0
 33 76  1  0  0  0
 33 77  1  0  0  0
 33 78  1  0  0  0
 34 79  1  0  0  0
M  END
> <s_m_source_file>
BACE_5.smi

> <i_m_source_file_index>
1

> <i_lp_mmshare_version>
42013

> <i_f3d_flags>
0

> <s_epik_input>
W0NIM11bQ0gyXVtDSDJdYzFbY0hdYyhuW25IXTEpW0NIMl1bTkhdW0NIMl1bQ0BASF0oW09IXSlbQ0BASF0yW0NIMl1bQ0BIXShbQ0gzXSlbQ0gyXVtDSDJdW0NIMl1bQ0gyXVtDSDJdW0NIMl1PW0NIMl1DKD1PKU4oW0NIM10pW0NAQEhdKFtDSDNdKUMoPU8pW05IXTI=

> <s_epik_cmdline>
J2VwaWtfcHl0aG9uJywgJy1waCcsICc3LjAnLCAnLXRuJywgJzgnLCAnLW1hJywgJzIwMCcsICctaW1hZScsICc8aW5maWxlLm1hZT4nLCAnLW9tYWUnLCAnPG91dGZpbGUubWFlPic=

> <r_lp_tautomer_probability>
0.5

> <r_epik_Ionization_Penalty>
  1.4191

> <r_epik_Ionization_Penalty_Charging>
  0.0000

> <r_epik_Ionization_Penalty_Neutral>
  1.4191

> <r_epik_State_Penalty>
  1.7435

> <r_epik_Charging_Adjusted_Penalty>
1.74351

> <i_epik_Tot_Q>
0

> <i_epik_Tot_abs_Q>
0

> <s_lp_Force_Field>
OPLS_2005

> <r_lp_Energy>
36.9156

> <b_lp_Chiralities_Consistent>
1

> <s_lp_Variant>
BACE_5.smi:1-4

> <chiral flag>
1

> <version>
0

> <r_i_glide_lipo>
-0.492847

> <r_i_glide_hbond>
-0.758524

> <r_i_glide_metal>
-0

> <r_i_glide_rewards>
-0.13871

> <r_i_glide_erotb>
0.52871

> <r_i_glide_esite>
-0.0811955

> <chiral flag>
1

> <s_i_glide_gridfile>
second_dock_grid_2

> <i_i_glide_lignum>
11

> <i_i_glide_rotatable_bonds>
8

> <r_i_docking_score>
-3.45451

> <r_i_glide_ligand_efficiency>
-0.101603

> <r_i_glide_ligand_efficiency_sa>
-0.329155

> <r_i_glide_ligand_efficiency_ln>
-0.763197

> <r_glide_XP_GScore>
-5.19801

> <r_i_glide_gscore>
-5.19801

> <r_i_glide_evdw>
-44.3679

> <r_i_glide_ecoul>
-2.88793

> <r_i_glide_energy>
-47.2558

> <r_i_glide_einternal>
7.91266

> <r_i_glide_emodel>
-59.7691

> <r_glide_XP_HBond>
-3.07903

> <i_i_glide_confnum>
1

> <i_i_glide_posenum>
3

> <r_i_glide_eff_state_penalty>
1.7435

> <i_glide_XP_PoseRank>
3

$$$$
BACE_5.smi:1
                    3D
 Structure written by MMmdl.
 79 80  0  0  1  0            999 V2000
   15.4255   39.8693   -6.4241 C   0  0  0  0  0  0
   14.4535   38.9861   -7.2170 C   0  0  0  0  0  0
   14.7488   38.9272   -8.7198 C   0  0  0  0  0  0
   16.1355   38.4666   -9.0293 C   0  0  0  0  0  0
   17.1058   39.0036   -9.8276 C   0  0  0  0  0  0
   18.2236   38.1391   -9.6451 C   0  0  0  0  0  0
   17.9559   37.1260   -8.8382 N   0  0  0  0  0  0
   16.6909   37.3511   -8.4403 N   0  0  0  0  0  0
   19.6216   38.2947  -10.1721 C   0  0  0  0  0  0
   20.3826   39.3319   -9.4730 N   0  0  0  0  0  0
   20.4177   39.1841   -8.0119 C   0  0  0  0  0  0
   21.4015   40.1659   -7.3504 C   0  0  2  0  0  0
   21.2561   41.6491   -7.7776 C   0  0  2  0  0  0
   22.3122   42.5928   -7.1471 C   0  0  0  0  0  0
   22.4178   42.6314   -5.6007 C   0  0  1  0  0  0
   23.6307   43.4632   -5.1268 C   0  0  0  0  0  0
   23.7507   44.9312   -5.6066 C   0  0  0  0  0  0
   22.8736   45.9351   -4.8403 C   0  0  0  0  0  0
   23.0410   47.4055   -5.2708 C   0  0  0  0  0  0
   22.7742   47.7065   -6.7594 C   0  0  0  0  0  0
   21.4062   47.2434   -7.2820 C   0  0  0  0  0  0
   20.3563   47.9108   -6.5851 O   0  0  0  0  0  0
   19.0436   47.6196   -7.0698 C   0  0  0  0  0  0
   18.6719   46.1478   -6.7896 C   0  0  0  0  0  0
   18.8604   45.7510   -5.6400 O   0  0  0  0  0  0
   18.1922   45.3444   -7.7793 N   0  0  0  0  0  0
   18.1277   43.8675   -7.5809 C   0  0  2  0  0  0
   19.3626   43.1938   -8.2057 C   0  0  0  0  0  0
   19.8351   43.6118   -9.2637 O   0  0  0  0  0  0
   19.9078   42.1700   -7.5276 N   0  0  0  0  0  0
   16.8559   43.2385   -8.1913 C   0  0  0  0  0  0
   17.8824   45.8930   -9.1114 C   0  0  0  0  0  0
   21.1203   43.0270   -4.8714 C   0  0  0  0  0  0
   22.6994   39.6904   -7.6424 O   0  0  0  0  0  0
   16.2615   36.8104   -7.6851 H   0  0  0  0  0  0
   21.2657   40.0886   -6.2724 H   0  0  0  0  0  0
   21.4295   41.6876   -8.8542 H   0  0  0  0  0  0
   22.6407   41.6185   -5.2669 H   0  0  0  0  0  0
   18.1094   43.6212   -6.5173 H   0  0  0  0  0  0
   15.2600   39.7511   -5.3562 H   0  0  0  0  0  0
   15.2752   40.9234   -6.6549 H   0  0  0  0  0  0
   16.4693   39.6157   -6.6072 H   0  0  0  0  0  0
   13.4414   39.3498   -7.0550 H   0  0  0  0  0  0
   14.4612   37.9703   -6.8215 H   0  0  0  0  0  0
   14.5879   39.9142   -9.1513 H   0  0  0  0  0  0
   14.0303   38.2662   -9.2024 H   0  0  0  0  0  0
   17.0436   39.9036  -10.4195 H   0  0  0  0  0  0
   19.5921   38.5175  -11.2395 H   0  0  0  0  0  0
   20.1526   37.3501  -10.0787 H   0  0  0  0  0  0
   20.0294   40.2510   -9.7263 H   0  0  0  0  0  0
   20.6774   38.1616   -7.7380 H   0  0  0  0  0  0
   19.4227   39.3628   -7.6009 H   0  0  0  0  0  0
   23.2900   42.3177   -7.5451 H   0  0  0  0  0  0
   22.1268   43.5996   -7.5230 H   0  0  0  0  0  0
   23.6599   43.4189   -4.0402 H   0  0  0  0  0  0
   24.5340   42.9500   -5.4532 H   0  0  0  0  0  0
   23.5756   45.0028   -6.6778 H   0  0  0  0  0  0
   24.7885   45.2380   -5.4674 H   0  0  0  0  0  0
   21.8225   45.6689   -4.9138 H   0  0  0  0  0  0
   23.1369   45.8598   -3.7860 H   0  0  0  0  0  0
   24.0514   47.7335   -5.0254 H   0  0  0  0  0  0
   22.3736   48.0180   -4.6638 H   0  0  0  0  0  0
   22.8724   48.7789   -6.9264 H   0  0  0  0  0  0
   23.5550   47.2442   -7.3634 H   0  0  0  0  0  0
   21.3280   46.1599   -7.1918 H   0  0  0  0  0  0
   21.3352   47.4741   -8.3451 H   0  0  0  0  0  0
   18.9820   47.9183   -8.1149 H   0  0  0  0  0  0
   18.3361   48.2505   -6.5300 H   0  0  0  0  0  0
   19.4337   41.8505   -6.6918 H   0  0  0  0  0  0
   16.7454   42.2109   -7.8419 H   0  0  0  0  0  0
   16.8717   43.1885   -9.2800 H   0  0  0  0  0  0
   15.9600   43.7775   -7.8826 H   0  0  0  0  0  0
   17.4568   45.1702   -9.8019 H   0  0  0  0  0  0
   18.7911   46.2616   -9.5910 H   0  0  0  0  0  0
   17.1669   46.7122   -9.0362 H   0  0  0  0  0  0
   21.3013   43.2658   -3.8222 H   0  0  0  0  0  0
   20.3975   42.2120   -4.8854 H   0  0  0  0  0  0
   20.6465   43.8855   -5.3396 H   0  0  0  0  0  0
   22.7411   39.5231   -8.5737 H   0  0  0  0  0  0
  1  2  1  0  0  0
  1 40  1  0  0  0
  1 41  1  0  0  0
  1 42  1  0  0  0
  2  3  1  0  0  0
  2 43  1  0  0  0
  2 44  1  0  0  0
  3  4  1  0  0  0
  3 45  1  0  0  0
  3 46  1  0  0  0
  4  8  1  0  0  0
  4  5  2  0  0  0
  5  6  1  0  0  0
  5 47  1  0  0  0
  6  7  2  0  0  0
  6  9  1  0  0  0
  7  8  1  0  0  0
  8 35  1  0  0  0
  9 10  1  0  0  0
  9 48  1  0  0  0
  9 49  1  0  0  0
 10 11  1  0  0  0
 10 50  1  0  0  0
 11 12  1  0  0  0
 11 51  1  0  0  0
 11 52  1  0  0  0
 12 36  1  0  0  0
 12 13  1  0  0  0
 12 34  1  0  0  0
 13 37  1  0  0  0
 13 30  1  0  0  0
 13 14  1  0  0  0
 14 15  1  0  0  0
 14 53  1  0  0  0
 14 54  1  0  0  0
 15 38  1  0  0  0
 15 16  1  0  0  0
 15 33  1  0  0  0
 16 17  1  0  0  0
 16 55  1  0  0  0
 16 56  1  0  0  0
 17 18  1  0  0  0
 17 57  1  0  0  0
 17 58  1  0  0  0
 18 19  1  0  0  0
 18 59  1  0  0  0
 18 60  1  0  0  0
 19 20  1  0  0  0
 19 61  1  0  0  0
 19 62  1  0  0  0
 20 21  1  0  0  0
 20 63  1  0  0  0
 20 64  1  0  0  0
 21 22  1  0  0  0
 21 65  1  0  0  0
 21 66  1  0  0  0
 22 23  1  0  0  0
 23 24  1  0  0  0
 23 67  1  0  0  0
 23 68  1  0  0  0
 24 25  2  0  0  0
 24 26  1  0  0  0
 26 27  1  0  0  0
 26 32  1  0  0  0
 27 39  1  0  0  0
 27 28  1  0  0  0
 27 31  1  0  0  0
 28 29  2  0  0  0
 28 30  1  0  0  0
 30 69  1  0  0  0
 31 70  1  0  0  0
 31 71  1  0  0  0
 31 72  1  0  0  0
 32 73  1  0  0  0
 32 74  1  0  0  0
 32 75  1  0  0  0
 33 76  1  0  0  0
 33 77  1  0  0  0
 33 78  1  0  0  0
 34 79  1  0  0  0
M  END
> <s_m_source_file>
BACE_5.smi

> <i_m_source_file_index>
1

> <i_lp_mmshare_version>
42013

> <i_f3d_flags>
0

> <s_epik_input>
W0NIM11bQ0gyXVtDSDJdYzFbY0hdYyhuW25IXTEpW0NIMl1bTkhdW0NIMl1bQ0BASF0oW09IXSlbQ0BASF0yW0NIMl1bQ0BIXShbQ0gzXSlbQ0gyXVtDSDJdW0NIMl1bQ0gyXVtDSDJdW0NIMl1PW0NIMl1DKD1PKU4oW0NIM10pW0NAQEhdKFtDSDNdKUMoPU8pW05IXTI=

> <s_epik_cmdline>
J2VwaWtfcHl0aG9uJywgJy1waCcsICc3LjAnLCAnLXRuJywgJzgnLCAnLW1hJywgJzIwMCcsICctaW1hZScsICc8aW5maWxlLm1hZT4nLCAnLW9tYWUnLCAnPG91dGZpbGUubWFlPic=

> <r_lp_tautomer_probability>
0.5

> <r_epik_Ionization_Penalty>
  1.4191

> <r_epik_Ionization_Penalty_Charging>
  0.0000

> <r_epik_Ionization_Penalty_Neutral>
  1.4191

> <r_epik_State_Penalty>
  1.7435

> <r_epik_Charging_Adjusted_Penalty>
1.74351

> <i_epik_Tot_Q>
0

> <i_epik_Tot_abs_Q>
0

> <s_lp_Force_Field>
OPLS_2005

> <r_lp_Energy>
36.9156

> <b_lp_Chiralities_Consistent>
1

> <s_lp_Variant>
BACE_5.smi:1-4

> <chiral flag>
1

> <version>
0

> <r_i_glide_lipo>
-0.492847

> <r_i_glide_hbond>
-0.758524

> <r_i_glide_metal>
-0

> <r_i_glide_rewards>
-0.13871

> <r_i_glide_erotb>
0.52871

> <r_i_glide_esite>
-0.0811955

> <chiral flag>
1

> <s_i_glide_gridfile>
second_dock_grid_2

> <i_i_glide_lignum>
11

> <i_i_glide_rotatable_bonds>
8

> <r_i_docking_score>
-1.66441

> <r_i_glide_ligand_efficiency>
-0.0489532

> <r_i_glide_ligand_efficiency_sa>
-0.158589

> <r_i_glide_ligand_efficiency_ln>
-0.367714

> <r_glide_XP_GScore>
-3.40791

> <r_i_glide_gscore>
-3.40791

> <r_i_glide_evdw>
-37.3287

> <r_i_glide_ecoul>
-12.0188

> <r_i_glide_energy>
-49.3476

> <r_i_glide_einternal>
0

> <r_i_glide_emodel>
-59.5348

> <r_glide_XP_HBond>
-3.07903

> <i_i_glide_confnum>
1

> <i_i_glide_posenum>
6

> <r_i_glide_eff_state_penalty>
1.7435

> <i_glide_XP_PoseRank>
4

$$$$
BACE_5.smi:1
                    3D
 Structure written by MMmdl.
 79 80  0  0  1  0            999 V2000
   14.8215   38.4855   -7.4110 C   0  0  0  0  0  0
   14.4618   39.7570   -6.6436 C   0  0  0  0  0  0
   14.9038   41.0955   -7.2677 C   0  0  0  0  0  0
   15.3429   41.0050   -8.6745 C   0  0  0  0  0  0
   16.5945   40.9672   -9.1997 C   0  0  0  0  0  0
   16.3576   40.8212  -10.5903 C   0  0  0  0  0  0
   15.0729   40.7960  -10.9166 N   0  0  0  0  0  0
   14.4588   40.8989   -9.7224 N   0  0  0  0  0  0
   17.3922   40.6786  -11.6399 C   0  0  0  0  0  0
   18.3600   41.7686  -11.5643 N   0  0  0  0  0  0
   19.5004   41.6405  -12.4627 C   0  0  0  0  0  0
   20.4167   40.4413  -12.1364 C   0  0  2  0  0  0
   21.2809   40.5385  -10.8519 C   0  0  2  0  0  0
   20.4852   40.0987   -9.5926 C   0  0  0  0  0  0
   21.2890   39.2567   -8.5791 C   0  0  1  0  0  0
   20.4827   38.9622   -7.2884 C   0  0  0  0  0  0
   20.3029   40.1460   -6.3210 C   0  0  0  0  0  0
   21.6250   40.6512   -5.7267 C   0  0  0  0  0  0
   21.4401   41.7692   -4.6856 C   0  0  0  0  0  0
   22.7747   42.3288   -4.1593 C   0  0  0  0  0  0
   23.5413   43.1589   -5.1997 C   0  0  0  0  0  0
   22.8439   44.3743   -5.4311 O   0  0  0  0  0  0
   23.3573   45.1639   -6.4987 C   0  0  0  0  0  0
   22.9173   44.5900   -7.8619 C   0  0  0  0  0  0
   21.7124   44.6272   -8.1210 O   0  0  0  0  0  0
   23.8291   44.0978   -8.7428 N   0  0  0  0  0  0
   23.3777   43.6830  -10.0959 C   0  0  2  0  0  0
   23.0042   42.1916  -10.1159 C   0  0  0  0  0  0
   23.7819   41.3495   -9.6714 O   0  0  0  0  0  0
   21.8189   41.8860  -10.6666 N   0  0  0  0  0  0
   24.4630   43.9213  -11.1718 C   0  0  0  0  0  0
   25.2443   43.8903   -8.3871 C   0  0  0  0  0  0
   21.7341   37.9273   -9.1966 C   0  0  0  0  0  0
   21.2615   40.2541  -13.2397 O   0  0  0  0  0  0
   13.4505   40.8530   -9.6180 H   0  0  0  0  0  0
   19.8461   39.5152  -12.1155 H   0  0  0  0  0  0
   22.1248   39.8673  -10.9987 H   0  0  0  0  0  0
   22.1977   39.7910   -8.3166 H   0  0  0  0  0  0
   22.5125   44.2753  -10.4028 H   0  0  0  0  0  0
   14.4599   37.6334   -6.8399 H   0  0  0  0  0  0
   15.8990   38.3734   -7.5311 H   0  0  0  0  0  0
   14.3441   38.4446   -8.3897 H   0  0  0  0  0  0
   14.8691   39.6934   -5.6400 H   0  0  0  0  0  0
   13.3878   39.7501   -6.4959 H   0  0  0  0  0  0
   15.7153   41.5084   -6.6682 H   0  0  0  0  0  0
   14.1043   41.8335   -7.2399 H   0  0  0  0  0  0
   17.5317   41.0059   -8.6637 H   0  0  0  0  0  0
   16.9063   40.6527  -12.6047 H   0  0  0  0  0  0
   17.8663   39.7093  -11.5062 H   0  0  0  0  0  0
   18.6783   41.8517  -10.6028 H   0  0  0  0  0  0
   20.0790   42.5590  -12.4391 H   0  0  0  0  0  0
   19.1421   41.5538  -13.4871 H   0  0  0  0  0  0
   20.0694   40.9796   -9.1032 H   0  0  0  0  0  0
   19.6183   39.5049   -9.8820 H   0  0  0  0  0  0
   19.5005   38.5727   -7.5583 H   0  0  0  0  0  0
   20.9662   38.1545   -6.7354 H   0  0  0  0  0  0
   19.6609   39.8163   -5.5042 H   0  0  0  0  0  0
   19.7723   40.9630   -6.8092 H   0  0  0  0  0  0
   22.1632   39.8177   -5.2732 H   0  0  0  0  0  0
   22.2506   41.0165   -6.5355 H   0  0  0  0  0  0
   20.8599   41.3777   -3.8489 H   0  0  0  0  0  0
   20.8455   42.5801   -5.1099 H   0  0  0  0  0  0
   22.5932   42.9461   -3.2784 H   0  0  0  0  0  0
   23.4008   41.5014   -3.8230 H   0  0  0  0  0  0
   23.6598   42.5912   -6.1200 H   0  0  0  0  0  0
   24.5456   43.3755   -4.8401 H   0  0  0  0  0  0
   24.4277   45.3304   -6.3943 H   0  0  0  0  0  0
   22.9061   46.1529   -6.4087 H   0  0  0  0  0  0
   21.2471   42.6514  -10.9873 H   0  0  0  0  0  0
   24.0496   43.7683  -12.1697 H   0  0  0  0  0  0
   25.3156   43.2470  -11.0850 H   0  0  0  0  0  0
   24.8356   44.9450  -11.1350 H   0  0  0  0  0  0
   25.6743   43.0443   -8.9197 H   0  0  0  0  0  0
   25.3990   43.6549   -7.3372 H   0  0  0  0  0  0
   25.8318   44.7738   -8.6311 H   0  0  0  0  0  0
   22.2743   37.3494   -8.4572 H   0  0  0  0  0  0
   22.4222   38.0448  -10.0313 H   0  0  0  0  0  0
   20.8761   37.3494   -9.5361 H   0  0  0  0  0  0
   22.1422   40.5494  -13.0236 H   0  0  0  0  0  0
  1  2  1  0  0  0
  1 40  1  0  0  0
  1 41  1  0  0  0
  1 42  1  0  0  0
  2  3  1  0  0  0
  2 43  1  0  0  0
  2 44  1  0  0  0
  3  4  1  0  0  0
  3 45  1  0  0  0
  3 46  1  0  0  0
  4  8  1  0  0  0
  4  5  2  0  0  0
  5  6  1  0  0  0
  5 47  1  0  0  0
  6  7  2  0  0  0
  6  9  1  0  0  0
  7  8  1  0  0  0
  8 35  1  0  0  0
  9 10  1  0  0  0
  9 48  1  0  0  0
  9 49  1  0  0  0
 10 11  1  0  0  0
 10 50  1  0  0  0
 11 12  1  0  0  0
 11 51  1  0  0  0
 11 52  1  0  0  0
 12 36  1  0  0  0
 12 13  1  0  0  0
 12 34  1  0  0  0
 13 37  1  0  0  0
 13 30  1  0  0  0
 13 14  1  0  0  0
 14 15  1  0  0  0
 14 53  1  0  0  0
 14 54  1  0  0  0
 15 38  1  0  0  0
 15 16  1  0  0  0
 15 33  1  0  0  0
 16 17  1  0  0  0
 16 55  1  0  0  0
 16 56  1  0  0  0
 17 18  1  0  0  0
 17 57  1  0  0  0
 17 58  1  0  0  0
 18 19  1  0  0  0
 18 59  1  0  0  0
 18 60  1  0  0  0
 19 20  1  0  0  0
 19 61  1  0  0  0
 19 62  1  0  0  0
 20 21  1  0  0  0
 20 63  1  0  0  0
 20 64  1  0  0  0
 21 22  1  0  0  0
 21 65  1  0  0  0
 21 66  1  0  0  0
 22 23  1  0  0  0
 23 24  1  0  0  0
 23 67  1  0  0  0
 23 68  1  0  0  0
 24 25  2  0  0  0
 24 26  1  0  0  0
 26 27  1  0  0  0
 26 32  1  0  0  0
 27 39  1  0  0  0
 27 28  1  0  0  0
 27 31  1  0  0  0
 28 29  2  0  0  0
 28 30  1  0  0  0
 30 69  1  0  0  0
 31 70  1  0  0  0
 31 71  1  0  0  0
 31 72  1  0  0  0
 32 73  1  0  0  0
 32 74  1  0  0  0
 32 75  1  0  0  0
 33 76  1  0  0  0
 33 77  1  0  0  0
 33 78  1  0  0  0
 34 79  1  0  0  0
M  END
> <s_m_source_file>
BACE_5.smi

> <i_m_source_file_index>
1

> <i_lp_mmshare_version>
42013

> <i_f3d_flags>
0

> <s_epik_input>
W0NIM11bQ0gyXVtDSDJdYzFbY0hdYyhuW25IXTEpW0NIMl1bTkhdW0NIMl1bQ0BASF0oW09IXSlbQ0BASF0yW0NIMl1bQ0BIXShbQ0gzXSlbQ0gyXVtDSDJdW0NIMl1bQ0gyXVtDSDJdW0NIMl1PW0NIMl1DKD1PKU4oW0NIM10pW0NAQEhdKFtDSDNdKUMoPU8pW05IXTI=

> <s_epik_cmdline>
J2VwaWtfcHl0aG9uJywgJy1waCcsICc3LjAnLCAnLXRuJywgJzgnLCAnLW1hJywgJzIwMCcsICctaW1hZScsICc8aW5maWxlLm1hZT4nLCAnLW9tYWUnLCAnPG91dGZpbGUubWFlPic=

> <r_lp_tautomer_probability>
0.5

> <r_epik_Ionization_Penalty>
  1.4191

> <r_epik_Ionization_Penalty_Charging>
  0.0000

> <r_epik_Ionization_Penalty_Neutral>
  1.4191

> <r_epik_State_Penalty>
  1.7435

> <r_epik_Charging_Adjusted_Penalty>
1.74351

> <i_epik_Tot_Q>
0

> <i_epik_Tot_abs_Q>
0

> <s_lp_Force_Field>
OPLS_2005

> <r_lp_Energy>
36.9156

> <b_lp_Chiralities_Consistent>
1

> <s_lp_Variant>
BACE_5.smi:1-4

> <chiral flag>
1

> <version>
0

> <r_i_glide_lipo>
-0.492847

> <r_i_glide_hbond>
-0.758524

> <r_i_glide_metal>
-0

> <r_i_glide_rewards>
-0.13871

> <r_i_glide_erotb>
0.52871

> <r_i_glide_esite>
-0.0811955

> <chiral flag>
1

> <s_i_glide_gridfile>
second_dock_grid_2

> <i_i_glide_lignum>
11

> <i_i_glide_rotatable_bonds>
8

> <r_i_docking_score>
-1.0967

> <r_i_glide_ligand_efficiency>
-0.0322558

> <r_i_glide_ligand_efficiency_sa>
-0.104496

> <r_i_glide_ligand_efficiency_ln>
-0.242291

> <r_glide_XP_GScore>
-2.8402

> <r_i_glide_gscore>
-2.8402

> <r_i_glide_evdw>
-35.0905

> <r_i_glide_ecoul>
-9.94914

> <r_i_glide_energy>
-45.0396

> <r_i_glide_einternal>
8.57978

> <r_i_glide_emodel>
-59.3629

> <r_glide_XP_HBond>
-3.07903

> <i_i_glide_confnum>
1

> <i_i_glide_posenum>
2

> <r_i_glide_eff_state_penalty>
1.7435

> <i_glide_XP_PoseRank>
5

$$$$
BACE_5.smi:1
                    3D
 Structure written by MMmdl.
 79 80  0  0  1  0            999 V2000
   22.4571   43.8948    1.3220 C   0  0  0  0  0  0
   21.4985   44.4126    0.2451 C   0  0  0  0  0  0
   20.4333   43.3878   -0.1946 C   0  0  0  0  0  0
   20.7739   42.5499   -1.3896 C   0  0  0  0  0  0
   21.7287   42.6590   -2.3634 C   0  0  0  0  0  0
   21.4924   41.5581   -3.2363 C   0  0  0  0  0  0
   20.4603   40.8273   -2.8388 N   0  0  0  0  0  0
   20.0451   41.4289   -1.7104 N   0  0  0  0  0  0
   22.2566   41.2094   -4.4910 C   0  0  0  0  0  0
   21.7049   40.0464   -5.1886 N   0  0  0  0  0  0
   22.1850   39.7967   -6.5491 C   0  0  0  0  0  0
   21.7371   40.8615   -7.5773 C   0  0  2  0  0  0
   20.2050   40.9771   -7.7754 C   0  0  2  0  0  0
   19.5379   39.7222   -8.4019 C   0  0  0  0  0  0
   18.1985   39.3234   -7.7401 C   0  0  1  0  0  0
   17.3629   38.3617   -8.6155 C   0  0  0  0  0  0
   16.7665   38.9589   -9.9063 C   0  0  0  0  0  0
   15.7462   40.0829   -9.6607 C   0  0  0  0  0  0
   15.0127   40.5137  -10.9435 C   0  0  0  0  0  0
   13.9253   41.5750  -10.6948 C   0  0  0  0  0  0
   14.4797   42.9763  -10.4187 C   0  0  0  0  0  0
   14.9798   43.5073  -11.6399 O   0  0  0  0  0  0
   15.7701   44.6814  -11.5106 C   0  0  0  0  0  0
   17.1884   44.3041  -11.0482 C   0  0  0  0  0  0
   17.8678   43.6507  -11.8433 O   0  0  0  0  0  0
   17.6407   44.6768   -9.8200 N   0  0  0  0  0  0
   18.9996   44.2676   -9.3801 C   0  0  2  0  0  0
   18.9467   43.0336   -8.4613 C   0  0  0  0  0  0
   18.0401   42.8960   -7.6402 O   0  0  0  0  0  0
   19.9589   42.1646   -8.5913 N   0  0  0  0  0  0
   19.7245   45.4133   -8.6373 C   0  0  0  0  0  0
   16.7918   45.4167   -8.8663 C   0  0  0  0  0  0
   18.4357   38.6783   -6.3623 C   0  0  0  0  0  0
   22.3511   40.5576   -8.8152 O   0  0  0  0  0  0
   19.2269   41.0942   -1.2069 H   0  0  0  0  0  0
   22.1284   41.8335   -7.2792 H   0  0  0  0  0  0
   19.7754   41.1626   -6.7889 H   0  0  0  0  0  0
   17.6111   40.2236   -7.5649 H   0  0  0  0  0  0
   19.6264   44.0261  -10.2424 H   0  0  0  0  0  0
   23.2593   44.6076    1.5034 H   0  0  0  0  0  0
   22.9116   42.9501    1.0337 H   0  0  0  0  0  0
   21.9414   43.7482    2.2689 H   0  0  0  0  0  0
   22.0600   44.7876   -0.6077 H   0  0  0  0  0  0
   20.9865   45.2820    0.6600 H   0  0  0  0  0  0
   19.5218   43.9263   -0.4400 H   0  0  0  0  0  0
   20.1633   42.7488    0.6466 H   0  0  0  0  0  0
   22.4886   43.4191   -2.4532 H   0  0  0  0  0  0
   23.3032   41.0278   -4.2492 H   0  0  0  0  0  0
   22.2459   42.0839   -5.1411 H   0  0  0  0  0  0
   20.6898   40.0770   -5.1346 H   0  0  0  0  0  0
   21.8537   38.8092   -6.8679 H   0  0  0  0  0  0
   23.2719   39.7506   -6.5396 H   0  0  0  0  0  0
   19.3982   39.9007   -9.4680 H   0  0  0  0  0  0
   20.2027   38.8598   -8.3545 H   0  0  0  0  0  0
   17.9732   37.4957   -8.8720 H   0  0  0  0  0  0
   16.5347   37.9700   -8.0208 H   0  0  0  0  0  0
   16.2643   38.1531  -10.4390 H   0  0  0  0  0  0
   17.5494   39.3076  -10.5764 H   0  0  0  0  0  0
   15.0123   39.7480   -8.9245 H   0  0  0  0  0  0
   16.2555   40.9396   -9.2229 H   0  0  0  0  0  0
   14.5366   39.6357  -11.3817 H   0  0  0  0  0  0
   15.7321   40.8747  -11.6791 H   0  0  0  0  0  0
   13.2604   41.6243  -11.5553 H   0  0  0  0  0  0
   13.3023   41.2569   -9.8578 H   0  0  0  0  0  0
   15.2427   42.9268   -9.6442 H   0  0  0  0  0  0
   13.6885   43.6276  -10.0503 H   0  0  0  0  0  0
   15.2667   45.4319  -10.9031 H   0  0  0  0  0  0
   15.8591   45.1243  -12.5023 H   0  0  0  0  0  0
   20.6592   42.3544   -9.2936 H   0  0  0  0  0  0
   20.7783   45.1696   -8.4979 H   0  0  0  0  0  0
   19.3184   45.6081   -7.6433 H   0  0  0  0  0  0
   19.6852   46.3420   -9.2087 H   0  0  0  0  0  0
   17.1727   45.3904   -7.8486 H   0  0  0  0  0  0
   15.7901   44.9967   -8.7944 H   0  0  0  0  0  0
   16.7118   46.4629   -9.1575 H   0  0  0  0  0  0
   17.4869   38.4248   -5.8899 H   0  0  0  0  0  0
   18.9554   39.3485   -5.6797 H   0  0  0  0  0  0
   19.0162   37.7594   -6.4437 H   0  0  0  0  0  0
   22.1081   39.6816   -9.0744 H   0  0  0  0  0  0
  1  2  1  0  0  0
  1 40  1  0  0  0
  1 41  1  0  0  0
  1 42  1  0  0  0
  2  3  1  0  0  0
  2 43  1  0  0  0
  2 44  1  0  0  0
  3  4  1  0  0  0
  3 45  1  0  0  0
  3 46  1  0  0  0
  4  8  1  0  0  0
  4  5  2  0  0  0
  5  6  1  0  0  0
  5 47  1  0  0  0
  6  7  2  0  0  0
  6  9  1  0  0  0
  7  8  1  0  0  0
  8 35  1  0  0  0
  9 10  1  0  0  0
  9 48  1  0  0  0
  9 49  1  0  0  0
 10 11  1  0  0  0
 10 50  1  0  0  0
 11 12  1  0  0  0
 11 51  1  0  0  0
 11 52  1  0  0  0
 12 36  1  0  0  0
 12 13  1  0  0  0
 12 34  1  0  0  0
 13 37  1  0  0  0
 13 30  1  0  0  0
 13 14  1  0  0  0
 14 15  1  0  0  0
 14 53  1  0  0  0
 14 54  1  0  0  0
 15 38  1  0  0  0
 15 16  1  0  0  0
 15 33  1  0  0  0
 16 17  1  0  0  0
 16 55  1  0  0  0
 16 56  1  0  0  0
 17 18  1  0  0  0
 17 57  1  0  0  0
 17 58  1  0  0  0
 18 19  1  0  0  0
 18 59  1  0  0  0
 18 60  1  0  0  0
 19 20  1  0  0  0
 19 61  1  0  0  0
 19 62  1  0  0  0
 20 21  1  0  0  0
 20 63  1  0  0  0
 20 64  1  0  0  0
 21 22  1  0  0  0
 21 65  1  0  0  0
 21 66  1  0  0  0
 22 23  1  0  0  0
 23 24  1  0  0  0
 23 67  1  0  0  0
 23 68  1  0  0  0
 24 25  2  0  0  0
 24 26  1  0  0  0
 26 27  1  0  0  0
 26 32  1  0  0  0
 27 39  1  0  0  0
 27 28  1  0  0  0
 27 31  1  0  0  0
 28 29  2  0  0  0
 28 30  1  0  0  0
 30 69  1  0  0  0
 31 70  1  0  0  0
 31 71  1  0  0  0
 31 72  1  0  0  0
 32 73  1  0  0  0
 32 74  1  0  0  0
 32 75  1  0  0  0
 33 76  1  0  0  0
 33 77  1  0  0  0
 33 78  1  0  0  0
 34 79  1  0  0  0
M  END
> <s_m_source_file>
BACE_5.smi

> <i_m_source_file_index>
1

> <i_lp_mmshare_version>
42013

> <i_f3d_flags>
0

> <s_epik_input>
W0NIM11bQ0gyXVtDSDJdYzFbY0hdYyhuW25IXTEpW0NIMl1bTkhdW0NIMl1bQ0BASF0oW09IXSlbQ0BASF0yW0NIMl1bQ0BIXShbQ0gzXSlbQ0gyXVtDSDJdW0NIMl1bQ0gyXVtDSDJdW0NIMl1PW0NIMl1DKD1PKU4oW0NIM10pW0NAQEhdKFtDSDNdKUMoPU8pW05IXTI=

> <s_epik_cmdline>
J2VwaWtfcHl0aG9uJywgJy1waCcsICc3LjAnLCAnLXRuJywgJzgnLCAnLW1hJywgJzIwMCcsICctaW1hZScsICc8aW5maWxlLm1hZT4nLCAnLW9tYWUnLCAnPG91dGZpbGUubWFlPic=

> <r_lp_tautomer_probability>
0.5

> <r_epik_Ionization_Penalty>
  1.4191

> <r_epik_Ionization_Penalty_Charging>
  0.0000

> <r_epik_Ionization_Penalty_Neutral>
  1.4191

> <r_epik_State_Penalty>
  1.7435

> <r_epik_Charging_Adjusted_Penalty>
1.74351

> <i_epik_Tot_Q>
0

> <i_epik_Tot_abs_Q>
0

> <s_lp_Force_Field>
OPLS_2005

> <r_lp_Energy>
36.9156

> <b_lp_Chiralities_Consistent>
1

> <s_lp_Variant>
BACE_5.smi:1-4

> <chiral flag>
1

> <version>
0

> <r_i_glide_lipo>
-0.492847

> <r_i_glide_hbond>
-0.758524

> <r_i_glide_metal>
-0

> <r_i_glide_rewards>
-0.13871

> <r_i_glide_erotb>
0.52871

> <r_i_glide_esite>
-0.0811955

> <chiral flag>
1

> <s_i_glide_gridfile>
second_dock_grid_2

> <i_i_glide_lignum>
11

> <i_i_glide_rotatable_bonds>
8

> <r_i_docking_score>
0.820354

> <r_i_glide_ligand_efficiency>
0.024128

> <r_i_glide_ligand_efficiency_sa>
0.0781655

> <r_i_glide_ligand_efficiency_ln>
0.181239

> <r_glide_XP_GScore>
-0.923146

> <r_i_glide_gscore>
-0.923146

> <r_i_glide_evdw>
-43.5779

> <r_i_glide_ecoul>
-4.6187

> <r_i_glide_energy>
-48.1965

> <r_i_glide_einternal>
6.82316

> <r_i_glide_emodel>
-59.385

> <r_glide_XP_HBond>
-3.07903

> <i_i_glide_confnum>
1

> <i_i_glide_posenum>
5

> <r_i_glide_eff_state_penalty>
1.7435

> <i_glide_XP_PoseRank>
6

$$$$
BACE_6.smi:1
                    3D
 Structure written by MMmdl.
 83 85  0  0  1  0            999 V2000
   25.0785   46.9975   -5.8101 C   0  0  0  0  0  0
   24.1249   46.7565   -6.9885 C   0  0  0  0  0  0
   23.4428   45.4557   -6.8781 N   0  0  0  0  0  0
   23.3569   44.7114   -8.1560 C   0  0  0  0  0  0
   24.1293   43.3703   -8.1686 C   0  0  0  0  0  0
   24.2897   42.7690   -9.5788 C   0  0  0  0  0  0
   22.9851   42.3690  -10.2986 C   0  0  0  0  0  0
   22.3473   41.0525   -9.8030 C   0  0  0  0  0  0
   21.0137   40.6827  -10.5058 C   0  0  2  0  0  0
   20.3507   39.4038   -9.9165 C   0  0  0  0  0  0
   19.2677   39.6576   -8.8315 C   0  0  2  0  0  0
   19.8713   40.2800   -7.6632 N   0  0  0  0  0  0
   19.6915   41.5389   -7.2362 C   0  0  0  0  0  0
   18.8661   42.3145   -7.7157 O   0  0  0  0  0  0
   20.7103   41.9993   -6.2407 C   0  0  0  0  0  0
   21.2009   41.1199   -5.2509 C   0  0  0  0  0  0
   22.2524   41.5245   -4.4099 C   0  0  0  0  0  0
   22.8254   42.7994   -4.5714 C   0  0  0  0  0  0
   22.3252   43.6993   -5.5331 C   0  0  0  0  0  0
   21.2241   43.3115   -6.3285 C   0  0  0  0  0  0
   22.9760   45.0488   -5.6646 C   0  0  0  0  0  0
   23.1433   45.7058   -4.6329 O   0  0  0  0  0  0
   18.4806   38.3937   -8.3751 C   0  0  1  0  0  0
   16.9436   38.5593   -8.3590 C   0  0  0  0  0  0
   16.4590   39.0786   -7.0502 N   0  3  0  0  0  0
   15.2703   39.9672   -7.0695 C   0  0  0  0  0  0
   15.3229   40.9892   -8.1907 C   0  0  0  0  0  0
   14.5754   40.7984   -9.3696 C   0  0  0  0  0  0
   14.5366   41.8050  -10.3505 C   0  0  0  0  0  0
   15.2802   42.9889  -10.1815 C   0  0  0  0  0  0
   16.0764   43.1682   -9.0280 C   0  0  0  0  0  0
   16.0890   42.1588   -8.0394 C   0  0  0  0  0  0
   16.8855   44.4453   -8.8186 C   0  0  0  0  0  0
   15.9630   45.6475   -8.5669 C   0  0  0  0  0  0
   17.8736   44.7317   -9.9648 C   0  0  0  0  0  0
   18.7897   37.3228   -9.2492 O   0  0  0  0  0  0
   21.2081   40.5215  -12.0268 C   0  0  0  0  0  0
   20.3204   41.5134  -10.3730 H   0  0  0  0  0  0
   18.5481   40.3562   -9.2579 H   0  0  0  0  0  0
   18.8075   38.1111   -7.3723 H   0  0  0  0  0  0
   25.5852   47.9557   -5.9149 H   0  0  0  0  0  0
   25.8436   46.2227   -5.7552 H   0  0  0  0  0  0
   24.5463   47.0111   -4.8602 H   0  0  0  0  0  0
   23.3927   47.5620   -7.0313 H   0  0  0  0  0  0
   24.6723   46.8442   -7.9264 H   0  0  0  0  0  0
   22.3148   44.5668   -8.4377 H   0  0  0  0  0  0
   23.7626   45.3138   -8.9691 H   0  0  0  0  0  0
   25.1250   43.5425   -7.7595 H   0  0  0  0  0  0
   23.6613   42.6316   -7.5207 H   0  0  0  0  0  0
   24.8189   43.4942  -10.1989 H   0  0  0  0  0  0
   24.9485   41.9019   -9.5254 H   0  0  0  0  0  0
   22.2573   43.1801  -10.2563 H   0  0  0  0  0  0
   23.2363   42.2595  -11.3515 H   0  0  0  0  0  0
   23.0634   40.2409   -9.9329 H   0  0  0  0  0  0
   22.1869   41.1315   -8.7297 H   0  0  0  0  0  0
   19.8850   38.8449  -10.7269 H   0  0  0  0  0  0
   21.1240   38.7344   -9.5324 H   0  0  0  0  0  0
   20.5799   39.7285   -7.2009 H   0  0  0  0  0  0
   20.7916   40.1262   -5.1403 H   0  0  0  0  0  0
   22.6322   40.8509   -3.6571 H   0  0  0  0  0  0
   23.6666   43.0945   -3.9627 H   0  0  0  0  0  0
   20.8039   43.9963   -7.0506 H   0  0  0  0  0  0
   16.6549   39.2132   -9.1812 H   0  0  0  0  0  0
   16.4730   37.5991   -8.5618 H   0  0  0  0  0  0
   16.2707   38.2962   -6.4388 H   0  0  0  0  0  0
   14.3713   39.3581   -7.1579 H   0  0  0  0  0  0
   15.1941   40.4885   -6.1119 H   0  0  0  0  0  0
   14.0049   39.8935   -9.5167 H   0  0  0  0  0  0
   13.9381   41.6691  -11.2394 H   0  0  0  0  0  0
   15.2278   43.7503  -10.9433 H   0  0  0  0  0  0
   16.6835   42.2793   -7.1472 H   0  0  0  0  0  0
   17.4875   44.3032   -7.9188 H   0  0  0  0  0  0
   15.3301   45.4847   -7.6945 H   0  0  0  0  0  0
   15.3081   45.8315   -9.4199 H   0  0  0  0  0  0
   16.5378   46.5553   -8.3910 H   0  0  0  0  0  0
   18.5782   43.9081  -10.0881 H   0  0  0  0  0  0
   18.4561   45.6287   -9.7610 H   0  0  0  0  0  0
   17.3710   44.8971  -10.9171 H   0  0  0  0  0  0
   19.7347   37.2157   -9.3120 H   0  0  0  0  0  0
   21.9392   39.7459  -12.2543 H   0  0  0  0  0  0
   21.5406   41.4446  -12.5000 H   0  0  0  0  0  0
   20.2766   40.2485  -12.5173 H   0  0  0  0  0  0
   17.2129   39.6161   -6.6519 H   0  0  0  0  0  0
  1  2  1  0  0  0
  1 41  1  0  0  0
  1 42  1  0  0  0
  1 43  1  0  0  0
  2  3  1  0  0  0
  2 44  1  0  0  0
  2 45  1  0  0  0
  3 21  1  0  0  0
  3  4  1  0  0  0
  4  5  1  0  0  0
  4 46  1  0  0  0
  4 47  1  0  0  0
  5  6  1  0  0  0
  5 48  1  0  0  0
  5 49  1  0  0  0
  6  7  1  0  0  0
  6 50  1  0  0  0
  6 51  1  0  0  0
  7  8  1  0  0  0
  7 52  1  0  0  0
  7 53  1  0  0  0
  8  9  1  0  0  0
  8 54  1  0  0  0
  8 55  1  0  0  0
  9 38  1  0  0  0
  9 10  1  0  0  0
  9 37  1  0  0  0
 10 11  1  0  0  0
 10 56  1  0  0  0
 10 57  1  0  0  0
 11 39  1  0  0  0
 11 12  1  0  0  0
 11 23  1  0  0  0
 12 13  1  0  0  0
 12 58  1  0  0  0
 13 14  2  0  0  0
 13 15  1  0  0  0
 15 20  1  0  0  0
 15 16  2  0  0  0
 16 17  1  0  0  0
 16 59  1  0  0  0
 17 18  2  0  0  0
 17 60  1  0  0  0
 18 19  1  0  0  0
 18 61  1  0  0  0
 19 20  2  0  0  0
 19 21  1  0  0  0
 20 62  1  0  0  0
 21 22  2  0  0  0
 23 40  1  0  0  0
 23 24  1  0  0  0
 23 36  1  0  0  0
 24 25  1  0  0  0
 24 63  1  0  0  0
 24 64  1  0  0  0
 25 26  1  0  0  0
 25 65  1  0  0  0
 25 83  1  0  0  0
 26 27  1  0  0  0
 26 66  1  0  0  0
 26 67  1  0  0  0
 27 32  1  0  0  0
 27 28  2  0  0  0
 28 29  1  0  0  0
 28 68  1  0  0  0
 29 30  2  0  0  0
 29 69  1  0  0  0
 30 31  1  0  0  0
 30 70  1  0  0  0
 31 32  2  0  0  0
 31 33  1  0  0  0
 32 71  1  0  0  0
 33 34  1  0  0  0
 33 35  1  0  0  0
 33 72  1  0  0  0
 34 73  1  0  0  0
 34 74  1  0  0  0
 34 75  1  0  0  0
 35 76  1  0  0  0
 35 77  1  0  0  0
 35 78  1  0  0  0
 36 79  1  0  0  0
 37 80  1  0  0  0
 37 81  1  0  0  0
 37 82  1  0  0  0
M  CHG  1  25   1
M  END
> <s_m_source_file>
BACE_6.smi

> <i_m_source_file_index>
1

> <i_lp_mmshare_version>
42013

> <i_f3d_flags>
0

> <s_epik_input>
YzEyW2NIXVtjSF1bY0hdYyhbY0hdMilDKD1PKU4oW0NIMl1bQ0gzXSlbQ0gyXVtDSDJdW0NIMl1bQ0gyXVtDSDJdW0NAQEhdKFtDSDNdKVtDSDJdW0NASF0oW05IXUMxPU8pW0NASF0oW09IXSlbQ0gyXVtOSF1bQ0gyXWMzW2NIXVtjSF1bY0hdYyhbY0hdMylbQ0hdKFtDSDNdKVtDSDNd

> <s_epik_cmdline>
J2VwaWtfcHl0aG9uJywgJy1waCcsICc3LjAnLCAnLXRuJywgJzgnLCAnLW1hJywgJzIwMCcsICctaW1hZScsICc8aW5maWxlLm1hZT4nLCAnLW9tYWUnLCAnPG91dGZpbGUubWFlPic=

> <r_epik_Ionization_Penalty>
  0.0165

> <r_epik_Ionization_Penalty_Charging>
  0.0165

> <r_epik_Ionization_Penalty_Neutral>
  0.0000

> <r_epik_State_Penalty>
  0.0130

> <r_epik_Charging_Adjusted_Penalty>
0.0295552

> <i_epik_Tot_Q>
1

> <i_epik_Tot_abs_Q>
1

> <s_lp_Force_Field>
OPLS_2005

> <r_lp_Energy>
42.7267

> <b_lp_Chiralities_Consistent>
1

> <s_lp_Variant>
BACE_6.smi:1-1

> <chiral flag>
1

> <version>
0

> <r_i_glide_lipo>
-0.959692

> <r_i_glide_hbond>
-0.531466

> <r_i_glide_metal>
-0

> <r_i_glide_rewards>
0

> <r_i_glide_erotb>
0.395592

> <r_i_glide_esite>
-0.02202

> <chiral flag>
1

> <s_i_glide_gridfile>
second_dock_grid_2

> <i_i_glide_lignum>
12

> <i_i_glide_rotatable_bonds>
8

> <r_i_docking_score>
-4.32929

> <r_i_glide_ligand_efficiency>
-0.117008

> <r_i_glide_ligand_efficiency_sa>
-0.389896

> <r_i_glide_ligand_efficiency_ln>
-0.938921

> <r_glide_XP_GScore>
-4.34229

> <r_i_glide_gscore>
-4.34229

> <r_i_glide_evdw>
-37.0776

> <r_i_glide_ecoul>
-10.1271

> <r_i_glide_energy>
-47.2047

> <r_i_glide_einternal>
4.26355

> <r_i_glide_emodel>
-65.7572

> <r_glide_XP_HBond>
-0.536938

> <i_i_glide_confnum>
1

> <i_i_glide_posenum>
22

> <r_i_glide_eff_state_penalty>
0.013

> <i_glide_XP_PoseRank>
1

$$$$
BACE_6.smi:1
                    3D
 Structure written by MMmdl.
 83 85  0  0  1  0            999 V2000
   16.9515   51.8343   -9.5245 C   0  0  0  0  0  0
   17.9804   50.9266  -10.2173 C   0  0  0  0  0  0
   17.7672   49.5068   -9.8849 N   0  0  0  0  0  0
   16.9331   48.7904  -10.8718 C   0  0  0  0  0  0
   17.6219   47.6495  -11.6505 C   0  0  0  0  0  0
   16.7515   47.0915  -12.7979 C   0  0  0  0  0  0
   15.4197   46.4171  -12.3881 C   0  0  0  0  0  0
   15.5436   44.9324  -11.9899 C   0  0  0  0  0  0
   14.2275   44.2818  -11.4709 C   0  0  2  0  0  0
   14.4467   42.8202  -10.9814 C   0  0  0  0  0  0
   14.6954   42.6151   -9.4618 C   0  0  2  0  0  0
   15.8002   43.4729   -9.0349 N   0  0  0  0  0  0
   15.6980   44.6573   -8.4087 C   0  0  0  0  0  0
   14.6306   45.1534   -8.0434 O   0  0  0  0  0  0
   16.9887   45.4126   -8.2849 C   0  0  0  0  0  0
   18.2077   44.7476   -8.0274 C   0  0  0  0  0  0
   19.4122   45.4709   -7.9450 C   0  0  0  0  0  0
   19.4106   46.8601   -8.1594 C   0  0  0  0  0  0
   18.2059   47.5387   -8.4417 C   0  0  0  0  0  0
   16.9937   46.8139   -8.4401 C   0  0  0  0  0  0
   18.2524   49.0161   -8.7087 C   0  0  0  0  0  0
   18.8090   49.7322   -7.8742 O   0  0  0  0  0  0
   15.0336   41.1341   -9.1238 C   0  0  1  0  0  0
   15.2345   40.8352   -7.6051 C   0  0  0  0  0  0
   16.5157   40.1490   -7.3212 N   0  3  0  0  0  0
   17.6963   40.9790   -7.6514 C   0  0  0  0  0  0
   19.0040   40.2252   -7.6491 C   0  0  0  0  0  0
   19.2183   39.1516   -8.5393 C   0  0  0  0  0  0
   20.4876   38.5493   -8.6168 C   0  0  0  0  0  0
   21.5444   39.0219   -7.8160 C   0  0  0  0  0  0
   21.3366   40.1000   -6.9285 C   0  0  0  0  0  0
   20.0598   40.6853   -6.8401 C   0  0  0  0  0  0
   22.4870   40.6566   -6.1072 C   0  0  0  0  0  0
   22.3046   40.3893   -4.6057 C   0  0  0  0  0  0
   22.7317   42.1531   -6.3960 C   0  0  0  0  0  0
   14.0600   40.2562   -9.6371 O   0  0  0  0  0  0
   13.1002   44.3207  -12.5232 C   0  0  0  0  0  0
   13.8656   44.8699  -10.6305 H   0  0  0  0  0  0
   13.7871   42.8893   -8.9220 H   0  0  0  0  0  0
   15.9183   40.8582   -9.6972 H   0  0  0  0  0  0
   17.1253   52.8799   -9.7841 H   0  0  0  0  0  0
   17.0125   51.7482   -8.4407 H   0  0  0  0  0  0
   15.9338   51.5857   -9.8287 H   0  0  0  0  0  0
   17.9495   51.0857  -11.2954 H   0  0  0  0  0  0
   18.9888   51.2317   -9.9272 H   0  0  0  0  0  0
   16.0593   48.4154  -10.3576 H   0  0  0  0  0  0
   16.5243   49.4936  -11.5966 H   0  0  0  0  0  0
   18.5496   48.0296  -12.0774 H   0  0  0  0  0  0
   17.9144   46.8312  -10.9985 H   0  0  0  0  0  0
   16.5271   47.9135  -13.4778 H   0  0  0  0  0  0
   17.3449   46.3887  -13.3827 H   0  0  0  0  0  0
   14.9315   46.9719  -11.5928 H   0  0  0  0  0  0
   14.7470   46.4912  -13.2419 H   0  0  0  0  0  0
   15.9211   44.3652  -12.8397 H   0  0  0  0  0  0
   16.3172   44.8567  -11.2282 H   0  0  0  0  0  0
   13.5677   42.2277  -11.2396 H   0  0  0  0  0  0
   15.2617   42.3695  -11.5449 H   0  0  0  0  0  0
   16.7244   43.2071   -9.3412 H   0  0  0  0  0  0
   18.2424   43.6823   -7.8884 H   0  0  0  0  0  0
   20.3388   44.9541   -7.7402 H   0  0  0  0  0  0
   20.3459   47.4010   -8.1252 H   0  0  0  0  0  0
   16.0592   47.3247   -8.5939 H   0  0  0  0  0  0
   15.2029   41.7485   -7.0118 H   0  0  0  0  0  0
   14.4314   40.2077   -7.2126 H   0  0  0  0  0  0
   16.5513   39.9316   -6.3339 H   0  0  0  0  0  0
   17.6331   41.4095   -8.6461 H   0  0  0  0  0  0
   17.7335   41.8311   -6.9776 H   0  0  0  0  0  0
   18.4249   38.8021   -9.1829 H   0  0  0  0  0  0
   20.6586   37.7321   -9.3017 H   0  0  0  0  0  0
   22.5170   38.5607   -7.9043 H   0  0  0  0  0  0
   19.9006   41.5187   -6.1719 H   0  0  0  0  0  0
   23.3653   40.1087   -6.4320 H   0  0  0  0  0  0
   22.1928   39.3236   -4.4091 H   0  0  0  0  0  0
   21.4220   40.8938   -4.2101 H   0  0  0  0  0  0
   23.1669   40.7389   -4.0370 H   0  0  0  0  0  0
   22.9047   42.3203   -7.4591 H   0  0  0  0  0  0
   23.6010   42.5428   -5.8604 H   0  0  0  0  0  0
   21.8801   42.7654   -6.0999 H   0  0  0  0  0  0
   13.2406   40.3785   -9.1611 H   0  0  0  0  0  0
   13.3554   43.7504  -13.4157 H   0  0  0  0  0  0
   12.8598   45.3375  -12.8317 H   0  0  0  0  0  0
   12.1807   43.8951  -12.1230 H   0  0  0  0  0  0
   16.5440   39.2800   -7.8347 H   0  0  0  0  0  0
  1  2  1  0  0  0
  1 41  1  0  0  0
  1 42  1  0  0  0
  1 43  1  0  0  0
  2  3  1  0  0  0
  2 44  1  0  0  0
  2 45  1  0  0  0
  3 21  1  0  0  0
  3  4  1  0  0  0
  4  5  1  0  0  0
  4 46  1  0  0  0
  4 47  1  0  0  0
  5  6  1  0  0  0
  5 48  1  0  0  0
  5 49  1  0  0  0
  6  7  1  0  0  0
  6 50  1  0  0  0
  6 51  1  0  0  0
  7  8  1  0  0  0
  7 52  1  0  0  0
  7 53  1  0  0  0
  8  9  1  0  0  0
  8 54  1  0  0  0
  8 55  1  0  0  0
  9 38  1  0  0  0
  9 10  1  0  0  0
  9 37  1  0  0  0
 10 11  1  0  0  0
 10 56  1  0  0  0
 10 57  1  0  0  0
 11 39  1  0  0  0
 11 12  1  0  0  0
 11 23  1  0  0  0
 12 13  1  0  0  0
 12 58  1  0  0  0
 13 14  2  0  0  0
 13 15  1  0  0  0
 15 20  1  0  0  0
 15 16  2  0  0  0
 16 17  1  0  0  0
 16 59  1  0  0  0
 17 18  2  0  0  0
 17 60  1  0  0  0
 18 19  1  0  0  0
 18 61  1  0  0  0
 19 20  2  0  0  0
 19 21  1  0  0  0
 20 62  1  0  0  0
 21 22  2  0  0  0
 23 40  1  0  0  0
 23 24  1  0  0  0
 23 36  1  0  0  0
 24 25  1  0  0  0
 24 63  1  0  0  0
 24 64  1  0  0  0
 25 26  1  0  0  0
 25 65  1  0  0  0
 25 83  1  0  0  0
 26 27  1  0  0  0
 26 66  1  0  0  0
 26 67  1  0  0  0
 27 32  1  0  0  0
 27 28  2  0  0  0
 28 29  1  0  0  0
 28 68  1  0  0  0
 29 30  2  0  0  0
 29 69  1  0  0  0
 30 31  1  0  0  0
 30 70  1  0  0  0
 31 32  2  0  0  0
 31 33  1  0  0  0
 32 71  1  0  0  0
 33 34  1  0  0  0
 33 35  1  0  0  0
 33 72  1  0  0  0
 34 73  1  0  0  0
 34 74  1  0  0  0
 34 75  1  0  0  0
 35 76  1  0  0  0
 35 77  1  0  0  0
 35 78  1  0  0  0
 36 79  1  0  0  0
 37 80  1  0  0  0
 37 81  1  0  0  0
 37 82  1  0  0  0
M  CHG  1  25   1
M  END
> <s_m_source_file>
BACE_6.smi

> <i_m_source_file_index>
1

> <i_lp_mmshare_version>
42013

> <i_f3d_flags>
0

> <s_epik_input>
YzEyW2NIXVtjSF1bY0hdYyhbY0hdMilDKD1PKU4oW0NIMl1bQ0gzXSlbQ0gyXVtDSDJdW0NIMl1bQ0gyXVtDSDJdW0NAQEhdKFtDSDNdKVtDSDJdW0NASF0oW05IXUMxPU8pW0NASF0oW09IXSlbQ0gyXVtOSF1bQ0gyXWMzW2NIXVtjSF1bY0hdYyhbY0hdMylbQ0hdKFtDSDNdKVtDSDNd

> <s_epik_cmdline>
J2VwaWtfcHl0aG9uJywgJy1waCcsICc3LjAnLCAnLXRuJywgJzgnLCAnLW1hJywgJzIwMCcsICctaW1hZScsICc8aW5maWxlLm1hZT4nLCAnLW9tYWUnLCAnPG91dGZpbGUubWFlPic=

> <r_epik_Ionization_Penalty>
  0.0165

> <r_epik_Ionization_Penalty_Charging>
  0.0165

> <r_epik_Ionization_Penalty_Neutral>
  0.0000

> <r_epik_State_Penalty>
  0.0130

> <r_epik_Charging_Adjusted_Penalty>
0.0295552

> <i_epik_Tot_Q>
1

> <i_epik_Tot_abs_Q>
1

> <s_lp_Force_Field>
OPLS_2005

> <r_lp_Energy>
42.7267

> <b_lp_Chiralities_Consistent>
1

> <s_lp_Variant>
BACE_6.smi:1-1

> <chiral flag>
1

> <version>
0

> <r_i_glide_lipo>
-0.959692

> <r_i_glide_hbond>
-0.531466

> <r_i_glide_metal>
-0

> <r_i_glide_rewards>
0

> <r_i_glide_erotb>
0.395592

> <r_i_glide_esite>
-0.02202

> <chiral flag>
1

> <s_i_glide_gridfile>
second_dock_grid_2

> <i_i_glide_lignum>
12

> <i_i_glide_rotatable_bonds>
8

> <r_i_docking_score>
-4.06879

> <r_i_glide_ligand_efficiency>
-0.109967

> <r_i_glide_ligand_efficiency_sa>
-0.366435

> <r_i_glide_ligand_efficiency_ln>
-0.882424

> <r_glide_XP_GScore>
-4.08179

> <r_i_glide_gscore>
-4.08179

> <r_i_glide_evdw>
-34.311

> <r_i_glide_ecoul>
-15.5399

> <r_i_glide_energy>
-49.851

> <r_i_glide_einternal>
8.50595

> <r_i_glide_emodel>
-58.1782

> <r_glide_XP_HBond>
-0.536938

> <i_i_glide_confnum>
1

> <i_i_glide_posenum>
14

> <r_i_glide_eff_state_penalty>
0.013

> <i_glide_XP_PoseRank>
2

$$$$
BACE_6.smi:1
                    3D
 Structure written by MMmdl.
 83 85  0  0  1  0            999 V2000
   16.8684   52.0162   -9.9282 C   0  0  0  0  0  0
   17.9580   51.0915  -10.4943 C   0  0  0  0  0  0
   17.7433   49.6882  -10.1072 N   0  0  0  0  0  0
   16.9163   48.9362  -11.0698 C   0  0  0  0  0  0
   17.6212   47.7975  -11.8325 C   0  0  0  0  0  0
   16.7540   47.2226  -12.9714 C   0  0  0  0  0  0
   15.4235   46.5538  -12.5534 C   0  0  0  0  0  0
   15.5565   45.1062  -12.0378 C   0  0  0  0  0  0
   14.2415   44.4741  -11.4944 C   0  0  2  0  0  0
   14.4476   43.0150  -11.0000 C   0  0  0  0  0  0
   14.7400   42.7977   -9.4880 C   0  0  2  0  0  0
   15.8457   43.6626   -9.0646 N   0  0  0  0  0  0
   15.7438   44.8494   -8.4396 C   0  0  0  0  0  0
   14.6856   45.3418   -8.0400 O   0  0  0  0  0  0
   17.0240   45.6245   -8.3624 C   0  0  0  0  0  0
   18.2537   44.9892   -8.0816 C   0  0  0  0  0  0
   19.4470   45.7354   -8.0431 C   0  0  0  0  0  0
   19.4223   47.1160   -8.3122 C   0  0  0  0  0  0
   18.2039   47.7663   -8.6093 C   0  0  0  0  0  0
   17.0052   47.0181   -8.5789 C   0  0  0  0  0  0
   18.2161   49.2403   -8.9099 C   0  0  0  0  0  0
   18.7425   49.9895   -8.0822 O   0  0  0  0  0  0
   15.0962   41.3060   -9.2089 C   0  0  1  0  0  0
   15.4311   40.9521   -7.7357 C   0  0  0  0  0  0
   16.6987   40.1946   -7.6149 N   0  3  0  0  0  0
   17.8962   41.0062   -7.9200 C   0  0  0  0  0  0
   19.2034   40.2960   -7.6409 C   0  0  0  0  0  0
   19.6087   39.1905   -8.4157 C   0  0  0  0  0  0
   20.8606   38.5903   -8.1754 C   0  0  0  0  0  0
   21.7037   39.0888   -7.1625 C   0  0  0  0  0  0
   21.3122   40.2011   -6.3886 C   0  0  0  0  0  0
   20.0603   40.7971   -6.6401 C   0  0  0  0  0  0
   22.2364   40.7722   -5.3187 C   0  0  0  0  0  0
   21.5879   40.7575   -3.9250 C   0  0  0  0  0  0
   22.7245   42.1814   -5.6913 C   0  0  0  0  0  0
   14.0614   40.4465   -9.6400 O   0  0  0  0  0  0
   13.0997   44.5194  -12.5290 C   0  0  0  0  0  0
   13.9026   45.0664  -10.6483 H   0  0  0  0  0  0
   13.8457   43.0500   -8.9151 H   0  0  0  0  0  0
   15.9377   41.0520   -9.8548 H   0  0  0  0  0  0
   17.0595   53.0520  -10.2081 H   0  0  0  0  0  0
   16.8323   51.9685   -8.8405 H   0  0  0  0  0  0
   15.8816   51.7524  -10.3081 H   0  0  0  0  0  0
   17.9954   51.1868  -11.5805 H   0  0  0  0  0  0
   18.9390   51.4343  -10.1569 H   0  0  0  0  0  0
   16.0601   48.5485  -10.5398 H   0  0  0  0  0  0
   16.4851   49.6202  -11.8011 H   0  0  0  0  0  0
   18.5444   48.1855  -12.2645 H   0  0  0  0  0  0
   17.9210   46.9934  -11.1635 H   0  0  0  0  0  0
   16.5250   48.0362  -13.6616 H   0  0  0  0  0  0
   17.3494   46.5168  -13.5511 H   0  0  0  0  0  0
   14.9012   47.1601  -11.8160 H   0  0  0  0  0  0
   14.7797   46.5500  -13.4321 H   0  0  0  0  0  0
   15.9552   44.4854  -12.8399 H   0  0  0  0  0  0
   16.3191   45.0900  -11.2634 H   0  0  0  0  0  0
   13.5501   42.4375  -11.2304 H   0  0  0  0  0  0
   15.2333   42.5465  -11.5928 H   0  0  0  0  0  0
   16.7659   43.4050   -9.3845 H   0  0  0  0  0  0
   18.3005   43.9319   -7.8868 H   0  0  0  0  0  0
   20.3844   45.2444   -7.8235 H   0  0  0  0  0  0
   20.3466   47.6761   -8.2964 H   0  0  0  0  0  0
   16.0599   47.5032   -8.7509 H   0  0  0  0  0  0
   15.4992   41.8449   -7.1168 H   0  0  0  0  0  0
   14.6324   40.3602   -7.2820 H   0  0  0  0  0  0
   16.7769   39.8993   -6.6489 H   0  0  0  0  0  0
   17.9072   41.3313   -8.9590 H   0  0  0  0  0  0
   17.8495   41.9038   -7.3033 H   0  0  0  0  0  0
   18.9743   38.8068   -9.2015 H   0  0  0  0  0  0
   21.1785   37.7495   -8.7743 H   0  0  0  0  0  0
   22.6613   38.6228   -6.9920 H   0  0  0  0  0  0
   19.7611   41.6598   -6.0614 H   0  0  0  0  0  0
   23.1181   40.1354   -5.2666 H   0  0  0  0  0  0
   21.2875   39.7500   -3.6430 H   0  0  0  0  0  0
   20.7029   41.3924   -3.8796 H   0  0  0  0  0  0
   22.2866   41.1119   -3.1669 H   0  0  0  0  0  0
   23.2369   42.1761   -6.6548 H   0  0  0  0  0  0
   23.4274   42.5614   -4.9475 H   0  0  0  0  0  0
   21.8984   42.8897   -5.7550 H   0  0  0  0  0  0
   13.2987   40.5505   -9.0740 H   0  0  0  0  0  0
   13.3400   43.9475  -13.4243 H   0  0  0  0  0  0
   12.8605   45.5370  -12.8340 H   0  0  0  0  0  0
   12.1831   44.0989  -12.1131 H   0  0  0  0  0  0
   16.6638   39.3703   -8.1977 H   0  0  0  0  0  0
  1  2  1  0  0  0
  1 41  1  0  0  0
  1 42  1  0  0  0
  1 43  1  0  0  0
  2  3  1  0  0  0
  2 44  1  0  0  0
  2 45  1  0  0  0
  3 21  1  0  0  0
  3  4  1  0  0  0
  4  5  1  0  0  0
  4 46  1  0  0  0
  4 47  1  0  0  0
  5  6  1  0  0  0
  5 48  1  0  0  0
  5 49  1  0  0  0
  6  7  1  0  0  0
  6 50  1  0  0  0
  6 51  1  0  0  0
  7  8  1  0  0  0
  7 52  1  0  0  0
  7 53  1  0  0  0
  8  9  1  0  0  0
  8 54  1  0  0  0
  8 55  1  0  0  0
  9 38  1  0  0  0
  9 10  1  0  0  0
  9 37  1  0  0  0
 10 11  1  0  0  0
 10 56  1  0  0  0
 10 57  1  0  0  0
 11 39  1  0  0  0
 11 12  1  0  0  0
 11 23  1  0  0  0
 12 13  1  0  0  0
 12 58  1  0  0  0
 13 14  2  0  0  0
 13 15  1  0  0  0
 15 20  1  0  0  0
 15 16  2  0  0  0
 16 17  1  0  0  0
 16 59  1  0  0  0
 17 18  2  0  0  0
 17 60  1  0  0  0
 18 19  1  0  0  0
 18 61  1  0  0  0
 19 20  2  0  0  0
 19 21  1  0  0  0
 20 62  1  0  0  0
 21 22  2  0  0  0
 23 40  1  0  0  0
 23 24  1  0  0  0
 23 36  1  0  0  0
 24 25  1  0  0  0
 24 63  1  0  0  0
 24 64  1  0  0  0
 25 26  1  0  0  0
 25 65  1  0  0  0
 25 83  1  0  0  0
 26 27  1  0  0  0
 26 66  1  0  0  0
 26 67  1  0  0  0
 27 32  1  0  0  0
 27 28  2  0  0  0
 28 29  1  0  0  0
 28 68  1  0  0  0
 29 30  2  0  0  0
 29 69  1  0  0  0
 30 31  1  0  0  0
 30 70  1  0  0  0
 31 32  2  0  0  0
 31 33  1  0  0  0
 32 71  1  0  0  0
 33 34  1  0  0  0
 33 35  1  0  0  0
 33 72  1  0  0  0
 34 73  1  0  0  0
 34 74  1  0  0  0
 34 75  1  0  0  0
 35 76  1  0  0  0
 35 77  1  0  0  0
 35 78  1  0  0  0
 36 79  1  0  0  0
 37 80  1  0  0  0
 37 81  1  0  0  0
 37 82  1  0  0  0
M  CHG  1  25   1
M  END
> <s_m_source_file>
BACE_6.smi

> <i_m_source_file_index>
1

> <i_lp_mmshare_version>
42013

> <i_f3d_flags>
0

> <s_epik_input>
YzEyW2NIXVtjSF1bY0hdYyhbY0hdMilDKD1PKU4oW0NIMl1bQ0gzXSlbQ0gyXVtDSDJdW0NIMl1bQ0gyXVtDSDJdW0NAQEhdKFtDSDNdKVtDSDJdW0NASF0oW05IXUMxPU8pW0NASF0oW09IXSlbQ0gyXVtOSF1bQ0gyXWMzW2NIXVtjSF1bY0hdYyhbY0hdMylbQ0hdKFtDSDNdKVtDSDNd

> <s_epik_cmdline>
J2VwaWtfcHl0aG9uJywgJy1waCcsICc3LjAnLCAnLXRuJywgJzgnLCAnLW1hJywgJzIwMCcsICctaW1hZScsICc8aW5maWxlLm1hZT4nLCAnLW9tYWUnLCAnPG91dGZpbGUubWFlPic=

> <r_epik_Ionization_Penalty>
  0.0165

> <r_epik_Ionization_Penalty_Charging>
  0.0165

> <r_epik_Ionization_Penalty_Neutral>
  0.0000

> <r_epik_State_Penalty>
  0.0130

> <r_epik_Charging_Adjusted_Penalty>
0.0295552

> <i_epik_Tot_Q>
1

> <i_epik_Tot_abs_Q>
1

> <s_lp_Force_Field>
OPLS_2005

> <r_lp_Energy>
42.7267

> <b_lp_Chiralities_Consistent>
1

> <s_lp_Variant>
BACE_6.smi:1-1

> <chiral flag>
1

> <version>
0

> <r_i_glide_lipo>
-0.959692

> <r_i_glide_hbond>
-0.531466

> <r_i_glide_metal>
-0

> <r_i_glide_rewards>
0

> <r_i_glide_erotb>
0.395592

> <r_i_glide_esite>
-0.02202

> <chiral flag>
1

> <s_i_glide_gridfile>
second_dock_grid_2

> <i_i_glide_lignum>
12

> <i_i_glide_rotatable_bonds>
8

> <r_i_docking_score>
-3.7161

> <r_i_glide_ligand_efficiency>
-0.100435

> <r_i_glide_ligand_efficiency_sa>
-0.334672

> <r_i_glide_ligand_efficiency_ln>
-0.805935

> <r_glide_XP_GScore>
-3.7291

> <r_i_glide_gscore>
-3.7291

> <r_i_glide_evdw>
-35.1841

> <r_i_glide_ecoul>
-15.2149

> <r_i_glide_energy>
-50.399

> <r_i_glide_einternal>
4.3282

> <r_i_glide_emodel>
-59.9894

> <r_glide_XP_HBond>
-0.536938

> <i_i_glide_confnum>
1

> <i_i_glide_posenum>
15

> <r_i_glide_eff_state_penalty>
0.013

> <i_glide_XP_PoseRank>
3

$$$$
BACE_6.smi:1
                    3D
 Structure written by MMmdl.
 83 85  0  0  1  0            999 V2000
   16.6517   52.1024   -9.9256 C   0  0  0  0  0  0
   17.8252   51.2501  -10.4330 C   0  0  0  0  0  0
   17.6746   49.8344  -10.0540 N   0  0  0  0  0  0
   16.9423   49.0407  -11.0614 C   0  0  0  0  0  0
   17.7722   47.9608  -11.7881 C   0  0  0  0  0  0
   17.0414   47.3773  -13.0176 C   0  0  0  0  0  0
   15.7036   46.6625  -12.7296 C   0  0  0  0  0  0
   15.8561   45.2210  -12.2117 C   0  0  0  0  0  0
   14.5399   44.5740  -11.7051 C   0  0  2  0  0  0
   14.7770   43.1287  -11.1859 C   0  0  0  0  0  0
   14.8772   42.9929   -9.6474 C   0  0  2  0  0  0
   15.9650   43.8316   -9.1567 N   0  0  0  0  0  0
   15.8064   44.9492   -8.4404 C   0  0  0  0  0  0
   14.7151   45.3500   -8.0372 O   0  0  0  0  0  0
   17.0494   45.7657   -8.2842 C   0  0  0  0  0  0
   18.2715   45.1717   -7.9037 C   0  0  0  0  0  0
   19.4332   45.9619   -7.8091 C   0  0  0  0  0  0
   19.3821   47.3359   -8.1177 C   0  0  0  0  0  0
   18.1700   47.9381   -8.5199 C   0  0  0  0  0  0
   17.0012   47.1489   -8.5469 C   0  0  0  0  0  0
   18.1448   49.4082   -8.8469 C   0  0  0  0  0  0
   18.6242   50.1867   -8.0186 O   0  0  0  0  0  0
   15.1109   41.5431   -9.1777 C   0  0  1  0  0  0
   15.2576   41.4349   -7.6399 C   0  0  0  0  0  0
   14.9688   40.1109   -7.0362 N   0  3  0  0  0  0
   15.6252   38.9077   -7.5924 C   0  0  0  0  0  0
   17.1147   39.0463   -7.8711 C   0  0  0  0  0  0
   18.0523   38.9500   -6.8254 C   0  0  0  0  0  0
   19.4218   39.1516   -7.0797 C   0  0  0  0  0  0
   19.8601   39.4601   -8.3822 C   0  0  0  0  0  0
   18.9324   39.5284   -9.4446 C   0  0  0  0  0  0
   17.5710   39.2676   -9.1872 C   0  0  0  0  0  0
   19.3708   39.9083  -10.8520 C   0  0  0  0  0  0
   20.4360   38.9499  -11.3870 C   0  0  0  0  0  0
   19.8304   41.3731  -10.9228 C   0  0  0  0  0  0
   14.0599   40.7273   -9.6399 O   0  0  0  0  0  0
   13.3998   44.5996  -12.7436 C   0  0  0  0  0  0
   14.1815   45.1782  -10.8719 H   0  0  0  0  0  0
   13.9260   43.3237   -9.2270 H   0  0  0  0  0  0
   16.0205   41.2079   -9.6613 H   0  0  0  0  0  0
   16.7804   53.1454  -10.2151 H   0  0  0  0  0  0
   16.5779   52.0722   -8.8407 H   0  0  0  0  0  0
   15.7026   51.7630  -10.3380 H   0  0  0  0  0  0
   17.9128   51.3486  -11.5153 H   0  0  0  0  0  0
   18.7633   51.6556  -10.0488 H   0  0  0  0  0  0
   16.0610   48.6055  -10.6031 H   0  0  0  0  0  0
   16.5273   49.7058  -11.8202 H   0  0  0  0  0  0
   18.7112   48.4034  -12.1243 H   0  0  0  0  0  0
   18.0488   47.1534  -11.1128 H   0  0  0  0  0  0
   16.8520   48.1941  -13.7154 H   0  0  0  0  0  0
   17.7087   46.6988  -13.5510 H   0  0  0  0  0  0
   15.0924   47.2436  -12.0427 H   0  0  0  0  0  0
   15.1401   46.6362  -13.6605 H   0  0  0  0  0  0
   16.3026   44.6067  -12.9940 H   0  0  0  0  0  0
   16.5805   45.2265  -11.3975 H   0  0  0  0  0  0
   13.9586   42.4933  -11.5246 H   0  0  0  0  0  0
   15.6723   42.7028  -11.6408 H   0  0  0  0  0  0
   16.8998   43.6028   -9.4618 H   0  0  0  0  0  0
   18.3274   44.1151   -7.6797 H   0  0  0  0  0  0
   20.3677   45.5096   -7.5126 H   0  0  0  0  0  0
   20.2859   47.9256   -8.0566 H   0  0  0  0  0  0
   16.0596   47.5986   -8.7978 H   0  0  0  0  0  0
   16.2484   41.7643   -7.3228 H   0  0  0  0  0  0
   14.5477   42.1352   -7.2062 H   0  0  0  0  0  0
   15.1837   40.1719   -6.0476 H   0  0  0  0  0  0
   15.4601   38.1500   -6.8402 H   0  0  0  0  0  0
   15.1063   38.5762   -8.4923 H   0  0  0  0  0  0
   17.7183   38.7448   -5.8180 H   0  0  0  0  0  0
   20.1334   39.0924   -6.2693 H   0  0  0  0  0  0
   20.9095   39.6464   -8.5583 H   0  0  0  0  0  0
   16.8645   39.2784  -10.0037 H   0  0  0  0  0  0
   18.5054   39.8126  -11.5102 H   0  0  0  0  0  0
   20.0592   37.9304  -11.3268 H   0  0  0  0  0  0
   21.3593   39.0022  -10.8127 H   0  0  0  0  0  0
   20.6779   39.1623  -12.4282 H   0  0  0  0  0  0
   19.0384   42.0475  -10.5903 H   0  0  0  0  0  0
   20.0965   41.6515  -11.9422 H   0  0  0  0  0  0
   20.7037   41.5506  -10.2936 H   0  0  0  0  0  0
   13.2495   40.9499   -9.1826 H   0  0  0  0  0  0
   13.6358   44.0161  -13.6333 H   0  0  0  0  0  0
   13.1578   45.6122  -13.0613 H   0  0  0  0  0  0
   12.4851   44.1815  -12.3218 H   0  0  0  0  0  0
   13.9724   39.9542   -7.0968 H   0  0  0  0  0  0
  1  2  1  0  0  0
  1 41  1  0  0  0
  1 42  1  0  0  0
  1 43  1  0  0  0
  2  3  1  0  0  0
  2 44  1  0  0  0
  2 45  1  0  0  0
  3 21  1  0  0  0
  3  4  1  0  0  0
  4  5  1  0  0  0
  4 46  1  0  0  0
  4 47  1  0  0  0
  5  6  1  0  0  0
  5 48  1  0  0  0
  5 49  1  0  0  0
  6  7  1  0  0  0
  6 50  1  0  0  0
  6 51  1  0  0  0
  7  8  1  0  0  0
  7 52  1  0  0  0
  7 53  1  0  0  0
  8  9  1  0  0  0
  8 54  1  0  0  0
  8 55  1  0  0  0
  9 38  1  0  0  0
  9 10  1  0  0  0
  9 37  1  0  0  0
 10 11  1  0  0  0
 10 56  1  0  0  0
 10 57  1  0  0  0
 11 39  1  0  0  0
 11 12  1  0  0  0
 11 23  1  0  0  0
 12 13  1  0  0  0
 12 58  1  0  0  0
 13 14  2  0  0  0
 13 15  1  0  0  0
 15 20  1  0  0  0
 15 16  2  0  0  0
 16 17  1  0  0  0
 16 59  1  0  0  0
 17 18  2  0  0  0
 17 60  1  0  0  0
 18 19  1  0  0  0
 18 61  1  0  0  0
 19 20  2  0  0  0
 19 21  1  0  0  0
 20 62  1  0  0  0
 21 22  2  0  0  0
 23 40  1  0  0  0
 23 24  1  0  0  0
 23 36  1  0  0  0
 24 25  1  0  0  0
 24 63  1  0  0  0
 24 64  1  0  0  0
 25 26  1  0  0  0
 25 65  1  0  0  0
 25 83  1  0  0  0
 26 27  1  0  0  0
 26 66  1  0  0  0
 26 67  1  0  0  0
 27 32  1  0  0  0
 27 28  2  0  0  0
 28 29  1  0  0  0
 28 68  1  0  0  0
 29 30  2  0  0  0
 29 69  1  0  0  0
 30 31  1  0  0  0
 30 70  1  0  0  0
 31 32  2  0  0  0
 31 33  1  0  0  0
 32 71  1  0  0  0
 33 34  1  0  0  0
 33 35  1  0  0  0
 33 72  1  0  0  0
 34 73  1  0  0  0
 34 74  1  0  0  0
 34 75  1  0  0  0
 35 76  1  0  0  0
 35 77  1  0  0  0
 35 78  1  0  0  0
 36 79  1  0  0  0
 37 80  1  0  0  0
 37 81  1  0  0  0
 37 82  1  0  0  0
M  CHG  1  25   1
M  END
> <s_m_source_file>
BACE_6.smi

> <i_m_source_file_index>
1

> <i_lp_mmshare_version>
42013

> <i_f3d_flags>
0

> <s_epik_input>
YzEyW2NIXVtjSF1bY0hdYyhbY0hdMilDKD1PKU4oW0NIMl1bQ0gzXSlbQ0gyXVtDSDJdW0NIMl1bQ0gyXVtDSDJdW0NAQEhdKFtDSDNdKVtDSDJdW0NASF0oW05IXUMxPU8pW0NASF0oW09IXSlbQ0gyXVtOSF1bQ0gyXWMzW2NIXVtjSF1bY0hdYyhbY0hdMylbQ0hdKFtDSDNdKVtDSDNd

> <s_epik_cmdline>
J2VwaWtfcHl0aG9uJywgJy1waCcsICc3LjAnLCAnLXRuJywgJzgnLCAnLW1hJywgJzIwMCcsICctaW1hZScsICc8aW5maWxlLm1hZT4nLCAnLW9tYWUnLCAnPG91dGZpbGUubWFlPic=

> <r_epik_Ionization_Penalty>
  0.0165

> <r_epik_Ionization_Penalty_Charging>
  0.0165

> <r_epik_Ionization_Penalty_Neutral>
  0.0000

> <r_epik_State_Penalty>
  0.0130

> <r_epik_Charging_Adjusted_Penalty>
0.0295552

> <i_epik_Tot_Q>
1

> <i_epik_Tot_abs_Q>
1

> <s_lp_Force_Field>
OPLS_2005

> <r_lp_Energy>
42.7267

> <b_lp_Chiralities_Consistent>
1

> <s_lp_Variant>
BACE_6.smi:1-1

> <chiral flag>
1

> <version>
0

> <r_i_glide_lipo>
-0.959692

> <r_i_glide_hbond>
-0.531466

> <r_i_glide_metal>
-0

> <r_i_glide_rewards>
0

> <r_i_glide_erotb>
0.395592

> <r_i_glide_esite>
-0.02202

> <chiral flag>
1

> <s_i_glide_gridfile>
second_dock_grid_2

> <i_i_glide_lignum>
12

> <i_i_glide_rotatable_bonds>
8

> <r_i_docking_score>
-3.08818

> <r_i_glide_ligand_efficiency>
-0.0834643

> <r_i_glide_ligand_efficiency_sa>
-0.278121

> <r_i_glide_ligand_efficiency_ln>
-0.669753

> <r_glide_XP_GScore>
-3.10118

> <r_i_glide_gscore>
-3.10118

> <r_i_glide_evdw>
-35.8423

> <r_i_glide_ecoul>
-16.6803

> <r_i_glide_energy>
-52.5226

> <r_i_glide_einternal>
6.37376

> <r_i_glide_emodel>
-66.2799

> <r_glide_XP_HBond>
-0.536938

> <i_i_glide_confnum>
1

> <i_i_glide_posenum>
16

> <r_i_glide_eff_state_penalty>
0.013

> <i_glide_XP_PoseRank>
4

$$$$
BACE_6.smi:1
                    3D
 Structure written by MMmdl.
 83 85  0  0  1  0            999 V2000
   16.3766   51.9311   -9.9642 C   0  0  0  0  0  0
   17.7269   51.3030  -10.3361 C   0  0  0  0  0  0
   17.7450   49.8550  -10.0666 N   0  0  0  0  0  0
   16.8023   49.0760  -10.9025 C   0  0  0  0  0  0
   17.4801   48.0663  -11.8599 C   0  0  0  0  0  0
   16.5246   47.4985  -12.9279 C   0  0  0  0  0  0
   15.3392   46.6625  -12.4025 C   0  0  0  0  0  0
   15.7026   45.2290  -11.9566 C   0  0  0  0  0  0
   14.5098   44.4125  -11.3913 C   0  0  2  0  0  0
   14.9297   43.0098  -10.8635 C   0  0  0  0  0  0
   15.2131   42.9323   -9.3377 C   0  0  2  0  0  0
   16.3591   43.7635   -9.0025 N   0  0  0  0  0  0
   16.3490   44.9074   -8.3019 C   0  0  0  0  0  0
   15.3579   45.3475   -7.7216 O   0  0  0  0  0  0
   17.6018   45.7164   -8.4322 C   0  0  0  0  0  0
   18.8646   45.0873   -8.4893 C   0  0  0  0  0  0
   20.0183   45.8486   -8.7459 C   0  0  0  0  0  0
   19.9070   47.2341   -8.9645 C   0  0  0  0  0  0
   18.6581   47.8806   -8.8788 C   0  0  0  0  0  0
   17.5128   47.1204   -8.5533 C   0  0  0  0  0  0
   18.5958   49.3632   -9.1230 C   0  0  0  0  0  0
   19.3955   50.0774   -8.5111 O   0  0  0  0  0  0
   15.4555   41.4976   -8.7825 C   0  0  1  0  0  0
   15.4642   41.3935   -7.2401 C   0  0  0  0  0  0
   15.5893   39.9815   -6.7838 N   0  3  0  0  0  0
   16.0309   38.9798   -7.7861 C   0  0  0  0  0  0
   17.5242   39.0390   -8.0524 C   0  0  0  0  0  0
   18.4299   38.3702   -7.2055 C   0  0  0  0  0  0
   19.7983   38.3311   -7.5269 C   0  0  0  0  0  0
   20.2773   38.9980   -8.6709 C   0  0  0  0  0  0
   19.3860   39.7175   -9.4982 C   0  0  0  0  0  0
   18.0102   39.7301   -9.1767 C   0  0  0  0  0  0
   19.8799   40.4424  -10.7473 C   0  0  0  0  0  0
   20.7283   41.6676  -10.3746 C   0  0  0  0  0  0
   18.7445   40.8246  -11.7151 C   0  0  0  0  0  0
   14.4355   40.6423   -9.2665 O   0  0  0  0  0  0
   13.3855   44.2667  -12.4361 C   0  0  0  0  0  0
   14.0824   44.9716  -10.5588 H   0  0  0  0  0  0
   14.3373   43.3368   -8.8307 H   0  0  0  0  0  0
   16.4104   41.1248   -9.1586 H   0  0  0  0  0  0
   16.3853   53.0032  -10.1554 H   0  0  0  0  0  0
   16.1497   51.7851   -8.9079 H   0  0  0  0  0  0
   15.5615   51.5020  -10.5448 H   0  0  0  0  0  0
   17.9355   51.4917  -11.3886 H   0  0  0  0  0  0
   18.5285   51.8192   -9.8090 H   0  0  0  0  0  0
   16.0607   48.5842  -10.2745 H   0  0  0  0  0  0
   16.2094   49.7472  -11.5243 H   0  0  0  0  0  0
   18.2973   48.5736  -12.3731 H   0  0  0  0  0  0
   17.9333   47.2397  -11.3160 H   0  0  0  0  0  0
   16.1290   48.3337  -13.5079 H   0  0  0  0  0  0
   17.0962   46.9008  -13.6382 H   0  0  0  0  0  0
   14.8231   47.1882  -11.5984 H   0  0  0  0  0  0
   14.6208   46.6021  -13.2174 H   0  0  0  0  0  0
   16.1402   44.6956  -12.8007 H   0  0  0  0  0  0
   16.4914   45.2915  -11.2098 H   0  0  0  0  0  0
   14.1377   42.2978  -11.0912 H   0  0  0  0  0  0
   15.7920   42.6489  -11.4290 H   0  0  0  0  0  0
   17.2275   43.4954   -9.4433 H   0  0  0  0  0  0
   18.9580   44.0191   -8.3570 H   0  0  0  0  0  0
   20.9831   45.3677   -8.7958 H   0  0  0  0  0  0
   20.7830   47.8138   -9.2128 H   0  0  0  0  0  0
   16.5500   47.5995   -8.4514 H   0  0  0  0  0  0
   16.2731   42.0126   -6.8535 H   0  0  0  0  0  0
   14.5454   41.8203   -6.8423 H   0  0  0  0  0  0
   16.2174   39.9493   -5.9927 H   0  0  0  0  0  0
   15.7492   37.9847   -7.4436 H   0  0  0  0  0  0
   15.4924   39.1452   -8.7227 H   0  0  0  0  0  0
   18.0789   37.8592   -6.3215 H   0  0  0  0  0  0
   20.4861   37.7916   -6.8923 H   0  0  0  0  0  0
   21.3294   38.9466   -8.9015 H   0  0  0  0  0  0
   17.3113   40.2663   -9.7997 H   0  0  0  0  0  0
   20.5282   39.7501  -11.2881 H   0  0  0  0  0  0
   21.5889   41.3834   -9.7690 H   0  0  0  0  0  0
   20.1483   42.3939   -9.8034 H   0  0  0  0  0  0
   21.1041   42.1718  -11.2634 H   0  0  0  0  0  0
   18.1936   39.9407  -12.0396 H   0  0  0  0  0  0
   19.1402   41.3056  -12.6082 H   0  0  0  0  0  0
   18.0371   41.5249  -11.2723 H   0  0  0  0  0  0
   13.6201   40.8128   -8.8032 H   0  0  0  0  0  0
   13.7423   43.7684  -13.3374 H   0  0  0  0  0  0
   12.9672   45.2291  -12.7286 H   0  0  0  0  0  0
   12.5559   43.6825  -12.0447 H   0  0  0  0  0  0
   14.6750   39.6929   -6.4728 H   0  0  0  0  0  0
  1  2  1  0  0  0
  1 41  1  0  0  0
  1 42  1  0  0  0
  1 43  1  0  0  0
  2  3  1  0  0  0
  2 44  1  0  0  0
  2 45  1  0  0  0
  3 21  1  0  0  0
  3  4  1  0  0  0
  4  5  1  0  0  0
  4 46  1  0  0  0
  4 47  1  0  0  0
  5  6  1  0  0  0
  5 48  1  0  0  0
  5 49  1  0  0  0
  6  7  1  0  0  0
  6 50  1  0  0  0
  6 51  1  0  0  0
  7  8  1  0  0  0
  7 52  1  0  0  0
  7 53  1  0  0  0
  8  9  1  0  0  0
  8 54  1  0  0  0
  8 55  1  0  0  0
  9 38  1  0  0  0
  9 10  1  0  0  0
  9 37  1  0  0  0
 10 11  1  0  0  0
 10 56  1  0  0  0
 10 57  1  0  0  0
 11 39  1  0  0  0
 11 12  1  0  0  0
 11 23  1  0  0  0
 12 13  1  0  0  0
 12 58  1  0  0  0
 13 14  2  0  0  0
 13 15  1  0  0  0
 15 20  1  0  0  0
 15 16  2  0  0  0
 16 17  1  0  0  0
 16 59  1  0  0  0
 17 18  2  0  0  0
 17 60  1  0  0  0
 18 19  1  0  0  0
 18 61  1  0  0  0
 19 20  2  0  0  0
 19 21  1  0  0  0
 20 62  1  0  0  0
 21 22  2  0  0  0
 23 40  1  0  0  0
 23 24  1  0  0  0
 23 36  1  0  0  0
 24 25  1  0  0  0
 24 63  1  0  0  0
 24 64  1  0  0  0
 25 26  1  0  0  0
 25 65  1  0  0  0
 25 83  1  0  0  0
 26 27  1  0  0  0
 26 66  1  0  0  0
 26 67  1  0  0  0
 27 32  1  0  0  0
 27 28  2  0  0  0
 28 29  1  0  0  0
 28 68  1  0  0  0
 29 30  2  0  0  0
 29 69  1  0  0  0
 30 31  1  0  0  0
 30 70  1  0  0  0
 31 32  2  0  0  0
 31 33  1  0  0  0
 32 71  1  0  0  0
 33 34  1  0  0  0
 33 35  1  0  0  0
 33 72  1  0  0  0
 34 73  1  0  0  0
 34 74  1  0  0  0
 34 75  1  0  0  0
 35 76  1  0  0  0
 35 77  1  0  0  0
 35 78  1  0  0  0
 36 79  1  0  0  0
 37 80  1  0  0  0
 37 81  1  0  0  0
 37 82  1  0  0  0
M  CHG  1  25   1
M  END
> <s_m_source_file>
BACE_6.smi

> <i_m_source_file_index>
1

> <i_lp_mmshare_version>
42013

> <i_f3d_flags>
0

> <s_epik_input>
YzEyW2NIXVtjSF1bY0hdYyhbY0hdMilDKD1PKU4oW0NIMl1bQ0gzXSlbQ0gyXVtDSDJdW0NIMl1bQ0gyXVtDSDJdW0NAQEhdKFtDSDNdKVtDSDJdW0NASF0oW05IXUMxPU8pW0NASF0oW09IXSlbQ0gyXVtOSF1bQ0gyXWMzW2NIXVtjSF1bY0hdYyhbY0hdMylbQ0hdKFtDSDNdKVtDSDNd

> <s_epik_cmdline>
J2VwaWtfcHl0aG9uJywgJy1waCcsICc3LjAnLCAnLXRuJywgJzgnLCAnLW1hJywgJzIwMCcsICctaW1hZScsICc8aW5maWxlLm1hZT4nLCAnLW9tYWUnLCAnPG91dGZpbGUubWFlPic=

> <r_epik_Ionization_Penalty>
  0.0165

> <r_epik_Ionization_Penalty_Charging>
  0.0165

> <r_epik_Ionization_Penalty_Neutral>
  0.0000

> <r_epik_State_Penalty>
  0.0130

> <r_epik_Charging_Adjusted_Penalty>
0.0295552

> <i_epik_Tot_Q>
1

> <i_epik_Tot_abs_Q>
1

> <s_lp_Force_Field>
OPLS_2005

> <r_lp_Energy>
42.7267

> <b_lp_Chiralities_Consistent>
1

> <s_lp_Variant>
BACE_6.smi:1-1

> <chiral flag>
1

> <version>
0

> <r_i_glide_lipo>
-0.959692

> <r_i_glide_hbond>
-0.531466

> <r_i_glide_metal>
-0

> <r_i_glide_rewards>
0

> <r_i_glide_erotb>
0.395592

> <r_i_glide_esite>
-0.02202

> <chiral flag>
1

> <s_i_glide_gridfile>
second_dock_grid_2

> <i_i_glide_lignum>
12

> <i_i_glide_rotatable_bonds>
8

> <r_i_docking_score>
-2.74846

> <r_i_glide_ligand_efficiency>
-0.0742828

> <r_i_glide_ligand_efficiency_sa>
-0.247527

> <r_i_glide_ligand_efficiency_ln>
-0.596077

> <r_glide_XP_GScore>
-2.76146

> <r_i_glide_gscore>
-2.76146

> <r_i_glide_evdw>
-31.1594

> <r_i_glide_ecoul>
-14.2073

> <r_i_glide_energy>
-45.3667

> <r_i_glide_einternal>
12.4343

> <r_i_glide_emodel>
-60.2765

> <r_glide_XP_HBond>
-0.536938

> <i_i_glide_confnum>
1

> <i_i_glide_posenum>
2

> <r_i_glide_eff_state_penalty>
0.013

> <i_glide_XP_PoseRank>
5

$$$$
