BACE_12.smi:1
                    3D
 Structure written by MMmdl.
 78 81  0  0  1  0            999 V2000
   16.1080   46.7261  -11.5858 C   0  0  0  0  0  0
   15.1282   45.9902  -12.5225 C   0  0  0  0  0  0
   14.2752   47.0112  -13.2988 C   0  0  0  0  0  0
   14.2662   44.9149  -11.8458 C   0  0  0  0  0  0
   13.2576   44.2447  -12.5787 C   0  0  0  0  0  0
   12.4591   43.2550  -11.9748 C   0  0  0  0  0  0
   12.6496   42.9276  -10.6205 C   0  0  0  0  0  0
   13.6510   43.5817   -9.8771 C   0  0  0  0  0  0
   14.4597   44.5503  -10.4935 C   0  0  0  0  0  0
   13.8254   43.2793   -8.4026 C   0  0  0  0  0  0
   14.8947   42.3378   -8.0708 N   0  0  0  0  0  0
   14.8965   41.0558   -8.7903 C   0  0  0  0  0  0
   15.8184   40.0111   -8.1151 C   0  0  2  0  0  0
   17.3335   40.1305   -8.4591 C   0  0  2  0  0  0
   18.1478   38.9859   -7.7953 C   0  0  0  0  0  0
   19.6344   39.2556   -7.5971 C   0  0  0  0  0  0
   20.5288   39.1744   -8.6849 C   0  0  0  0  0  0
   21.9067   39.3824   -8.4798 C   0  0  0  0  0  0
   22.3969   39.6661   -7.1901 C   0  0  0  0  0  0
   21.5111   39.7447   -6.0943 C   0  0  0  0  0  0
   20.1302   39.5525   -6.3095 C   0  0  0  0  0  0
   22.0406   39.9896   -4.6874 C   0  0  0  0  0  0
   22.5375   41.4252   -4.4677 C   0  0  0  0  0  0
   21.4148   42.4748   -4.4425 C   0  0  0  0  0  0
   21.8092   43.7315   -5.2304 C   0  0  0  0  0  0
   20.7576   44.7340   -5.2410 N   0  0  0  0  0  0
   19.7607   44.7497   -6.2145 C   0  0  0  0  0  0
   19.4639   43.6267   -7.0126 C   0  0  0  0  0  0
   18.4331   43.7264   -7.9660 C   0  0  0  0  0  0
   17.7925   44.9711   -8.1272 C   0  0  0  0  0  0
   18.1484   46.0353   -7.2791 C   0  0  0  0  0  0
   19.0994   45.9200   -6.3205 N   0  0  0  0  0  0
   17.4943   47.2413   -7.4240 O   0  0  0  0  0  0
   17.8439   48.3085   -6.5477 C   0  0  0  0  0  0
   18.0242   42.5331   -8.7735 C   0  0  0  0  0  0
   17.7800   42.6173   -9.9785 O   0  0  0  0  0  0
   17.8646   41.4237   -8.0347 N   0  0  0  0  0  0
   15.3735   38.7316   -8.5291 O   0  0  0  0  0  0
   15.6721   40.0564   -7.0333 H   0  0  0  0  0  0
   17.4673   40.0464   -9.5389 H   0  0  0  0  0  0
   16.8085   46.0345  -11.1161 H   0  0  0  0  0  0
   15.5947   47.2829  -10.8015 H   0  0  0  0  0  0
   16.7098   47.4430  -12.1438 H   0  0  0  0  0  0
   15.7541   45.4617  -13.2400 H   0  0  0  0  0  0
   13.7051   46.5509  -14.1052 H   0  0  0  0  0  0
   14.9005   47.7800  -13.7530 H   0  0  0  0  0  0
   13.5602   47.5049  -12.6431 H   0  0  0  0  0  0
   13.0969   44.4634  -13.6237 H   0  0  0  0  0  0
   11.7008   42.7489  -12.5553 H   0  0  0  0  0  0
   12.0358   42.1694  -10.1516 H   0  0  0  0  0  0
   15.2052   45.0379   -9.8897 H   0  0  0  0  0  0
   14.0256   44.2240   -7.8982 H   0  0  0  0  0  0
   12.8729   42.9500   -7.9993 H   0  0  0  0  0  0
   14.8746   42.1683   -7.0637 H   0  0  0  0  0  0
   13.8880   40.6511   -8.8408 H   0  0  0  0  0  0
   15.1971   41.2020   -9.8289 H   0  0  0  0  0  0
   17.7234   38.7632   -6.8148 H   0  0  0  0  0  0
   18.0344   38.0655   -8.3709 H   0  0  0  0  0  0
   20.1615   38.9420   -9.6737 H   0  0  0  0  0  0
   22.5951   39.3137   -9.3105 H   0  0  0  0  0  0
   23.4581   39.8029   -7.0420 H   0  0  0  0  0  0
   19.4452   39.6190   -5.4762 H   0  0  0  0  0  0
   21.2709   39.7503   -3.9538 H   0  0  0  0  0  0
   22.8583   39.2946   -4.4961 H   0  0  0  0  0  0
   23.0899   41.4811   -3.5292 H   0  0  0  0  0  0
   23.2597   41.6691   -5.2452 H   0  0  0  0  0  0
   20.4948   42.0534   -4.8454 H   0  0  0  0  0  0
   21.1853   42.7368   -3.4075 H   0  0  0  0  0  0
   22.6983   44.1748   -4.7803 H   0  0  0  0  0  0
   22.0811   43.4711   -6.2546 H   0  0  0  0  0  0
   20.8602   45.5345   -4.6317 H   0  0  0  0  0  0
   19.9950   42.6936   -6.8983 H   0  0  0  0  0  0
   17.0191   45.0948   -8.8639 H   0  0  0  0  0  0
   17.2401   49.1842   -6.7847 H   0  0  0  0  0  0
   18.8915   48.5909   -6.6596 H   0  0  0  0  0  0
   17.6551   48.0450   -5.5061 H   0  0  0  0  0  0
   18.0565   41.5106   -7.0441 H   0  0  0  0  0  0
   15.5309   38.1163   -7.8233 H   0  0  0  0  0  0
  1  2  1  0  0  0
  1 41  1  0  0  0
  1 42  1  0  0  0
  1 43  1  0  0  0
  2  3  1  0  0  0
  2  4  1  0  0  0
  2 44  1  0  0  0
  3 45  1  0  0  0
  3 46  1  0  0  0
  3 47  1  0  0  0
  4  9  1  0  0  0
  4  5  2  0  0  0
  5  6  1  0  0  0
  5 48  1  0  0  0
  6  7  2  0  0  0
  6 49  1  0  0  0
  7  8  1  0  0  0
  7 50  1  0  0  0
  8  9  2  0  0  0
  8 10  1  0  0  0
  9 51  1  0  0  0
 10 11  1  0  0  0
 10 52  1  0  0  0
 10 53  1  0  0  0
 11 12  1  0  0  0
 11 54  1  0  0  0
 12 13  1  0  0  0
 12 55  1  0  0  0
 12 56  1  0  0  0
 13 39  1  0  0  0
 13 14  1  0  0  0
 13 38  1  0  0  0
 14 40  1  0  0  0
 14 37  1  0  0  0
 14 15  1  0  0  0
 15 16  1  0  0  0
 15 57  1  0  0  0
 15 58  1  0  0  0
 16 21  1  0  0  0
 16 17  2  0  0  0
 17 18  1  0  0  0
 17 59  1  0  0  0
 18 19  2  0  0  0
 18 60  1  0  0  0
 19 20  1  0  0  0
 19 61  1  0  0  0
 20 21  2  0  0  0
 20 22  1  0  0  0
 21 62  1  0  0  0
 22 23  1  0  0  0
 22 63  1  0  0  0
 22 64  1  0  0  0
 23 24  1  0  0  0
 23 65  1  0  0  0
 23 66  1  0  0  0
 24 25  1  0  0  0
 24 67  1  0  0  0
 24 68  1  0  0  0
 25 26  1  0  0  0
 25 69  1  0  0  0
 25 70  1  0  0  0
 26 27  1  0  0  0
 26 71  1  0  0  0
 27 32  1  0  0  0
 27 28  2  0  0  0
 28 29  1  0  0  0
 28 72  1  0  0  0
 29 30  2  0  0  0
 29 35  1  0  0  0
 30 31  1  0  0  0
 30 73  1  0  0  0
 31 32  2  0  0  0
 31 33  1  0  0  0
 33 34  1  0  0  0
 34 74  1  0  0  0
 34 75  1  0  0  0
 34 76  1  0  0  0
 35 36  2  0  0  0
 35 37  1  0  0  0
 37 77  1  0  0  0
 38 78  1  0  0  0
M  END
> <s_m_source_file>
BACE_12.smi

> <i_m_source_file_index>
1

> <i_lp_mmshare_version>
42013

> <i_f3d_flags>
0

> <s_epik_input>
W0NIM11bQ0hdKFtDSDNdKWMxW2NIXVtjSF1bY0hdYyhbY0hdMSlbQ0gyXVtOSF1bQ0gyXVtDQEBIXShbT0hdKVtDQEhdKFtDSDJdMilbTkhdQyg9TyljKFtjSF1jKG4zKU9bQ0gzXSlbY0hdYzNbTkhdW0NIMl1bQ0gyXVtDSDJdW0NIMl1jKFtjSF00KVtjSF1bY0hdW2NIXWMyNA==

> <s_epik_cmdline>
J2VwaWtfcHl0aG9uJywgJy1waCcsICc3LjAnLCAnLXRuJywgJzgnLCAnLW1hJywgJzIwMCcsICctaW1hZScsICc8aW5maWxlLm1hZT4nLCAnLW9tYWUnLCAnPG91dGZpbGUubWFlPic=

> <r_lp_tautomer_probability>
1

> <r_epik_Ionization_Penalty>
  2.0161

> <r_epik_Ionization_Penalty_Charging>
  0.0000

> <r_epik_Ionization_Penalty_Neutral>
  2.0161

> <r_epik_State_Penalty>
  2.1460

> <r_epik_Charging_Adjusted_Penalty>
2.14597

> <i_epik_Tot_Q>
0

> <i_epik_Tot_abs_Q>
0

> <s_lp_Force_Field>
OPLS_2005

> <r_lp_Energy>
24.9256

> <b_lp_Chiralities_Consistent>
1

> <s_lp_Variant>
BACE_12.smi:1-2

> <chiral flag>
1

> <version>
0

> <r_i_glide_lipo>
-0.570191

> <r_i_glide_hbond>
-0.212313

> <r_i_glide_metal>
-0

> <r_i_glide_rewards>
0

> <r_i_glide_erotb>
0.384471

> <r_i_glide_esite>
-0.149714

> <chiral flag>
1

> <s_i_glide_gridfile>
second_dock_grid_2

> <i_i_glide_lignum>
25

> <i_i_glide_rotatable_bonds>
8

> <r_i_docking_score>
-2.8053

> <r_i_glide_ligand_efficiency>
-0.0738237

> <r_i_glide_ligand_efficiency_sa>
-0.248194

> <r_i_glide_ligand_efficiency_ln>
-0.604905

> <r_glide_XP_GScore>
-4.9513

> <r_i_glide_gscore>
-4.9513

> <r_i_glide_evdw>
-41.8631

> <r_i_glide_ecoul>
-10.4884

> <r_i_glide_energy>
-52.3515

> <r_i_glide_einternal>
2.30296

> <r_i_glide_emodel>
-74.4901

> <r_glide_XP_HBond>
-1.26699

> <i_i_glide_confnum>
1

> <i_i_glide_posenum>
3

> <r_i_glide_eff_state_penalty>
2.146

> <i_glide_XP_PoseRank>
1

$$$$
BACE_12.smi:1
                    3D
 Structure written by MMmdl.
 78 81  0  0  1  0            999 V2000
   21.0646   40.1127   -6.0253 C   0  0  0  0  0  0
   21.5002   39.1974   -7.1870 C   0  0  0  0  0  0
   22.8685   39.6607   -7.7177 C   0  0  0  0  0  0
   20.4210   39.0714   -8.2702 C   0  0  0  0  0  0
   20.6983   39.2694   -9.6463 C   0  0  0  0  0  0
   19.6722   39.1698  -10.6058 C   0  0  0  0  0  0
   18.3542   38.8803  -10.2069 C   0  0  0  0  0  0
   18.0609   38.6764   -8.8452 C   0  0  0  0  0  0
   19.0994   38.7444   -7.8926 C   0  0  0  0  0  0
   16.6379   38.4104   -8.3904 C   0  0  0  0  0  0
   16.2499   39.3165   -7.3087 N   0  0  0  0  0  0
   15.2618   40.3566   -7.6161 C   0  0  0  0  0  0
   15.5474   41.2497   -8.8600 C   0  0  2  0  0  0
   16.9055   42.0276   -8.9387 C   0  0  2  0  0  0
   17.5969   42.2632   -7.5835 C   0  0  0  0  0  0
   18.7123   43.3008   -7.6003 C   0  0  0  0  0  0
   19.9240   43.0207   -8.2640 C   0  0  0  0  0  0
   20.9669   43.9661   -8.2566 C   0  0  0  0  0  0
   20.8042   45.1905   -7.5804 C   0  0  0  0  0  0
   19.5922   45.4820   -6.9185 C   0  0  0  0  0  0
   18.5458   44.5372   -6.9418 C   0  0  0  0  0  0
   19.4244   46.7957   -6.1729 C   0  0  0  0  0  0
   19.4200   48.0235   -7.0978 C   0  0  0  0  0  0
   18.2168   48.0816   -8.0612 C   0  0  0  0  0  0
   18.6467   48.3402   -9.5148 C   0  0  0  0  0  0
   17.5126   48.4733  -10.4167 N   0  0  0  0  0  0
   16.9159   47.3616  -11.0219 C   0  0  0  0  0  0
   17.1760   46.0288  -10.6294 C   0  0  0  0  0  0
   16.5005   44.9821  -11.2952 C   0  0  0  0  0  0
   15.5937   45.3157  -12.3170 C   0  0  0  0  0  0
   15.4051   46.6673  -12.6458 C   0  0  0  0  0  0
   16.0598   47.6700  -12.0169 N   0  0  0  0  0  0
   14.5007   46.9769  -13.6400 O   0  0  0  0  0  0
   14.3910   48.3351  -14.0483 C   0  0  0  0  0  0
   16.7414   43.5468  -10.9384 C   0  0  0  0  0  0
   16.8368   42.6798  -11.8083 O   0  0  0  0  0  0
   16.7655   43.3148   -9.6224 N   0  0  0  0  0  0
   14.4598   42.1516   -8.9318 O   0  0  0  0  0  0
   15.4677   40.6385   -9.7595 H   0  0  0  0  0  0
   17.6019   41.4333   -9.5280 H   0  0  0  0  0  0
   20.1685   39.7500   -5.5236 H   0  0  0  0  0  0
   20.8582   41.1239   -6.3741 H   0  0  0  0  0  0
   21.8438   40.1784   -5.2655 H   0  0  0  0  0  0
   21.6345   38.1935   -6.7795 H   0  0  0  0  0  0
   23.2692   38.9500   -8.4394 H   0  0  0  0  0  0
   23.5992   39.7495   -6.9142 H   0  0  0  0  0  0
   22.8004   40.6362   -8.2007 H   0  0  0  0  0  0
   21.6925   39.5083   -9.9928 H   0  0  0  0  0  0
   19.8919   39.3282  -11.6516 H   0  0  0  0  0  0
   17.5700   38.8289  -10.9471 H   0  0  0  0  0  0
   18.8577   38.5732   -6.8533 H   0  0  0  0  0  0
   15.9426   38.4660   -9.2272 H   0  0  0  0  0  0
   16.5950   37.3792   -8.0387 H   0  0  0  0  0  0
   15.9155   38.7615   -6.5188 H   0  0  0  0  0  0
   14.2911   39.8754   -7.7492 H   0  0  0  0  0  0
   15.1430   40.9895   -6.7346 H   0  0  0  0  0  0
   16.8583   42.5590   -6.8399 H   0  0  0  0  0  0
   18.0253   41.3240   -7.2400 H   0  0  0  0  0  0
   20.0578   42.0771   -8.7723 H   0  0  0  0  0  0
   21.8967   43.7455   -8.7619 H   0  0  0  0  0  0
   21.6162   45.9032   -7.5680 H   0  0  0  0  0  0
   17.6133   44.7519   -6.4416 H   0  0  0  0  0  0
   18.5100   46.7755   -5.5797 H   0  0  0  0  0  0
   20.2483   46.8798   -5.4640 H   0  0  0  0  0  0
   19.4234   48.9273   -6.4879 H   0  0  0  0  0  0
   20.3561   48.0498   -7.6571 H   0  0  0  0  0  0
   17.6413   47.1593   -8.0050 H   0  0  0  0  0  0
   17.5347   48.8678   -7.7340 H   0  0  0  0  0  0
   19.2224   49.2648   -9.5660 H   0  0  0  0  0  0
   19.3135   47.5505   -9.8670 H   0  0  0  0  0  0
   17.3599   49.3692  -10.8549 H   0  0  0  0  0  0
   17.8807   45.7984   -9.8441 H   0  0  0  0  0  0
   15.0446   44.5482  -12.8400 H   0  0  0  0  0  0
   13.6729   48.4101  -14.8652 H   0  0  0  0  0  0
   15.3459   48.7175  -14.4136 H   0  0  0  0  0  0
   14.0392   48.9741  -13.2400 H   0  0  0  0  0  0
   16.6360   44.1118   -9.0181 H   0  0  0  0  0  0
   13.6512   41.6588   -8.8396 H   0  0  0  0  0  0
  1  2  1  0  0  0
  1 41  1  0  0  0
  1 42  1  0  0  0
  1 43  1  0  0  0
  2  3  1  0  0  0
  2  4  1  0  0  0
  2 44  1  0  0  0
  3 45  1  0  0  0
  3 46  1  0  0  0
  3 47  1  0  0  0
  4  9  1  0  0  0
  4  5  2  0  0  0
  5  6  1  0  0  0
  5 48  1  0  0  0
  6  7  2  0  0  0
  6 49  1  0  0  0
  7  8  1  0  0  0
  7 50  1  0  0  0
  8  9  2  0  0  0
  8 10  1  0  0  0
  9 51  1  0  0  0
 10 11  1  0  0  0
 10 52  1  0  0  0
 10 53  1  0  0  0
 11 12  1  0  0  0
 11 54  1  0  0  0
 12 13  1  0  0  0
 12 55  1  0  0  0
 12 56  1  0  0  0
 13 39  1  0  0  0
 13 14  1  0  0  0
 13 38  1  0  0  0
 14 40  1  0  0  0
 14 37  1  0  0  0
 14 15  1  0  0  0
 15 16  1  0  0  0
 15 57  1  0  0  0
 15 58  1  0  0  0
 16 21  1  0  0  0
 16 17  2  0  0  0
 17 18  1  0  0  0
 17 59  1  0  0  0
 18 19  2  0  0  0
 18 60  1  0  0  0
 19 20  1  0  0  0
 19 61  1  0  0  0
 20 21  2  0  0  0
 20 22  1  0  0  0
 21 62  1  0  0  0
 22 23  1  0  0  0
 22 63  1  0  0  0
 22 64  1  0  0  0
 23 24  1  0  0  0
 23 65  1  0  0  0
 23 66  1  0  0  0
 24 25  1  0  0  0
 24 67  1  0  0  0
 24 68  1  0  0  0
 25 26  1  0  0  0
 25 69  1  0  0  0
 25 70  1  0  0  0
 26 27  1  0  0  0
 26 71  1  0  0  0
 27 32  1  0  0  0
 27 28  2  0  0  0
 28 29  1  0  0  0
 28 72  1  0  0  0
 29 30  2  0  0  0
 29 35  1  0  0  0
 30 31  1  0  0  0
 30 73  1  0  0  0
 31 32  2  0  0  0
 31 33  1  0  0  0
 33 34  1  0  0  0
 34 74  1  0  0  0
 34 75  1  0  0  0
 34 76  1  0  0  0
 35 36  2  0  0  0
 35 37  1  0  0  0
 37 77  1  0  0  0
 38 78  1  0  0  0
M  END
> <s_m_source_file>
BACE_12.smi

> <i_m_source_file_index>
1

> <i_lp_mmshare_version>
42013

> <i_f3d_flags>
0

> <s_epik_input>
W0NIM11bQ0hdKFtDSDNdKWMxW2NIXVtjSF1bY0hdYyhbY0hdMSlbQ0gyXVtOSF1bQ0gyXVtDQEBIXShbT0hdKVtDQEhdKFtDSDJdMilbTkhdQyg9TyljKFtjSF1jKG4zKU9bQ0gzXSlbY0hdYzNbTkhdW0NIMl1bQ0gyXVtDSDJdW0NIMl1jKFtjSF00KVtjSF1bY0hdW2NIXWMyNA==

> <s_epik_cmdline>
J2VwaWtfcHl0aG9uJywgJy1waCcsICc3LjAnLCAnLXRuJywgJzgnLCAnLW1hJywgJzIwMCcsICctaW1hZScsICc8aW5maWxlLm1hZT4nLCAnLW9tYWUnLCAnPG91dGZpbGUubWFlPic=

> <r_lp_tautomer_probability>
1

> <r_epik_Ionization_Penalty>
  2.0161

> <r_epik_Ionization_Penalty_Charging>
  0.0000

> <r_epik_Ionization_Penalty_Neutral>
  2.0161

> <r_epik_State_Penalty>
  2.1460

> <r_epik_Charging_Adjusted_Penalty>
2.14597

> <i_epik_Tot_Q>
0

> <i_epik_Tot_abs_Q>
0

> <s_lp_Force_Field>
OPLS_2005

> <r_lp_Energy>
24.9256

> <b_lp_Chiralities_Consistent>
1

> <s_lp_Variant>
BACE_12.smi:1-2

> <chiral flag>
1

> <version>
0

> <r_i_glide_lipo>
-0.570191

> <r_i_glide_hbond>
-0.212313

> <r_i_glide_metal>
-0

> <r_i_glide_rewards>
0

> <r_i_glide_erotb>
0.384471

> <r_i_glide_esite>
-0.149714

> <chiral flag>
1

> <s_i_glide_gridfile>
second_dock_grid_2

> <i_i_glide_lignum>
25

> <i_i_glide_rotatable_bonds>
8

> <r_i_docking_score>
-1.3602

> <r_i_glide_ligand_efficiency>
-0.0357948

> <r_i_glide_ligand_efficiency_sa>
-0.120341

> <r_i_glide_ligand_efficiency_ln>
-0.2933

> <r_glide_XP_GScore>
-3.5062

> <r_i_glide_gscore>
-3.5062

> <r_i_glide_evdw>
-38.1103

> <r_i_glide_ecoul>
-8.491

> <r_i_glide_energy>
-46.6013

> <r_i_glide_einternal>
2.62956

> <r_i_glide_emodel>
-68.7378

> <r_glide_XP_HBond>
-1.26699

> <i_i_glide_confnum>
1

> <i_i_glide_posenum>
5

> <r_i_glide_eff_state_penalty>
2.146

> <i_glide_XP_PoseRank>
2

$$$$
BACE_12.smi:1
                    3D
 Structure written by MMmdl.
 78 81  0  0  1  0            999 V2000
   22.4483   42.3778   -3.2384 C   0  0  0  0  0  0
   21.6906   42.7871   -4.5110 C   0  0  0  0  0  0
   20.1997   43.0126   -4.2189 C   0  0  0  0  0  0
   21.9233   41.7855   -5.6388 C   0  0  0  0  0  0
   21.2923   40.5215   -5.6263 C   0  0  0  0  0  0
   21.5350   39.5963   -6.6590 C   0  0  0  0  0  0
   22.4073   39.9227   -7.7126 C   0  0  0  0  0  0
   23.0450   41.1800   -7.7386 C   0  0  0  0  0  0
   22.7940   42.1100   -6.7049 C   0  0  0  0  0  0
   24.0144   41.5145   -8.8588 C   0  0  0  0  0  0
   23.4960   41.0903  -10.1577 N   0  0  0  0  0  0
   23.0277   42.1940  -10.9956 C   0  0  0  0  0  0
   21.6045   41.9263  -11.5389 C   0  0  2  0  0  0
   20.5218   41.5291  -10.4907 C   0  0  2  0  0  0
   20.3942   39.9919  -10.3631 C   0  0  0  0  0  0
   19.3225   39.5463   -9.3840 C   0  0  0  0  0  0
   19.5314   39.7063   -7.9988 C   0  0  0  0  0  0
   18.5437   39.2973   -7.0851 C   0  0  0  0  0  0
   17.3466   38.7241   -7.5521 C   0  0  0  0  0  0
   17.1290   38.5575   -8.9358 C   0  0  0  0  0  0
   18.1205   38.9696   -9.8512 C   0  0  0  0  0  0
   15.8304   37.9346   -9.4237 C   0  0  0  0  0  0
   14.6397   38.9039   -9.3285 C   0  0  0  0  0  0
   14.6154   39.9688  -10.4373 C   0  0  0  0  0  0
   14.0139   41.2973   -9.9495 C   0  0  0  0  0  0
   13.9909   42.3244  -10.9809 N   0  0  0  0  0  0
   15.0896   43.1727  -11.1872 C   0  0  0  0  0  0
   16.3898   42.8378  -10.7514 C   0  0  0  0  0  0
   17.4522   43.7256  -11.0129 C   0  0  0  0  0  0
   17.1635   44.9422  -11.6580 C   0  0  0  0  0  0
   15.8386   45.2042  -12.0515 C   0  0  0  0  0  0
   14.8258   44.3278  -11.8342 N   0  0  0  0  0  0
   15.5741   46.3991  -12.6879 O   0  0  0  0  0  0
   16.6631   47.2668  -12.9771 C   0  0  0  0  0  0
   18.8500   43.3922  -10.5906 C   0  0  0  0  0  0
   19.6055   44.2593  -10.1584 O   0  0  0  0  0  0
   19.2067   42.1126  -10.7719 N   0  0  0  0  0  0
   21.6587   40.9203  -12.5373 O   0  0  0  0  0  0
   21.2694   42.8149  -12.0766 H   0  0  0  0  0  0
   20.8393   41.8860   -9.5114 H   0  0  0  0  0  0
   23.5205   42.3058   -3.4234 H   0  0  0  0  0  0
   22.1075   41.4116   -2.8672 H   0  0  0  0  0  0
   22.2990   43.1067   -2.4418 H   0  0  0  0  0  0
   22.0972   43.7460   -4.8370 H   0  0  0  0  0  0
   19.6654   43.3238   -5.1156 H   0  0  0  0  0  0
   20.0636   43.7928   -3.4714 H   0  0  0  0  0  0
   19.7129   42.1161   -3.8356 H   0  0  0  0  0  0
   20.6206   40.2531   -4.8242 H   0  0  0  0  0  0
   21.0467   38.6318   -6.6486 H   0  0  0  0  0  0
   22.5912   39.2029   -8.4976 H   0  0  0  0  0  0
   23.2844   43.0723   -6.7284 H   0  0  0  0  0  0
   24.1887   42.5920   -8.8511 H   0  0  0  0  0  0
   24.9792   41.0485   -8.6639 H   0  0  0  0  0  0
   24.2481   40.6177  -10.6467 H   0  0  0  0  0  0
   23.0098   43.1013  -10.3911 H   0  0  0  0  0  0
   23.7247   42.3950  -11.8100 H   0  0  0  0  0  0
   20.1778   39.5445  -11.3319 H   0  0  0  0  0  0
   21.3475   39.5669  -10.0457 H   0  0  0  0  0  0
   20.4503   40.1398   -7.6337 H   0  0  0  0  0  0
   18.7055   39.4191   -6.0244 H   0  0  0  0  0  0
   16.5923   38.4121   -6.8444 H   0  0  0  0  0  0
   17.9563   38.8418  -10.9117 H   0  0  0  0  0  0
   15.9441   37.5638  -10.4429 H   0  0  0  0  0  0
   15.6311   37.0588   -8.8054 H   0  0  0  0  0  0
   13.7086   38.3389   -9.3796 H   0  0  0  0  0  0
   14.6429   39.3735   -8.3448 H   0  0  0  0  0  0
   15.6222   40.1312  -10.8145 H   0  0  0  0  0  0
   14.0483   39.5927  -11.2896 H   0  0  0  0  0  0
   12.9841   41.1352   -9.6306 H   0  0  0  0  0  0
   14.5479   41.6689   -9.0759 H   0  0  0  0  0  0
   13.0619   42.7069  -11.1688 H   0  0  0  0  0  0
   16.5849   41.9256  -10.2123 H   0  0  0  0  0  0
   17.9400   45.6674  -11.8575 H   0  0  0  0  0  0
   16.2863   48.1348  -13.5154 H   0  0  0  0  0  0
   17.4046   46.7831  -13.6138 H   0  0  0  0  0  0
   17.1501   47.6230  -12.0685 H   0  0  0  0  0  0
   18.4886   41.4852  -11.1097 H   0  0  0  0  0  0
   22.5555   40.8483  -12.8311 H   0  0  0  0  0  0
  1  2  1  0  0  0
  1 41  1  0  0  0
  1 42  1  0  0  0
  1 43  1  0  0  0
  2  3  1  0  0  0
  2  4  1  0  0  0
  2 44  1  0  0  0
  3 45  1  0  0  0
  3 46  1  0  0  0
  3 47  1  0  0  0
  4  9  1  0  0  0
  4  5  2  0  0  0
  5  6  1  0  0  0
  5 48  1  0  0  0
  6  7  2  0  0  0
  6 49  1  0  0  0
  7  8  1  0  0  0
  7 50  1  0  0  0
  8  9  2  0  0  0
  8 10  1  0  0  0
  9 51  1  0  0  0
 10 11  1  0  0  0
 10 52  1  0  0  0
 10 53  1  0  0  0
 11 12  1  0  0  0
 11 54  1  0  0  0
 12 13  1  0  0  0
 12 55  1  0  0  0
 12 56  1  0  0  0
 13 39  1  0  0  0
 13 14  1  0  0  0
 13 38  1  0  0  0
 14 40  1  0  0  0
 14 37  1  0  0  0
 14 15  1  0  0  0
 15 16  1  0  0  0
 15 57  1  0  0  0
 15 58  1  0  0  0
 16 21  1  0  0  0
 16 17  2  0  0  0
 17 18  1  0  0  0
 17 59  1  0  0  0
 18 19  2  0  0  0
 18 60  1  0  0  0
 19 20  1  0  0  0
 19 61  1  0  0  0
 20 21  2  0  0  0
 20 22  1  0  0  0
 21 62  1  0  0  0
 22 23  1  0  0  0
 22 63  1  0  0  0
 22 64  1  0  0  0
 23 24  1  0  0  0
 23 65  1  0  0  0
 23 66  1  0  0  0
 24 25  1  0  0  0
 24 67  1  0  0  0
 24 68  1  0  0  0
 25 26  1  0  0  0
 25 69  1  0  0  0
 25 70  1  0  0  0
 26 27  1  0  0  0
 26 71  1  0  0  0
 27 32  1  0  0  0
 27 28  2  0  0  0
 28 29  1  0  0  0
 28 72  1  0  0  0
 29 30  2  0  0  0
 29 35  1  0  0  0
 30 31  1  0  0  0
 30 73  1  0  0  0
 31 32  2  0  0  0
 31 33  1  0  0  0
 33 34  1  0  0  0
 34 74  1  0  0  0
 34 75  1  0  0  0
 34 76  1  0  0  0
 35 36  2  0  0  0
 35 37  1  0  0  0
 37 77  1  0  0  0
 38 78  1  0  0  0
M  END
> <s_m_source_file>
BACE_12.smi

> <i_m_source_file_index>
1

> <i_lp_mmshare_version>
42013

> <i_f3d_flags>
0

> <s_epik_input>
W0NIM11bQ0hdKFtDSDNdKWMxW2NIXVtjSF1bY0hdYyhbY0hdMSlbQ0gyXVtOSF1bQ0gyXVtDQEBIXShbT0hdKVtDQEhdKFtDSDJdMilbTkhdQyg9TyljKFtjSF1jKG4zKU9bQ0gzXSlbY0hdYzNbTkhdW0NIMl1bQ0gyXVtDSDJdW0NIMl1jKFtjSF00KVtjSF1bY0hdW2NIXWMyNA==

> <s_epik_cmdline>
J2VwaWtfcHl0aG9uJywgJy1waCcsICc3LjAnLCAnLXRuJywgJzgnLCAnLW1hJywgJzIwMCcsICctaW1hZScsICc8aW5maWxlLm1hZT4nLCAnLW9tYWUnLCAnPG91dGZpbGUubWFlPic=

> <r_lp_tautomer_probability>
1

> <r_epik_Ionization_Penalty>
  2.0161

> <r_epik_Ionization_Penalty_Charging>
  0.0000

> <r_epik_Ionization_Penalty_Neutral>
  2.0161

> <r_epik_State_Penalty>
  2.1460

> <r_epik_Charging_Adjusted_Penalty>
2.14597

> <i_epik_Tot_Q>
0

> <i_epik_Tot_abs_Q>
0

> <s_lp_Force_Field>
OPLS_2005

> <r_lp_Energy>
24.9256

> <b_lp_Chiralities_Consistent>
1

> <s_lp_Variant>
BACE_12.smi:1-2

> <chiral flag>
1

> <version>
0

> <r_i_glide_lipo>
-0.570191

> <r_i_glide_hbond>
-0.212313

> <r_i_glide_metal>
-0

> <r_i_glide_rewards>
0

> <r_i_glide_erotb>
0.384471

> <r_i_glide_esite>
-0.149714

> <chiral flag>
1

> <s_i_glide_gridfile>
second_dock_grid_2

> <i_i_glide_lignum>
25

> <i_i_glide_rotatable_bonds>
8

> <r_i_docking_score>
-1.17088

> <r_i_glide_ligand_efficiency>
-0.0308125

> <r_i_glide_ligand_efficiency_sa>
-0.103591

> <r_i_glide_ligand_efficiency_ln>
-0.252475

> <r_glide_XP_GScore>
-3.31688

> <r_i_glide_gscore>
-3.31688

> <r_i_glide_evdw>
-38.574

> <r_i_glide_ecoul>
-11.6484

> <r_i_glide_energy>
-50.2224

> <r_i_glide_einternal>
15.5213

> <r_i_glide_emodel>
-68.6204

> <r_glide_XP_HBond>
-1.26699

> <i_i_glide_confnum>
1

> <i_i_glide_posenum>
2

> <r_i_glide_eff_state_penalty>
2.146

> <i_glide_XP_PoseRank>
3

$$$$
BACE_12.smi:1
                    3D
 Structure written by MMmdl.
 78 81  0  0  1  0            999 V2000
   31.4851   42.3165  -12.4317 C   0  0  0  0  0  0
   30.1341   42.0188  -13.1030 C   0  0  0  0  0  0
   30.1842   42.3067  -14.6120 C   0  0  0  0  0  0
   28.9953   42.7527  -12.4101 C   0  0  0  0  0  0
   28.9147   44.1628  -12.4485 C   0  0  0  0  0  0
   27.8593   44.8309  -11.7962 C   0  0  0  0  0  0
   26.8828   44.0954  -11.0954 C   0  0  0  0  0  0
   26.9528   42.6869  -11.0475 C   0  0  0  0  0  0
   28.0122   42.0265  -11.7042 C   0  0  0  0  0  0
   25.8952   41.8890  -10.3057 C   0  0  0  0  0  0
   24.5649   42.1524  -10.8399 N   0  0  0  0  0  0
   23.5111   41.3443  -10.2397 C   0  0  0  0  0  0
   22.1160   41.8225  -10.6966 C   0  0  2  0  0  0
   20.9919   41.2786   -9.7836 C   0  0  2  0  0  0
   20.9033   39.7318   -9.7839 C   0  0  0  0  0  0
   19.7876   39.2122   -8.9026 C   0  0  0  0  0  0
   19.8980   39.3509   -7.5037 C   0  0  0  0  0  0
   18.8385   38.9505   -6.6733 C   0  0  0  0  0  0
   17.6704   38.4198   -7.2414 C   0  0  0  0  0  0
   17.5654   38.2275   -8.6329 C   0  0  0  0  0  0
   18.6304   38.6324   -9.4667 C   0  0  0  0  0  0
   16.3088   37.5925   -9.2096 C   0  0  0  0  0  0
   15.0968   38.5406   -9.2165 C   0  0  0  0  0  0
   15.1950   39.6706  -10.2538 C   0  0  0  0  0  0
   14.4493   40.9314   -9.7925 C   0  0  0  0  0  0
   14.5082   42.0169  -10.7617 N   0  0  0  0  0  0
   15.6176   42.8642  -10.8407 C   0  0  0  0  0  0
   16.8706   42.5623  -10.2638 C   0  0  0  0  0  0
   17.9457   43.4486  -10.4743 C   0  0  0  0  0  0
   17.7098   44.6361  -11.1923 C   0  0  0  0  0  0
   16.4180   44.8671  -11.7157 C   0  0  0  0  0  0
   15.4070   43.9887  -11.5542 N   0  0  0  0  0  0
   16.0547   45.9731  -12.4533 O   0  0  0  0  0  0
   17.0671   46.9255  -12.7538 C   0  0  0  0  0  0
   19.3119   43.1369   -9.9450 C   0  0  0  0  0  0
   20.0305   44.0173   -9.4701 O   0  0  0  0  0  0
   19.6928   41.8622  -10.1185 N   0  0  0  0  0  0
   21.8587   41.3909  -12.0208 O   0  0  0  0  0  0
   22.1074   42.9126  -10.6815 H   0  0  0  0  0  0
   21.2194   41.5963   -8.7647 H   0  0  0  0  0  0
   31.4602   42.0565  -11.3734 H   0  0  0  0  0  0
   31.7450   43.3719  -12.5130 H   0  0  0  0  0  0
   32.2907   41.7482  -12.8945 H   0  0  0  0  0  0
   29.9498   40.9496  -12.9974 H   0  0  0  0  0  0
   29.2592   42.0025  -15.0982 H   0  0  0  0  0  0
   30.9910   41.7475  -15.0901 H   0  0  0  0  0  0
   30.3463   43.3655  -14.8213 H   0  0  0  0  0  0
   29.6624   44.7350  -12.9769 H   0  0  0  0  0  0
   27.8017   45.9086  -11.8303 H   0  0  0  0  0  0
   26.0746   44.6105  -10.5976 H   0  0  0  0  0  0
   28.0702   40.9488  -11.6683 H   0  0  0  0  0  0
   26.1297   40.8250  -10.3729 H   0  0  0  0  0  0
   25.9322   42.1546   -9.2455 H   0  0  0  0  0  0
   24.5788   41.9559  -11.8391 H   0  0  0  0  0  0
   23.6578   40.2886  -10.4695 H   0  0  0  0  0  0
   23.5701   41.4352   -9.1552 H   0  0  0  0  0  0
   20.7561   39.3564  -10.7971 H   0  0  0  0  0  0
   21.8372   39.2921   -9.4325 H   0  0  0  0  0  0
   20.7784   39.7946   -7.0614 H   0  0  0  0  0  0
   18.9025   39.0825   -5.6050 H   0  0  0  0  0  0
   16.8534   38.1510   -6.5910 H   0  0  0  0  0  0
   18.5466   38.5135  -10.5372 H   0  0  0  0  0  0
   16.5085   37.2106  -10.2113 H   0  0  0  0  0  0
   16.0717   36.7227   -8.5958 H   0  0  0  0  0  0
   14.1856   37.9705   -9.4050 H   0  0  0  0  0  0
   14.9752   38.9534   -8.2125 H   0  0  0  0  0  0
   16.2398   39.8946  -10.4458 H   0  0  0  0  0  0
   14.7944   39.3452  -11.2125 H   0  0  0  0  0  0
   13.3965   40.6878   -9.6406 H   0  0  0  0  0  0
   14.8291   41.2757   -8.8287 H   0  0  0  0  0  0
   13.6216   42.4041  -11.0468 H   0  0  0  0  0  0
   17.0250   41.6777   -9.6697 H   0  0  0  0  0  0
   18.5257   45.3314  -11.3360 H   0  0  0  0  0  0
   16.6450   47.7157  -13.3763 H   0  0  0  0  0  0
   17.8921   46.4721  -13.3098 H   0  0  0  0  0  0
   17.4553   47.3893  -11.8436 H   0  0  0  0  0  0
   19.0230   41.2366  -10.5398 H   0  0  0  0  0  0
   22.6902   41.1905  -12.4423 H   0  0  0  0  0  0
  1  2  1  0  0  0
  1 41  1  0  0  0
  1 42  1  0  0  0
  1 43  1  0  0  0
  2  3  1  0  0  0
  2  4  1  0  0  0
  2 44  1  0  0  0
  3 45  1  0  0  0
  3 46  1  0  0  0
  3 47  1  0  0  0
  4  9  1  0  0  0
  4  5  2  0  0  0
  5  6  1  0  0  0
  5 48  1  0  0  0
  6  7  2  0  0  0
  6 49  1  0  0  0
  7  8  1  0  0  0
  7 50  1  0  0  0
  8  9  2  0  0  0
  8 10  1  0  0  0
  9 51  1  0  0  0
 10 11  1  0  0  0
 10 52  1  0  0  0
 10 53  1  0  0  0
 11 12  1  0  0  0
 11 54  1  0  0  0
 12 13  1  0  0  0
 12 55  1  0  0  0
 12 56  1  0  0  0
 13 39  1  0  0  0
 13 14  1  0  0  0
 13 38  1  0  0  0
 14 40  1  0  0  0
 14 37  1  0  0  0
 14 15  1  0  0  0
 15 16  1  0  0  0
 15 57  1  0  0  0
 15 58  1  0  0  0
 16 21  1  0  0  0
 16 17  2  0  0  0
 17 18  1  0  0  0
 17 59  1  0  0  0
 18 19  2  0  0  0
 18 60  1  0  0  0
 19 20  1  0  0  0
 19 61  1  0  0  0
 20 21  2  0  0  0
 20 22  1  0  0  0
 21 62  1  0  0  0
 22 23  1  0  0  0
 22 63  1  0  0  0
 22 64  1  0  0  0
 23 24  1  0  0  0
 23 65  1  0  0  0
 23 66  1  0  0  0
 24 25  1  0  0  0
 24 67  1  0  0  0
 24 68  1  0  0  0
 25 26  1  0  0  0
 25 69  1  0  0  0
 25 70  1  0  0  0
 26 27  1  0  0  0
 26 71  1  0  0  0
 27 32  1  0  0  0
 27 28  2  0  0  0
 28 29  1  0  0  0
 28 72  1  0  0  0
 29 30  2  0  0  0
 29 35  1  0  0  0
 30 31  1  0  0  0
 30 73  1  0  0  0
 31 32  2  0  0  0
 31 33  1  0  0  0
 33 34  1  0  0  0
 34 74  1  0  0  0
 34 75  1  0  0  0
 34 76  1  0  0  0
 35 36  2  0  0  0
 35 37  1  0  0  0
 37 77  1  0  0  0
 38 78  1  0  0  0
M  END
> <s_m_source_file>
BACE_12.smi

> <i_m_source_file_index>
1

> <i_lp_mmshare_version>
42013

> <i_f3d_flags>
0

> <s_epik_input>
W0NIM11bQ0hdKFtDSDNdKWMxW2NIXVtjSF1bY0hdYyhbY0hdMSlbQ0gyXVtOSF1bQ0gyXVtDQEBIXShbT0hdKVtDQEhdKFtDSDJdMilbTkhdQyg9TyljKFtjSF1jKG4zKU9bQ0gzXSlbY0hdYzNbTkhdW0NIMl1bQ0gyXVtDSDJdW0NIMl1jKFtjSF00KVtjSF1bY0hdW2NIXWMyNA==

> <s_epik_cmdline>
J2VwaWtfcHl0aG9uJywgJy1waCcsICc3LjAnLCAnLXRuJywgJzgnLCAnLW1hJywgJzIwMCcsICctaW1hZScsICc8aW5maWxlLm1hZT4nLCAnLW9tYWUnLCAnPG91dGZpbGUubWFlPic=

> <r_lp_tautomer_probability>
1

> <r_epik_Ionization_Penalty>
  2.0161

> <r_epik_Ionization_Penalty_Charging>
  0.0000

> <r_epik_Ionization_Penalty_Neutral>
  2.0161

> <r_epik_State_Penalty>
  2.1460

> <r_epik_Charging_Adjusted_Penalty>
2.14597

> <i_epik_Tot_Q>
0

> <i_epik_Tot_abs_Q>
0

> <s_lp_Force_Field>
OPLS_2005

> <r_lp_Energy>
24.9256

> <b_lp_Chiralities_Consistent>
1

> <s_lp_Variant>
BACE_12.smi:1-2

> <chiral flag>
1

> <version>
0

> <r_i_glide_lipo>
-0.570191

> <r_i_glide_hbond>
-0.212313

> <r_i_glide_metal>
-0

> <r_i_glide_rewards>
0

> <r_i_glide_erotb>
0.384471

> <r_i_glide_esite>
-0.149714

> <chiral flag>
1

> <s_i_glide_gridfile>
second_dock_grid_2

> <i_i_glide_lignum>
25

> <i_i_glide_rotatable_bonds>
8

> <r_i_docking_score>
-0.678812

> <r_i_glide_ligand_efficiency>
-0.0178635

> <r_i_glide_ligand_efficiency_sa>
-0.0600565

> <r_i_glide_ligand_efficiency_ln>
-0.146372

> <r_glide_XP_GScore>
-2.82481

> <r_i_glide_gscore>
-2.82481

> <r_i_glide_evdw>
-38.8787

> <r_i_glide_ecoul>
-12.5546

> <r_i_glide_energy>
-51.4333

> <r_i_glide_einternal>
7.82794

> <r_i_glide_emodel>
-70.6

> <r_glide_XP_HBond>
-1.26699

> <i_i_glide_confnum>
1

> <i_i_glide_posenum>
1

> <r_i_glide_eff_state_penalty>
2.146

> <i_glide_XP_PoseRank>
4

$$$$
BACE_12.smi:1
                    3D
 Structure written by MMmdl.
 78 81  0  0  1  0            999 V2000
   30.3306   45.7914   -9.1817 C   0  0  0  0  0  0
   29.9238   44.3587   -8.8075 C   0  0  0  0  0  0
   31.1439   43.4241   -8.7775 C   0  0  0  0  0  0
   28.8051   43.8590   -9.7167 C   0  0  0  0  0  0
   29.0762   43.4405  -11.0387 C   0  0  0  0  0  0
   28.0244   43.0407  -11.8868 C   0  0  0  0  0  0
   26.6931   43.0705  -11.4281 C   0  0  0  0  0  0
   26.4088   43.4701  -10.1032 C   0  0  0  0  0  0
   27.4691   43.8580   -9.2541 C   0  0  0  0  0  0
   24.9743   43.5193   -9.5966 C   0  0  0  0  0  0
   24.4280   42.1999   -9.2592 N   0  0  0  0  0  0
   23.8229   41.4687  -10.3757 C   0  0  0  0  0  0
   22.3834   41.9392  -10.7080 C   0  0  2  0  0  0
   21.3010   41.3389   -9.7714 C   0  0  2  0  0  0
   21.2516   39.7865   -9.7728 C   0  0  0  0  0  0
   20.1361   39.2318   -8.9088 C   0  0  0  0  0  0
   20.2113   39.4048   -7.5119 C   0  0  0  0  0  0
   19.1686   38.9498   -6.6904 C   0  0  0  0  0  0
   18.0593   38.3069   -7.2607 C   0  0  0  0  0  0
   17.9757   38.1144   -8.6535 C   0  0  0  0  0  0
   19.0229   38.5764   -9.4809 C   0  0  0  0  0  0
   16.7514   37.4270   -9.2398 C   0  0  0  0  0  0
   15.5024   38.3254   -9.2215 C   0  0  0  0  0  0
   15.5281   39.4574  -10.2647 C   0  0  0  0  0  0
   14.7762   40.7081   -9.7747 C   0  0  0  0  0  0
   14.7823   41.7925  -10.7467 N   0  0  0  0  0  0
   15.8621   42.6827  -10.8404 C   0  0  0  0  0  0
   17.1269   42.4348  -10.2671 C   0  0  0  0  0  0
   18.1616   43.3722  -10.4674 C   0  0  0  0  0  0
   17.8732   44.5506  -11.1847 C   0  0  0  0  0  0
   16.5717   44.7221  -11.7132 C   0  0  0  0  0  0
   15.6008   43.7956  -11.5592 N   0  0  0  0  0  0
   16.1621   45.8179  -12.4409 O   0  0  0  0  0  0
   17.1098   46.8545  -12.6710 C   0  0  0  0  0  0
   19.5398   43.1258   -9.9276 C   0  0  0  0  0  0
   20.2244   44.0403   -9.4703 O   0  0  0  0  0  0
   19.9712   41.8674  -10.0858 N   0  0  0  0  0  0
   22.0599   41.5845  -12.0371 O   0  0  0  0  0  0
   22.3517   43.0277  -10.6713 H   0  0  0  0  0  0
   21.5326   41.6587   -8.7539 H   0  0  0  0  0  0
   29.4732   46.4643   -9.1396 H   0  0  0  0  0  0
   30.7408   45.8365  -10.1912 H   0  0  0  0  0  0
   31.0875   46.1764   -8.4971 H   0  0  0  0  0  0
   29.5286   44.3901   -7.7922 H   0  0  0  0  0  0
   30.8590   42.4225   -8.4663 H   0  0  0  0  0  0
   31.8904   43.7817   -8.0682 H   0  0  0  0  0  0
   31.6318   43.3513   -9.7497 H   0  0  0  0  0  0
   30.0875   43.4377  -11.4191 H   0  0  0  0  0  0
   28.2379   42.7253  -12.8982 H   0  0  0  0  0  0
   25.9001   42.7923  -12.1027 H   0  0  0  0  0  0
   27.2524   44.1793   -8.2445 H   0  0  0  0  0  0
   24.9633   44.1440   -8.7035 H   0  0  0  0  0  0
   24.3481   44.0358  -10.3244 H   0  0  0  0  0  0
   23.7825   42.2742   -8.4807 H   0  0  0  0  0  0
   24.4624   41.5715  -11.2397 H   0  0  0  0  0  0
   23.8355   40.4025  -10.1641 H   0  0  0  0  0  0
   21.1394   39.4073  -10.7903 H   0  0  0  0  0  0
   22.1797   39.3598   -9.3903 H   0  0  0  0  0  0
   21.0595   39.9042   -7.0641 H   0  0  0  0  0  0
   19.2103   39.1027   -5.6244 H   0  0  0  0  0  0
   17.2618   37.9752   -6.6153 H   0  0  0  0  0  0
   18.9589   38.4444  -10.5522 H   0  0  0  0  0  0
   16.9594   37.0779  -10.2506 H   0  0  0  0  0  0
   16.5562   36.5335   -8.6435 H   0  0  0  0  0  0
   14.6106   37.7257   -9.4027 H   0  0  0  0  0  0
   15.3775   38.7314   -8.2163 H   0  0  0  0  0  0
   16.5582   39.7100  -10.5057 H   0  0  0  0  0  0
   15.0922   39.1040  -11.1993 H   0  0  0  0  0  0
   13.7364   40.4470   -9.5756 H   0  0  0  0  0  0
   15.1893   41.0573   -8.8276 H   0  0  0  0  0  0
   13.8769   42.1656  -10.9899 H   0  0  0  0  0  0
   17.3134   41.5471   -9.6808 H   0  0  0  0  0  0
   18.6546   45.2818  -11.3281 H   0  0  0  0  0  0
   16.6424   47.6497  -13.2543 H   0  0  0  0  0  0
   17.9698   46.4909  -13.2375 H   0  0  0  0  0  0
   17.4533   47.2923  -11.7314 H   0  0  0  0  0  0
   19.3238   41.2138  -10.4960 H   0  0  0  0  0  0
   22.8424   41.2541  -12.4728 H   0  0  0  0  0  0
  1  2  1  0  0  0
  1 41  1  0  0  0
  1 42  1  0  0  0
  1 43  1  0  0  0
  2  3  1  0  0  0
  2  4  1  0  0  0
  2 44  1  0  0  0
  3 45  1  0  0  0
  3 46  1  0  0  0
  3 47  1  0  0  0
  4  9  1  0  0  0
  4  5  2  0  0  0
  5  6  1  0  0  0
  5 48  1  0  0  0
  6  7  2  0  0  0
  6 49  1  0  0  0
  7  8  1  0  0  0
  7 50  1  0  0  0
  8  9  2  0  0  0
  8 10  1  0  0  0
  9 51  1  0  0  0
 10 11  1  0  0  0
 10 52  1  0  0  0
 10 53  1  0  0  0
 11 12  1  0  0  0
 11 54  1  0  0  0
 12 13  1  0  0  0
 12 55  1  0  0  0
 12 56  1  0  0  0
 13 39  1  0  0  0
 13 14  1  0  0  0
 13 38  1  0  0  0
 14 40  1  0  0  0
 14 37  1  0  0  0
 14 15  1  0  0  0
 15 16  1  0  0  0
 15 57  1  0  0  0
 15 58  1  0  0  0
 16 21  1  0  0  0
 16 17  2  0  0  0
 17 18  1  0  0  0
 17 59  1  0  0  0
 18 19  2  0  0  0
 18 60  1  0  0  0
 19 20  1  0  0  0
 19 61  1  0  0  0
 20 21  2  0  0  0
 20 22  1  0  0  0
 21 62  1  0  0  0
 22 23  1  0  0  0
 22 63  1  0  0  0
 22 64  1  0  0  0
 23 24  1  0  0  0
 23 65  1  0  0  0
 23 66  1  0  0  0
 24 25  1  0  0  0
 24 67  1  0  0  0
 24 68  1  0  0  0
 25 26  1  0  0  0
 25 69  1  0  0  0
 25 70  1  0  0  0
 26 27  1  0  0  0
 26 71  1  0  0  0
 27 32  1  0  0  0
 27 28  2  0  0  0
 28 29  1  0  0  0
 28 72  1  0  0  0
 29 30  2  0  0  0
 29 35  1  0  0  0
 30 31  1  0  0  0
 30 73  1  0  0  0
 31 32  2  0  0  0
 31 33  1  0  0  0
 33 34  1  0  0  0
 34 74  1  0  0  0
 34 75  1  0  0  0
 34 76  1  0  0  0
 35 36  2  0  0  0
 35 37  1  0  0  0
 37 77  1  0  0  0
 38 78  1  0  0  0
M  END
> <s_m_source_file>
BACE_12.smi

> <i_m_source_file_index>
1

> <i_lp_mmshare_version>
42013

> <i_f3d_flags>
0

> <s_epik_input>
W0NIM11bQ0hdKFtDSDNdKWMxW2NIXVtjSF1bY0hdYyhbY0hdMSlbQ0gyXVtOSF1bQ0gyXVtDQEBIXShbT0hdKVtDQEhdKFtDSDJdMilbTkhdQyg9TyljKFtjSF1jKG4zKU9bQ0gzXSlbY0hdYzNbTkhdW0NIMl1bQ0gyXVtDSDJdW0NIMl1jKFtjSF00KVtjSF1bY0hdW2NIXWMyNA==

> <s_epik_cmdline>
J2VwaWtfcHl0aG9uJywgJy1waCcsICc3LjAnLCAnLXRuJywgJzgnLCAnLW1hJywgJzIwMCcsICctaW1hZScsICc8aW5maWxlLm1hZT4nLCAnLW9tYWUnLCAnPG91dGZpbGUubWFlPic=

> <r_lp_tautomer_probability>
1

> <r_epik_Ionization_Penalty>
  2.0161

> <r_epik_Ionization_Penalty_Charging>
  0.0000

> <r_epik_Ionization_Penalty_Neutral>
  2.0161

> <r_epik_State_Penalty>
  2.1460

> <r_epik_Charging_Adjusted_Penalty>
2.14597

> <i_epik_Tot_Q>
0

> <i_epik_Tot_abs_Q>
0

> <s_lp_Force_Field>
OPLS_2005

> <r_lp_Energy>
24.9256

> <b_lp_Chiralities_Consistent>
1

> <s_lp_Variant>
BACE_12.smi:1-2

> <chiral flag>
1

> <version>
0

> <r_i_glide_lipo>
-0.570191

> <r_i_glide_hbond>
-0.212313

> <r_i_glide_metal>
-0

> <r_i_glide_rewards>
0

> <r_i_glide_erotb>
0.384471

> <r_i_glide_esite>
-0.149714

> <chiral flag>
1

> <s_i_glide_gridfile>
second_dock_grid_2

> <i_i_glide_lignum>
25

> <i_i_glide_rotatable_bonds>
8

> <r_i_docking_score>
0.70021

> <r_i_glide_ligand_efficiency>
0.0184266

> <r_i_glide_ligand_efficiency_sa>
0.0619497

> <r_i_glide_ligand_efficiency_ln>
0.150986

> <r_glide_XP_GScore>
-1.44579

> <r_i_glide_gscore>
-1.44579

> <r_i_glide_evdw>
-36.8194

> <r_i_glide_ecoul>
-11.2239

> <r_i_glide_energy>
-48.0433

> <r_i_glide_einternal>
4.3057

> <r_i_glide_emodel>
-69.2309

> <r_glide_XP_HBond>
-1.26699

> <i_i_glide_confnum>
1

> <i_i_glide_posenum>
9

> <r_i_glide_eff_state_penalty>
2.146

> <i_glide_XP_PoseRank>
5

$$$$
BACE_12.smi:1
                    3D
 Structure written by MMmdl.
 78 81  0  0  1  0            999 V2000
   30.5173   42.3313  -11.0691 C   0  0  0  0  0  0
   29.3297   41.8833  -11.9322 C   0  0  0  0  0  0
   29.6873   41.9158  -13.4300 C   0  0  0  0  0  0
   28.0855   42.6948  -11.5807 C   0  0  0  0  0  0
   27.8950   43.9935  -12.1063 C   0  0  0  0  0  0
   26.7782   44.7583  -11.7211 C   0  0  0  0  0  0
   25.8514   44.2399  -10.7986 C   0  0  0  0  0  0
   26.0284   42.9439  -10.2681 C   0  0  0  0  0  0
   27.1394   42.1730  -10.6714 C   0  0  0  0  0  0
   25.0370   42.3854   -9.2595 C   0  0  0  0  0  0
   23.6402   42.5609   -9.6521 N   0  0  0  0  0  0
   23.2865   41.7909  -10.8407 C   0  0  0  0  0  0
   21.8259   42.0036  -11.2841 C   0  0  2  0  0  0
   20.7781   41.4570  -10.2789 C   0  0  2  0  0  0
   20.7114   39.9101  -10.2102 C   0  0  0  0  0  0
   19.6747   39.4020   -9.2230 C   0  0  0  0  0  0
   19.8904   39.5692   -7.8397 C   0  0  0  0  0  0
   18.9200   39.1449   -6.9159 C   0  0  0  0  0  0
   17.7299   38.5496   -7.3722 C   0  0  0  0  0  0
   17.5125   38.3541   -8.7518 C   0  0  0  0  0  0
   18.4891   38.7811   -9.6777 C   0  0  0  0  0  0
   16.2284   37.6870   -9.2168 C   0  0  0  0  0  0
   15.0158   38.6386   -9.1874 C   0  0  0  0  0  0
   15.0332   39.7209  -10.2854 C   0  0  0  0  0  0
   14.2917   40.9899   -9.8384 C   0  0  0  0  0  0
   14.2703   42.0411  -10.8437 N   0  0  0  0  0  0
   15.3329   42.9428  -10.9671 C   0  0  0  0  0  0
   16.6336   42.6662  -10.5032 C   0  0  0  0  0  0
   17.6659   43.5868  -10.7683 C   0  0  0  0  0  0
   17.3416   44.7884  -11.4298 C   0  0  0  0  0  0
   15.9983   44.9990  -11.8306 C   0  0  0  0  0  0
   15.0291   44.0855  -11.6185 N   0  0  0  0  0  0
   15.5435   46.1281  -12.4802 O   0  0  0  0  0  0
   16.4837   47.1561  -12.7450 C   0  0  0  0  0  0
   19.0770   43.2965  -10.3572 C   0  0  0  0  0  0
   19.8238   44.1922   -9.9661 O   0  0  0  0  0  0
   19.4538   42.0207  -10.5366 N   0  0  0  0  0  0
   21.6598   41.3490  -12.5275 O   0  0  0  0  0  0
   21.6876   43.0705  -11.4570 H   0  0  0  0  0  0
   21.0531   41.8143   -9.2869 H   0  0  0  0  0  0
   30.2970   42.2141  -10.0086 H   0  0  0  0  0  0
   30.7569   43.3794  -11.2445 H   0  0  0  0  0  0
   31.4085   41.7495  -11.2920 H   0  0  0  0  0  0
   29.1190   40.8419  -11.6863 H   0  0  0  0  0  0
   28.8600   41.5701  -14.0482 H   0  0  0  0  0  0
   30.5371   41.2652  -13.6416 H   0  0  0  0  0  0
   29.9628   42.9140  -13.7665 H   0  0  0  0  0  0
   28.6090   44.4197  -12.7940 H   0  0  0  0  0  0
   26.6372   45.7486  -12.1257 H   0  0  0  0  0  0
   25.0032   44.8364  -10.4964 H   0  0  0  0  0  0
   27.2734   41.1805  -10.2625 H   0  0  0  0  0  0
   25.2446   41.3285   -9.0893 H   0  0  0  0  0  0
   25.2151   42.8926   -8.3107 H   0  0  0  0  0  0
   23.0338   42.3135   -8.8752 H   0  0  0  0  0  0
   23.9351   42.1338  -11.6443 H   0  0  0  0  0  0
   23.5035   40.7344  -10.6878 H   0  0  0  0  0  0
   20.4838   39.4907  -11.1916 H   0  0  0  0  0  0
   21.6809   39.5016   -9.9258 H   0  0  0  0  0  0
   20.7953   40.0369   -7.4824 H   0  0  0  0  0  0
   19.0742   39.2916   -5.8575 H   0  0  0  0  0  0
   16.9827   38.2326   -6.6584 H   0  0  0  0  0  0
   18.3203   38.6424  -10.7367 H   0  0  0  0  0  0
   16.3617   37.2620  -10.2105 H   0  0  0  0  0  0
   16.0428   36.8461   -8.5486 H   0  0  0  0  0  0
   14.0927   38.0661   -9.2807 H   0  0  0  0  0  0
   14.9661   39.1002   -8.1986 H   0  0  0  0  0  0
   16.0612   39.9430  -10.5616 H   0  0  0  0  0  0
   14.5696   39.3500  -11.1973 H   0  0  0  0  0  0
   13.2590   40.7183   -9.6388 H   0  0  0  0  0  0
   14.7034   41.3749   -8.9040 H   0  0  0  0  0  0
   13.3570   42.3996  -11.0775 H   0  0  0  0  0  0
   16.8568   41.7688   -9.9494 H   0  0  0  0  0  0
   18.1225   45.5091  -11.6210 H   0  0  0  0  0  0
   15.9850   47.9734  -13.2683 H   0  0  0  0  0  0
   17.2938   46.8020  -13.3837 H   0  0  0  0  0  0
   16.8983   47.5569  -11.8193 H   0  0  0  0  0  0
   18.7541   41.3771  -10.8757 H   0  0  0  0  0  0
   22.5301   41.1048  -12.8410 H   0  0  0  0  0  0
  1  2  1  0  0  0
  1 41  1  0  0  0
  1 42  1  0  0  0
  1 43  1  0  0  0
  2  3  1  0  0  0
  2  4  1  0  0  0
  2 44  1  0  0  0
  3 45  1  0  0  0
  3 46  1  0  0  0
  3 47  1  0  0  0
  4  9  1  0  0  0
  4  5  2  0  0  0
  5  6  1  0  0  0
  5 48  1  0  0  0
  6  7  2  0  0  0
  6 49  1  0  0  0
  7  8  1  0  0  0
  7 50  1  0  0  0
  8  9  2  0  0  0
  8 10  1  0  0  0
  9 51  1  0  0  0
 10 11  1  0  0  0
 10 52  1  0  0  0
 10 53  1  0  0  0
 11 12  1  0  0  0
 11 54  1  0  0  0
 12 13  1  0  0  0
 12 55  1  0  0  0
 12 56  1  0  0  0
 13 39  1  0  0  0
 13 14  1  0  0  0
 13 38  1  0  0  0
 14 40  1  0  0  0
 14 37  1  0  0  0
 14 15  1  0  0  0
 15 16  1  0  0  0
 15 57  1  0  0  0
 15 58  1  0  0  0
 16 21  1  0  0  0
 16 17  2  0  0  0
 17 18  1  0  0  0
 17 59  1  0  0  0
 18 19  2  0  0  0
 18 60  1  0  0  0
 19 20  1  0  0  0
 19 61  1  0  0  0
 20 21  2  0  0  0
 20 22  1  0  0  0
 21 62  1  0  0  0
 22 23  1  0  0  0
 22 63  1  0  0  0
 22 64  1  0  0  0
 23 24  1  0  0  0
 23 65  1  0  0  0
 23 66  1  0  0  0
 24 25  1  0  0  0
 24 67  1  0  0  0
 24 68  1  0  0  0
 25 26  1  0  0  0
 25 69  1  0  0  0
 25 70  1  0  0  0
 26 27  1  0  0  0
 26 71  1  0  0  0
 27 32  1  0  0  0
 27 28  2  0  0  0
 28 29  1  0  0  0
 28 72  1  0  0  0
 29 30  2  0  0  0
 29 35  1  0  0  0
 30 31  1  0  0  0
 30 73  1  0  0  0
 31 32  2  0  0  0
 31 33  1  0  0  0
 33 34  1  0  0  0
 34 74  1  0  0  0
 34 75  1  0  0  0
 34 76  1  0  0  0
 35 36  2  0  0  0
 35 37  1  0  0  0
 37 77  1  0  0  0
 38 78  1  0  0  0
M  END
> <s_m_source_file>
BACE_12.smi

> <i_m_source_file_index>
1

> <i_lp_mmshare_version>
42013

> <i_f3d_flags>
0

> <s_epik_input>
W0NIM11bQ0hdKFtDSDNdKWMxW2NIXVtjSF1bY0hdYyhbY0hdMSlbQ0gyXVtOSF1bQ0gyXVtDQEBIXShbT0hdKVtDQEhdKFtDSDJdMilbTkhdQyg9TyljKFtjSF1jKG4zKU9bQ0gzXSlbY0hdYzNbTkhdW0NIMl1bQ0gyXVtDSDJdW0NIMl1jKFtjSF00KVtjSF1bY0hdW2NIXWMyNA==

> <s_epik_cmdline>
J2VwaWtfcHl0aG9uJywgJy1waCcsICc3LjAnLCAnLXRuJywgJzgnLCAnLW1hJywgJzIwMCcsICctaW1hZScsICc8aW5maWxlLm1hZT4nLCAnLW9tYWUnLCAnPG91dGZpbGUubWFlPic=

> <r_lp_tautomer_probability>
1

> <r_epik_Ionization_Penalty>
  2.0161

> <r_epik_Ionization_Penalty_Charging>
  0.0000

> <r_epik_Ionization_Penalty_Neutral>
  2.0161

> <r_epik_State_Penalty>
  2.1460

> <r_epik_Charging_Adjusted_Penalty>
2.14597

> <i_epik_Tot_Q>
0

> <i_epik_Tot_abs_Q>
0

> <s_lp_Force_Field>
OPLS_2005

> <r_lp_Energy>
24.9256

> <b_lp_Chiralities_Consistent>
1

> <s_lp_Variant>
BACE_12.smi:1-2

> <chiral flag>
1

> <version>
0

> <r_i_glide_lipo>
-0.570191

> <r_i_glide_hbond>
-0.212313

> <r_i_glide_metal>
-0

> <r_i_glide_rewards>
0

> <r_i_glide_erotb>
0.384471

> <r_i_glide_esite>
-0.149714

> <chiral flag>
1

> <s_i_glide_gridfile>
second_dock_grid_2

> <i_i_glide_lignum>
25

> <i_i_glide_rotatable_bonds>
8

> <r_i_docking_score>
1.00071

> <r_i_glide_ligand_efficiency>
0.0263343

> <r_i_glide_ligand_efficiency_sa>
0.0885354

> <r_i_glide_ligand_efficiency_ln>
0.215781

> <r_glide_XP_GScore>
-1.14529

> <r_i_glide_gscore>
-1.14529

> <r_i_glide_evdw>
-40.172

> <r_i_glide_ecoul>
-11.2717

> <r_i_glide_energy>
-51.4437

> <r_i_glide_einternal>
11.1166

> <r_i_glide_emodel>
-68.7148

> <r_glide_XP_HBond>
-1.26699

> <i_i_glide_confnum>
1

> <i_i_glide_posenum>
4

> <r_i_glide_eff_state_penalty>
2.146

> <i_glide_XP_PoseRank>
6

$$$$
BACE_13.smi:1
                    3D
 Structure written by MMmdl.
 77 80  0  0  1  0            999 V2000
   19.9646   42.2336   -2.1297 C   0  0  0  0  0  0
   20.9894   41.3065   -2.4586 O   0  0  0  0  0  0
   21.9057   41.7620   -3.4488 C   0  0  0  0  0  0
   21.4156   41.5320   -4.8705 C   0  0  0  0  0  0
   20.5704   42.4756   -5.4852 C   0  0  0  0  0  0
   20.0582   42.2531   -6.7826 C   0  0  0  0  0  0
   20.4716   41.1007   -7.4933 C   0  0  0  0  0  0
   21.3335   40.1470   -6.8944 C   0  0  0  0  0  0
   21.7927   40.3717   -5.5788 C   0  0  0  0  0  0
   21.7385   38.9670   -7.5452 N   0  0  0  0  0  0
   21.0293   38.4783   -8.7212 C   0  0  0  0  0  0
   21.5415   39.0988  -10.0250 C   0  0  0  0  0  0
   20.4367   39.1524  -11.0931 C   0  0  0  0  0  0
   20.8921   39.8157  -12.4059 C   0  0  0  0  0  0
   21.6598   40.9940  -12.1896 O   0  0  0  0  0  0
   21.0854   42.1160  -11.6400 C   0  0  0  0  0  0
   21.9629   43.1441  -11.2410 C   0  0  0  0  0  0
   21.4677   44.3352  -10.6787 C   0  0  0  0  0  0
   20.0838   44.5010  -10.4987 C   0  0  0  0  0  0
   19.1963   43.4735  -10.8799 C   0  0  0  0  0  0
   19.6935   42.2949  -11.4702 C   0  0  0  0  0  0
   17.7106   43.6125  -10.6138 C   0  0  0  0  0  0
   17.3298   43.6291   -9.1105 C   0  0  2  0  0  0
   18.2316   42.7797   -8.3094 N   0  0  0  0  0  0
   19.0713   43.2383   -7.3578 C   0  0  0  0  0  0
   19.0159   44.3888   -6.9206 O   0  0  0  0  0  0
   15.8096   43.3422   -8.9094 C   0  0  1  0  0  0
   15.2954   41.9035   -8.5922 C   0  0  1  0  0  0
   15.6912   40.8824   -9.6846 C   0  0  0  0  0  0
   15.2822   39.5587   -9.3494 O   0  0  0  0  0  0
   15.8128   39.0848   -8.1113 C   0  0  2  0  0  0
   15.2678   40.0100   -7.0042 C   0  0  0  0  0  0
   15.6654   41.4142   -7.2401 N   0  3  0  0  0  0
   17.3565   38.9693   -8.2130 C   0  0  0  0  0  0
   17.9029   37.8696   -7.5112 O   0  0  0  0  0  0
   18.1767   38.1503   -6.1506 C   0  0  0  0  0  0
   15.2671   44.3134   -8.0400 O   0  0  0  0  0  0
   17.5058   44.6675   -8.8218 H   0  0  0  0  0  0
   15.3297   43.6057   -9.8536 H   0  0  0  0  0  0
   14.2055   41.9473   -8.5946 H   0  0  0  0  0  0
   15.4056   38.0836   -7.9641 H   0  0  0  0  0  0
   19.3001   41.7958   -1.3846 H   0  0  0  0  0  0
   19.3547   42.4958   -2.9927 H   0  0  0  0  0  0
   20.3840   43.1497   -1.7122 H   0  0  0  0  0  0
   22.8362   41.2079   -3.3130 H   0  0  0  0  0  0
   22.1598   42.8129   -3.2957 H   0  0  0  0  0  0
   20.2789   43.3576   -4.9338 H   0  0  0  0  0  0
   20.1119   40.9436   -8.4972 H   0  0  0  0  0  0
   22.4356   39.6462   -5.1010 H   0  0  0  0  0  0
   22.2816   38.2953   -7.0213 H   0  0  0  0  0  0
   19.9710   38.6839   -8.5938 H   0  0  0  0  0  0
   21.1146   37.3934   -8.7986 H   0  0  0  0  0  0
   22.4059   38.5424  -10.3875 H   0  0  0  0  0  0
   21.9001   40.1100   -9.8303 H   0  0  0  0  0  0
   19.5876   39.6932  -10.6813 H   0  0  0  0  0  0
   20.0601   38.1504  -11.2999 H   0  0  0  0  0  0
   20.0519   40.0206  -13.0679 H   0  0  0  0  0  0
   21.5345   39.1211  -12.9477 H   0  0  0  0  0  0
   23.0283   43.0143  -11.3698 H   0  0  0  0  0  0
   22.1523   45.1148  -10.3772 H   0  0  0  0  0  0
   19.7074   45.4060  -10.0458 H   0  0  0  0  0  0
   18.9958   41.5319  -11.7755 H   0  0  0  0  0  0
   17.1968   42.7985  -11.1240 H   0  0  0  0  0  0
   17.3539   44.5249  -11.0940 H   0  0  0  0  0  0
   18.3727   41.8306   -8.6201 H   0  0  0  0  0  0
   16.7639   40.9011   -9.8744 H   0  0  0  0  0  0
   15.2162   41.1515  -10.6287 H   0  0  0  0  0  0
   15.5840   39.7037   -6.0099 H   0  0  0  0  0  0
   14.1790   39.9516   -6.9886 H   0  0  0  0  0  0
   16.6606   41.4975   -7.0891 H   0  0  0  0  0  0
   17.6097   38.7697   -9.2557 H   0  0  0  0  0  0
   17.8635   39.8994   -7.9546 H   0  0  0  0  0  0
   18.4599   37.2325   -5.6406 H   0  0  0  0  0  0
   17.3086   38.5502   -5.6401 H   0  0  0  0  0  0
   18.9906   38.8659   -6.0442 H   0  0  0  0  0  0
   15.5856   44.1563   -7.1545 H   0  0  0  0  0  0
   15.1999   41.9818   -6.5333 H   0  0  0  0  0  0
  1  2  1  0  0  0
  1 42  1  0  0  0
  1 43  1  0  0  0
  1 44  1  0  0  0
  2  3  1  0  0  0
  3  4  1  0  0  0
  3 45  1  0  0  0
  3 46  1  0  0  0
  4  9  1  0  0  0
  4  5  2  0  0  0
  5  6  1  0  0  0
  5 47  1  0  0  0
  6 25  1  0  0  0
  6  7  2  0  0  0
  7  8  1  0  0  0
  7 48  1  0  0  0
  8  9  2  0  0  0
  8 10  1  0  0  0
  9 49  1  0  0  0
 10 11  1  0  0  0
 10 50  1  0  0  0
 11 12  1  0  0  0
 11 51  1  0  0  0
 11 52  1  0  0  0
 12 13  1  0  0  0
 12 53  1  0  0  0
 12 54  1  0  0  0
 13 14  1  0  0  0
 13 55  1  0  0  0
 13 56  1  0  0  0
 14 15  1  0  0  0
 14 57  1  0  0  0
 14 58  1  0  0  0
 15 16  1  0  0  0
 16 21  1  0  0  0
 16 17  2  0  0  0
 17 18  1  0  0  0
 17 59  1  0  0  0
 18 19  2  0  0  0
 18 60  1  0  0  0
 19 20  1  0  0  0
 19 61  1  0  0  0
 20 21  2  0  0  0
 20 22  1  0  0  0
 21 62  1  0  0  0
 22 23  1  0  0  0
 22 63  1  0  0  0
 22 64  1  0  0  0
 23 38  1  0  0  0
 23 24  1  0  0  0
 23 27  1  0  0  0
 24 25  1  0  0  0
 24 65  1  0  0  0
 25 26  2  0  0  0
 27 39  1  0  0  0
 27 28  1  0  0  0
 27 37  1  0  0  0
 28 40  1  0  0  0
 28 33  1  0  0  0
 28 29  1  0  0  0
 29 30  1  0  0  0
 29 66  1  0  0  0
 29 67  1  0  0  0
 30 31  1  0  0  0
 31 41  1  0  0  0
 31 32  1  0  0  0
 31 34  1  0  0  0
 32 33  1  0  0  0
 32 68  1  0  0  0
 32 69  1  0  0  0
 33 70  1  0  0  0
 33 77  1  0  0  0
 34 35  1  0  0  0
 34 71  1  0  0  0
 34 72  1  0  0  0
 35 36  1  0  0  0
 36 73  1  0  0  0
 36 74  1  0  0  0
 36 75  1  0  0  0
 37 76  1  0  0  0
M  CHG  1  33   1
M  END
> <s_m_source_file>
BACE_13.smi

> <i_m_source_file_index>
1

> <i_lp_mmshare_version>
42013

> <i_f3d_flags>
0

> <s_epik_input>
W0NIM11PW0NIMl1jKFtjSF1jMTIpW2NIXWMoW2NIXTEpW05IXVtDSDJdW0NIMl1bQ0gyXVtDSDJdT2MzW2NIXVtjSF1bY0hdYyhbY0hdMylbQ0gyXVtDQEhdKFtOSF1DMj1PKVtDQEhdKFtPSF0pW0NASF00W0NIMl1PW0NASF0oW0NIMl1bTkhdNClbQ0gyXU9bQ0gzXQ==

> <s_epik_cmdline>
J2VwaWtfcHl0aG9uJywgJy1waCcsICc3LjAnLCAnLXRuJywgJzgnLCAnLW1hJywgJzIwMCcsICctaW1hZScsICc8aW5maWxlLm1hZT4nLCAnLW9tYWUnLCAnPG91dGZpbGUubWFlPic=

> <r_lp_tautomer_probability>
1

> <r_epik_Ionization_Penalty>
  0.1161

> <r_epik_Ionization_Penalty_Charging>
  0.1158

> <r_epik_Ionization_Penalty_Neutral>
  0.0003

> <r_epik_State_Penalty>
  0.1054

> <r_epik_Charging_Adjusted_Penalty>
0.221149

> <i_epik_Tot_Q>
1

> <i_epik_Tot_abs_Q>
1

> <s_lp_Force_Field>
OPLS_2005

> <r_lp_Energy>
45.964

> <b_lp_Chiralities_Consistent>
1

> <s_lp_Variant>
BACE_13.smi:1-1

> <chiral flag>
1

> <version>
0

> <r_i_glide_lipo>
-0.389877

> <r_i_glide_hbond>
-0.448198

> <r_i_glide_metal>
-0

> <r_i_glide_rewards>
0

> <r_i_glide_erotb>
0.309821

> <r_i_glide_esite>
-0.0409344

> <chiral flag>
1

> <s_i_glide_gridfile>
second_dock_grid_2

> <i_i_glide_lignum>
26

> <i_i_glide_rotatable_bonds>
7

> <r_i_docking_score>
-6.17567

> <r_i_glide_ligand_efficiency>
-0.16691

> <r_i_glide_ligand_efficiency_sa>
-0.556182

> <r_i_glide_ligand_efficiency_ln>
-1.33936

> <r_glide_XP_GScore>
-6.28107

> <r_i_glide_gscore>
-6.28107

> <r_i_glide_evdw>
-42.4713

> <r_i_glide_ecoul>
-11.702

> <r_i_glide_energy>
-54.1733

> <r_i_glide_einternal>
6.55092

> <r_i_glide_emodel>
-64.004

> <r_glide_XP_HBond>
-1.62337

> <i_i_glide_confnum>
1

> <i_i_glide_posenum>
9

> <r_i_glide_eff_state_penalty>
0.1054

> <i_glide_XP_PoseRank>
1

$$$$
BACE_13.smi:1
                    3D
 Structure written by MMmdl.
 77 80  0  0  1  0            999 V2000
   20.3321   42.6833   -1.1707 C   0  0  0  0  0  0
   20.3717   42.0176   -2.4195 O   0  0  0  0  0  0
   21.4980   42.3599   -3.2135 C   0  0  0  0  0  0
   21.2047   42.0823   -4.6720 C   0  0  0  0  0  0
   20.3414   42.9495   -5.3672 C   0  0  0  0  0  0
   19.9255   42.6504   -6.6824 C   0  0  0  0  0  0
   20.4646   41.5111   -7.3254 C   0  0  0  0  0  0
   21.3459   40.6382   -6.6397 C   0  0  0  0  0  0
   21.7118   40.9324   -5.3098 C   0  0  0  0  0  0
   21.8467   39.4622   -7.2228 N   0  0  0  0  0  0
   21.0985   38.8284   -8.3003 C   0  0  0  0  0  0
   21.5863   39.2643   -9.6877 C   0  0  0  0  0  0
   20.4847   39.1511  -10.7542 C   0  0  0  0  0  0
   20.9112   39.6721  -12.1415 C   0  0  0  0  0  0
   21.6402   40.8926  -12.0851 O   0  0  0  0  0  0
   21.0329   42.0412  -11.6358 C   0  0  0  0  0  0
   21.8814   43.1174  -11.3096 C   0  0  0  0  0  0
   21.3532   44.3306  -10.8330 C   0  0  0  0  0  0
   19.9640   44.4701  -10.6609 C   0  0  0  0  0  0
   19.1043   43.3940  -10.9627 C   0  0  0  0  0  0
   19.6356   42.1931  -11.4752 C   0  0  0  0  0  0
   17.6129   43.5137  -10.7016 C   0  0  0  0  0  0
   17.2289   43.6612   -9.2043 C   0  0  2  0  0  0
   18.1684   42.9477   -8.3275 N   0  0  0  0  0  0
   18.8919   43.5210   -7.3457 C   0  0  0  0  0  0
   18.6967   44.6724   -6.9530 O   0  0  0  0  0  0
   15.7353   43.2971   -8.9529 C   0  0  1  0  0  0
   15.3174   41.8318   -8.6157 C   0  0  1  0  0  0
   15.8341   40.7576   -9.5965 C   0  0  0  0  0  0
   15.3389   39.4724   -9.2286 O   0  0  0  0  0  0
   15.6855   39.0376   -7.9087 C   0  0  2  0  0  0
   15.1819   40.0776   -6.8925 C   0  0  0  0  0  0
   15.6597   41.4329   -7.2381 N   0  3  0  0  0  0
   17.1977   38.7488   -7.7698 C   0  0  0  0  0  0
   17.7054   37.9843   -8.8567 O   0  0  0  0  0  0
   17.3359   36.6159   -8.8188 C   0  0  0  0  0  0
   15.1750   44.2276   -8.0411 O   0  0  0  0  0  0
   17.3421   44.7320   -9.0162 H   0  0  0  0  0  0
   15.2120   43.5354   -9.8807 H   0  0  0  0  0  0
   14.2273   41.8058   -8.6703 H   0  0  0  0  0  0
   15.1437   38.1096   -7.7252 H   0  0  0  0  0  0
   19.5148   42.2829   -0.5702 H   0  0  0  0  0  0
   20.1534   43.7501   -1.3040 H   0  0  0  0  0  0
   21.2615   42.5506   -0.6189 H   0  0  0  0  0  0
   22.3708   41.7989   -2.8755 H   0  0  0  0  0  0
   21.7439   43.4175   -3.1128 H   0  0  0  0  0  0
   19.9367   43.8058   -4.8463 H   0  0  0  0  0  0
   20.1847   41.2945   -8.3451 H   0  0  0  0  0  0
   22.3587   40.2600   -4.7648 H   0  0  0  0  0  0
   22.3996   38.8510   -6.6383 H   0  0  0  0  0  0
   20.0372   39.0387   -8.1765 H   0  0  0  0  0  0
   21.1925   37.7503   -8.2085 H   0  0  0  0  0  0
   22.4590   38.6799   -9.9787 H   0  0  0  0  0  0
   21.9234   40.2988   -9.6363 H   0  0  0  0  0  0
   19.6111   39.6988  -10.4073 H   0  0  0  0  0  0
   20.1547   38.1169  -10.8413 H   0  0  0  0  0  0
   20.0608   39.7525  -12.8181 H   0  0  0  0  0  0
   21.5827   38.9503  -12.6033 H   0  0  0  0  0  0
   22.9495   43.0074  -11.4326 H   0  0  0  0  0  0
   22.0135   45.1479  -10.5896 H   0  0  0  0  0  0
   19.5647   45.3944  -10.2709 H   0  0  0  0  0  0
   18.9594   41.3904  -11.7249 H   0  0  0  0  0  0
   17.1282   42.6387  -11.1311 H   0  0  0  0  0  0
   17.2283   44.3642  -11.2646 H   0  0  0  0  0  0
   18.4245   42.0068   -8.5884 H   0  0  0  0  0  0
   16.9243   40.7410   -9.6409 H   0  0  0  0  0  0
   15.4835   40.9740  -10.6056 H   0  0  0  0  0  0
   15.4949   39.8156   -5.8803 H   0  0  0  0  0  0
   14.0921   40.0960   -6.8751 H   0  0  0  0  0  0
   16.6579   41.4731   -7.0895 H   0  0  0  0  0  0
   17.7574   39.6836   -7.7461 H   0  0  0  0  0  0
   17.4071   38.2551   -6.8201 H   0  0  0  0  0  0
   17.8207   36.0898   -9.6404 H   0  0  0  0  0  0
   16.2594   36.4800   -8.9265 H   0  0  0  0  0  0
   17.6597   36.1500   -7.8868 H   0  0  0  0  0  0
   15.5450   44.0902   -7.1706 H   0  0  0  0  0  0
   15.2233   42.0678   -6.5731 H   0  0  0  0  0  0
  1  2  1  0  0  0
  1 42  1  0  0  0
  1 43  1  0  0  0
  1 44  1  0  0  0
  2  3  1  0  0  0
  3  4  1  0  0  0
  3 45  1  0  0  0
  3 46  1  0  0  0
  4  9  1  0  0  0
  4  5  2  0  0  0
  5  6  1  0  0  0
  5 47  1  0  0  0
  6 25  1  0  0  0
  6  7  2  0  0  0
  7  8  1  0  0  0
  7 48  1  0  0  0
  8  9  2  0  0  0
  8 10  1  0  0  0
  9 49  1  0  0  0
 10 11  1  0  0  0
 10 50  1  0  0  0
 11 12  1  0  0  0
 11 51  1  0  0  0
 11 52  1  0  0  0
 12 13  1  0  0  0
 12 53  1  0  0  0
 12 54  1  0  0  0
 13 14  1  0  0  0
 13 55  1  0  0  0
 13 56  1  0  0  0
 14 15  1  0  0  0
 14 57  1  0  0  0
 14 58  1  0  0  0
 15 16  1  0  0  0
 16 21  1  0  0  0
 16 17  2  0  0  0
 17 18  1  0  0  0
 17 59  1  0  0  0
 18 19  2  0  0  0
 18 60  1  0  0  0
 19 20  1  0  0  0
 19 61  1  0  0  0
 20 21  2  0  0  0
 20 22  1  0  0  0
 21 62  1  0  0  0
 22 23  1  0  0  0
 22 63  1  0  0  0
 22 64  1  0  0  0
 23 38  1  0  0  0
 23 24  1  0  0  0
 23 27  1  0  0  0
 24 25  1  0  0  0
 24 65  1  0  0  0
 25 26  2  0  0  0
 27 39  1  0  0  0
 27 28  1  0  0  0
 27 37  1  0  0  0
 28 40  1  0  0  0
 28 33  1  0  0  0
 28 29  1  0  0  0
 29 30  1  0  0  0
 29 66  1  0  0  0
 29 67  1  0  0  0
 30 31  1  0  0  0
 31 41  1  0  0  0
 31 32  1  0  0  0
 31 34  1  0  0  0
 32 33  1  0  0  0
 32 68  1  0  0  0
 32 69  1  0  0  0
 33 70  1  0  0  0
 33 77  1  0  0  0
 34 35  1  0  0  0
 34 71  1  0  0  0
 34 72  1  0  0  0
 35 36  1  0  0  0
 36 73  1  0  0  0
 36 74  1  0  0  0
 36 75  1  0  0  0
 37 76  1  0  0  0
M  CHG  1  33   1
M  END
> <s_m_source_file>
BACE_13.smi

> <i_m_source_file_index>
1

> <i_lp_mmshare_version>
42013

> <i_f3d_flags>
0

> <s_epik_input>
W0NIM11PW0NIMl1jKFtjSF1jMTIpW2NIXWMoW2NIXTEpW05IXVtDSDJdW0NIMl1bQ0gyXVtDSDJdT2MzW2NIXVtjSF1bY0hdYyhbY0hdMylbQ0gyXVtDQEhdKFtOSF1DMj1PKVtDQEhdKFtPSF0pW0NASF00W0NIMl1PW0NASF0oW0NIMl1bTkhdNClbQ0gyXU9bQ0gzXQ==

> <s_epik_cmdline>
J2VwaWtfcHl0aG9uJywgJy1waCcsICc3LjAnLCAnLXRuJywgJzgnLCAnLW1hJywgJzIwMCcsICctaW1hZScsICc8aW5maWxlLm1hZT4nLCAnLW9tYWUnLCAnPG91dGZpbGUubWFlPic=

> <r_lp_tautomer_probability>
1

> <r_epik_Ionization_Penalty>
  0.1161

> <r_epik_Ionization_Penalty_Charging>
  0.1158

> <r_epik_Ionization_Penalty_Neutral>
  0.0003

> <r_epik_State_Penalty>
  0.1054

> <r_epik_Charging_Adjusted_Penalty>
0.221149

> <i_epik_Tot_Q>
1

> <i_epik_Tot_abs_Q>
1

> <s_lp_Force_Field>
OPLS_2005

> <r_lp_Energy>
45.964

> <b_lp_Chiralities_Consistent>
1

> <s_lp_Variant>
BACE_13.smi:1-1

> <chiral flag>
1

> <version>
0

> <r_i_glide_lipo>
-0.389877

> <r_i_glide_hbond>
-0.448198

> <r_i_glide_metal>
-0

> <r_i_glide_rewards>
0

> <r_i_glide_erotb>
0.309821

> <r_i_glide_esite>
-0.0409344

> <chiral flag>
1

> <s_i_glide_gridfile>
second_dock_grid_2

> <i_i_glide_lignum>
26

> <i_i_glide_rotatable_bonds>
7

> <r_i_docking_score>
-5.95104

> <r_i_glide_ligand_efficiency>
-0.160839

> <r_i_glide_ligand_efficiency_sa>
-0.535951

> <r_i_glide_ligand_efficiency_ln>
-1.29064

> <r_glide_XP_GScore>
-6.05644

> <r_i_glide_gscore>
-6.05644

> <r_i_glide_evdw>
-42.358

> <r_i_glide_ecoul>
-12.1925

> <r_i_glide_energy>
-54.5505

> <r_i_glide_einternal>
4.12366

> <r_i_glide_emodel>
-61.1977

> <r_glide_XP_HBond>
-1.62337

> <i_i_glide_confnum>
1

> <i_i_glide_posenum>
34

> <r_i_glide_eff_state_penalty>
0.1054

> <i_glide_XP_PoseRank>
2

$$$$
BACE_13.smi:1
                    3D
 Structure written by MMmdl.
 77 80  0  0  1  0            999 V2000
   20.0613   40.9586   -2.2548 C   0  0  0  0  0  0
   21.3843   41.4362   -2.4443 O   0  0  0  0  0  0
   21.4762   42.5351   -3.3428 C   0  0  0  0  0  0
   21.1051   42.1822   -4.7759 C   0  0  0  0  0  0
   20.1691   42.9679   -5.4776 C   0  0  0  0  0  0
   19.7601   42.6208   -6.7855 C   0  0  0  0  0  0
   20.3610   41.5004   -7.4109 C   0  0  0  0  0  0
   21.3042   40.7016   -6.7149 C   0  0  0  0  0  0
   21.6771   41.0578   -5.4034 C   0  0  0  0  0  0
   21.8744   39.5417   -7.2659 N   0  0  0  0  0  0
   21.1675   38.8242   -8.3188 C   0  0  0  0  0  0
   21.6365   39.2252   -9.7220 C   0  0  0  0  0  0
   20.5110   39.1462  -10.7622 C   0  0  0  0  0  0
   20.9407   39.6731  -12.1468 C   0  0  0  0  0  0
   21.6151   40.9244  -12.0684 O   0  0  0  0  0  0
   20.9428   42.0450  -11.6363 C   0  0  0  0  0  0
   21.7321   43.1571  -11.2851 C   0  0  0  0  0  0
   21.1362   44.3512  -10.8400 C   0  0  0  0  0  0
   19.7391   44.4342  -10.7201 C   0  0  0  0  0  0
   18.9357   43.3207  -11.0403 C   0  0  0  0  0  0
   19.5348   42.1400  -11.5268 C   0  0  0  0  0  0
   17.4333   43.3739  -10.8073 C   0  0  0  0  0  0
   17.0280   43.5274   -9.3161 C   0  0  2  0  0  0
   17.9869   42.8396   -8.4347 N   0  0  0  0  0  0
   18.6930   43.4440   -7.4587 C   0  0  0  0  0  0
   18.4572   44.5908   -7.0773 O   0  0  0  0  0  0
   15.5340   43.1488   -9.0602 C   0  0  1  0  0  0
   15.1434   41.7157   -8.5900 C   0  0  1  0  0  0
   15.4913   40.6438   -9.6462 C   0  0  0  0  0  0
   15.1689   39.3329   -9.1919 O   0  0  0  0  0  0
   15.8422   38.9675   -7.9883 C   0  0  2  0  0  0
   15.3814   39.9436   -6.8837 C   0  0  0  0  0  0
   15.6602   41.3498   -7.2453 N   0  3  0  0  0  0
   17.3713   38.9024   -8.2518 C   0  0  0  0  0  0
   18.0432   37.8650   -7.5683 O   0  0  0  0  0  0
   18.2845   38.1598   -6.2072 C   0  0  0  0  0  0
   14.9204   44.1354   -8.2587 O   0  0  0  0  0  0
   17.1237   44.6002   -9.1412 H   0  0  0  0  0  0
   15.0193   43.2908  -10.0120 H   0  0  0  0  0  0
   14.0601   41.7002   -8.4963 H   0  0  0  0  0  0
   15.4926   37.9648   -7.7407 H   0  0  0  0  0  0
   20.0599   40.1541   -1.5176 H   0  0  0  0  0  0
   19.6601   40.5549   -3.1831 H   0  0  0  0  0  0
   19.3997   41.7485   -1.8973 H   0  0  0  0  0  0
   22.5052   42.8977   -3.3310 H   0  0  0  0  0  0
   20.8520   43.3497   -2.9758 H   0  0  0  0  0  0
   19.7157   43.8153   -4.9820 H   0  0  0  0  0  0
   20.0878   41.2450   -8.4239 H   0  0  0  0  0  0
   22.3895   40.4548   -4.8599 H   0  0  0  0  0  0
   22.4738   38.9911   -6.6686 H   0  0  0  0  0  0
   20.1021   39.0050   -8.2171 H   0  0  0  0  0  0
   21.3017   37.7510   -8.1815 H   0  0  0  0  0  0
   22.4609   38.5857  -10.0290 H   0  0  0  0  0  0
   22.0322   40.2413   -9.6916 H   0  0  0  0  0  0
   19.6574   39.7125  -10.3952 H   0  0  0  0  0  0
   20.1567   38.1197  -10.8511 H   0  0  0  0  0  0
   20.0980   39.7351  -12.8351 H   0  0  0  0  0  0
   21.6442   38.9698  -12.5977 H   0  0  0  0  0  0
   22.8073   43.0922  -11.3656 H   0  0  0  0  0  0
   21.7534   45.1977  -10.5797 H   0  0  0  0  0  0
   19.2891   45.3443  -10.3528 H   0  0  0  0  0  0
   18.9017   41.3060  -11.7877 H   0  0  0  0  0  0
   16.9936   42.4730  -11.2305 H   0  0  0  0  0  0
   17.0201   44.2001  -11.3865 H   0  0  0  0  0  0
   18.2801   41.9126   -8.7018 H   0  0  0  0  0  0
   16.5437   40.6955   -9.9259 H   0  0  0  0  0  0
   14.9292   40.8335  -10.5615 H   0  0  0  0  0  0
   15.8385   39.7237   -5.9226 H   0  0  0  0  0  0
   14.3076   39.8299   -6.7288 H   0  0  0  0  0  0
   16.6559   41.5085   -7.1908 H   0  0  0  0  0  0
   17.5240   38.6601   -9.3048 H   0  0  0  0  0  0
   17.8613   39.8632   -8.0948 H   0  0  0  0  0  0
   18.8599   37.3502   -5.7817 H   0  0  0  0  0  0
   17.3614   38.2239   -5.6410 H   0  0  0  0  0  0
   18.8502   39.0819   -6.0751 H   0  0  0  0  0  0
   15.2606   44.0629   -7.3743 H   0  0  0  0  0  0
   15.2165   41.9295   -6.5353 H   0  0  0  0  0  0
  1  2  1  0  0  0
  1 42  1  0  0  0
  1 43  1  0  0  0
  1 44  1  0  0  0
  2  3  1  0  0  0
  3  4  1  0  0  0
  3 45  1  0  0  0
  3 46  1  0  0  0
  4  9  1  0  0  0
  4  5  2  0  0  0
  5  6  1  0  0  0
  5 47  1  0  0  0
  6 25  1  0  0  0
  6  7  2  0  0  0
  7  8  1  0  0  0
  7 48  1  0  0  0
  8  9  2  0  0  0
  8 10  1  0  0  0
  9 49  1  0  0  0
 10 11  1  0  0  0
 10 50  1  0  0  0
 11 12  1  0  0  0
 11 51  1  0  0  0
 11 52  1  0  0  0
 12 13  1  0  0  0
 12 53  1  0  0  0
 12 54  1  0  0  0
 13 14  1  0  0  0
 13 55  1  0  0  0
 13 56  1  0  0  0
 14 15  1  0  0  0
 14 57  1  0  0  0
 14 58  1  0  0  0
 15 16  1  0  0  0
 16 21  1  0  0  0
 16 17  2  0  0  0
 17 18  1  0  0  0
 17 59  1  0  0  0
 18 19  2  0  0  0
 18 60  1  0  0  0
 19 20  1  0  0  0
 19 61  1  0  0  0
 20 21  2  0  0  0
 20 22  1  0  0  0
 21 62  1  0  0  0
 22 23  1  0  0  0
 22 63  1  0  0  0
 22 64  1  0  0  0
 23 38  1  0  0  0
 23 24  1  0  0  0
 23 27  1  0  0  0
 24 25  1  0  0  0
 24 65  1  0  0  0
 25 26  2  0  0  0
 27 39  1  0  0  0
 27 28  1  0  0  0
 27 37  1  0  0  0
 28 40  1  0  0  0
 28 33  1  0  0  0
 28 29  1  0  0  0
 29 30  1  0  0  0
 29 66  1  0  0  0
 29 67  1  0  0  0
 30 31  1  0  0  0
 31 41  1  0  0  0
 31 32  1  0  0  0
 31 34  1  0  0  0
 32 33  1  0  0  0
 32 68  1  0  0  0
 32 69  1  0  0  0
 33 70  1  0  0  0
 33 77  1  0  0  0
 34 35  1  0  0  0
 34 71  1  0  0  0
 34 72  1  0  0  0
 35 36  1  0  0  0
 36 73  1  0  0  0
 36 74  1  0  0  0
 36 75  1  0  0  0
 37 76  1  0  0  0
M  CHG  1  33   1
M  END
> <s_m_source_file>
BACE_13.smi

> <i_m_source_file_index>
1

> <i_lp_mmshare_version>
42013

> <i_f3d_flags>
0

> <s_epik_input>
W0NIM11PW0NIMl1jKFtjSF1jMTIpW2NIXWMoW2NIXTEpW05IXVtDSDJdW0NIMl1bQ0gyXVtDSDJdT2MzW2NIXVtjSF1bY0hdYyhbY0hdMylbQ0gyXVtDQEhdKFtOSF1DMj1PKVtDQEhdKFtPSF0pW0NASF00W0NIMl1PW0NASF0oW0NIMl1bTkhdNClbQ0gyXU9bQ0gzXQ==

> <s_epik_cmdline>
J2VwaWtfcHl0aG9uJywgJy1waCcsICc3LjAnLCAnLXRuJywgJzgnLCAnLW1hJywgJzIwMCcsICctaW1hZScsICc8aW5maWxlLm1hZT4nLCAnLW9tYWUnLCAnPG91dGZpbGUubWFlPic=

> <r_lp_tautomer_probability>
1

> <r_epik_Ionization_Penalty>
  0.1161

> <r_epik_Ionization_Penalty_Charging>
  0.1158

> <r_epik_Ionization_Penalty_Neutral>
  0.0003

> <r_epik_State_Penalty>
  0.1054

> <r_epik_Charging_Adjusted_Penalty>
0.221149

> <i_epik_Tot_Q>
1

> <i_epik_Tot_abs_Q>
1

> <s_lp_Force_Field>
OPLS_2005

> <r_lp_Energy>
45.964

> <b_lp_Chiralities_Consistent>
1

> <s_lp_Variant>
BACE_13.smi:1-1

> <chiral flag>
1

> <version>
0

> <r_i_glide_lipo>
-0.389877

> <r_i_glide_hbond>
-0.448198

> <r_i_glide_metal>
-0

> <r_i_glide_rewards>
0

> <r_i_glide_erotb>
0.309821

> <r_i_glide_esite>
-0.0409344

> <chiral flag>
1

> <s_i_glide_gridfile>
second_dock_grid_2

> <i_i_glide_lignum>
26

> <i_i_glide_rotatable_bonds>
7

> <r_i_docking_score>
-5.70702

> <r_i_glide_ligand_efficiency>
-0.154244

> <r_i_glide_ligand_efficiency_sa>
-0.513975

> <r_i_glide_ligand_efficiency_ln>
-1.23772

> <r_glide_XP_GScore>
-5.81242

> <r_i_glide_gscore>
-5.81242

> <r_i_glide_evdw>
-40.399

> <r_i_glide_ecoul>
-11.1906

> <r_i_glide_energy>
-51.5896

> <r_i_glide_einternal>
4.44141

> <r_i_glide_emodel>
-60.1453

> <r_glide_XP_HBond>
-1.62337

> <i_i_glide_confnum>
1

> <i_i_glide_posenum>
42

> <r_i_glide_eff_state_penalty>
0.1054

> <i_glide_XP_PoseRank>
3

$$$$
BACE_13.smi:1
                    3D
 Structure written by MMmdl.
 77 80  0  0  1  0            999 V2000
   23.3882   42.9500   -4.2004 C   0  0  0  0  0  0
   22.8554   41.8855   -3.4294 O   0  0  0  0  0  0
   21.4533   41.7714   -3.5401 C   0  0  0  0  0  0
   21.0361   41.5531   -4.9746 C   0  0  0  0  0  0
   20.2864   42.5383   -5.6378 C   0  0  0  0  0  0
   19.8382   42.3140   -6.9531 C   0  0  0  0  0  0
   20.2764   41.1578   -7.6474 C   0  0  0  0  0  0
   21.0922   40.1924   -7.0006 C   0  0  0  0  0  0
   21.4489   40.3924   -5.6545 C   0  0  0  0  0  0
   21.5456   39.0156   -7.6198 N   0  0  0  0  0  0
   20.8782   38.5047   -8.8063 C   0  0  0  0  0  0
   21.4474   39.1028  -10.0942 C   0  0  0  0  0  0
   20.3860   39.1623  -11.2033 C   0  0  0  0  0  0
   20.8742   39.9041  -12.4616 C   0  0  0  0  0  0
   21.5814   41.0980  -12.1458 O   0  0  0  0  0  0
   20.9202   42.1942  -11.6399 C   0  0  0  0  0  0
   21.7256   43.2788  -11.2405 C   0  0  0  0  0  0
   21.1469   44.4696  -10.7668 C   0  0  0  0  0  0
   19.7495   44.5753  -10.6619 C   0  0  0  0  0  0
   18.9309   43.4841  -11.0171 C   0  0  0  0  0  0
   19.5131   42.3072  -11.5338 C   0  0  0  0  0  0
   17.4343   43.5469  -10.7557 C   0  0  0  0  0  0
   17.0802   43.6106   -9.2447 C   0  0  2  0  0  0
   18.0167   42.8026   -8.4531 N   0  0  0  0  0  0
   18.8891   43.3031   -7.5620 C   0  0  0  0  0  0
   18.8796   44.4785   -7.1908 O   0  0  0  0  0  0
   15.5859   43.2898   -8.9501 C   0  0  1  0  0  0
   15.1446   41.8364   -8.5884 C   0  0  1  0  0  0
   15.5149   40.8021   -9.6767 C   0  0  0  0  0  0
   15.1247   39.4803   -9.3085 O   0  0  0  0  0  0
   15.6895   39.0311   -8.0761 C   0  0  2  0  0  0
   15.1673   39.9751   -6.9708 C   0  0  0  0  0  0
   15.5696   41.3728   -7.2400 N   0  3  0  0  0  0
   17.2320   38.9246   -8.2216 C   0  0  0  0  0  0
   17.8157   37.8449   -7.5188 O   0  0  0  0  0  0
   18.1241   38.1499   -6.1701 C   0  0  0  0  0  0
   15.0737   44.2461   -8.0400 O   0  0  0  0  0  0
   17.2371   44.6607   -8.9914 H   0  0  0  0  0  0
   15.0464   43.5331   -9.8669 H   0  0  0  0  0  0
   14.0598   41.8498   -8.5495 H   0  0  0  0  0  0
   15.2907   38.0299   -7.9048 H   0  0  0  0  0  0
   24.4599   42.9500   -4.0653 H   0  0  0  0  0  0
   22.9912   43.9165   -3.8857 H   0  0  0  0  0  0
   23.2254   42.8315   -5.2724 H   0  0  0  0  0  0
   20.9736   42.6594   -3.1241 H   0  0  0  0  0  0
   21.1189   40.9249   -2.9390 H   0  0  0  0  0  0
   19.9806   43.4239   -5.0999 H   0  0  0  0  0  0
   19.9769   41.0111   -8.6735 H   0  0  0  0  0  0
   22.0530   39.6613   -5.1360 H   0  0  0  0  0  0
   22.0547   38.3487   -7.0586 H   0  0  0  0  0  0
   19.8168   38.7182   -8.7262 H   0  0  0  0  0  0
   20.9636   37.4190   -8.8401 H   0  0  0  0  0  0
   22.3237   38.5413  -10.4187 H   0  0  0  0  0  0
   21.8064   40.1118   -9.8896 H   0  0  0  0  0  0
   19.5002   39.6548  -10.8076 H   0  0  0  0  0  0
   20.0595   38.1550  -11.4672 H   0  0  0  0  0  0
   20.0595   40.1086  -13.1561 H   0  0  0  0  0  0
   21.5684   39.2618  -13.0027 H   0  0  0  0  0  0
   22.7995   43.1988  -11.3186 H   0  0  0  0  0  0
   21.7770   45.2946  -10.4698 H   0  0  0  0  0  0
   19.3120   45.4782  -10.2641 H   0  0  0  0  0  0
   18.8673   41.4966  -11.8301 H   0  0  0  0  0  0
   16.9656   42.6824  -11.2247 H   0  0  0  0  0  0
   17.0238   44.4187  -11.2666 H   0  0  0  0  0  0
   18.1327   41.8356   -8.7113 H   0  0  0  0  0  0
   16.5816   40.8231   -9.8959 H   0  0  0  0  0  0
   15.0118   41.0526  -10.6107 H   0  0  0  0  0  0
   15.5068   39.6881   -5.9784 H   0  0  0  0  0  0
   14.0746   39.9171   -6.9301 H   0  0  0  0  0  0
   16.5688   41.4550   -7.1214 H   0  0  0  0  0  0
   17.4519   38.7067   -9.2672 H   0  0  0  0  0  0
   17.7401   39.8640   -8.0014 H   0  0  0  0  0  0
   18.4597   37.2542   -5.6504 H   0  0  0  0  0  0
   17.2614   38.5326   -5.6403 H   0  0  0  0  0  0
   18.9110   38.8982   -6.0986 H   0  0  0  0  0  0
   15.4593   44.1100   -7.1750 H   0  0  0  0  0  0
   15.1295   41.9500   -6.5259 H   0  0  0  0  0  0
  1  2  1  0  0  0
  1 42  1  0  0  0
  1 43  1  0  0  0
  1 44  1  0  0  0
  2  3  1  0  0  0
  3  4  1  0  0  0
  3 45  1  0  0  0
  3 46  1  0  0  0
  4  9  1  0  0  0
  4  5  2  0  0  0
  5  6  1  0  0  0
  5 47  1  0  0  0
  6 25  1  0  0  0
  6  7  2  0  0  0
  7  8  1  0  0  0
  7 48  1  0  0  0
  8  9  2  0  0  0
  8 10  1  0  0  0
  9 49  1  0  0  0
 10 11  1  0  0  0
 10 50  1  0  0  0
 11 12  1  0  0  0
 11 51  1  0  0  0
 11 52  1  0  0  0
 12 13  1  0  0  0
 12 53  1  0  0  0
 12 54  1  0  0  0
 13 14  1  0  0  0
 13 55  1  0  0  0
 13 56  1  0  0  0
 14 15  1  0  0  0
 14 57  1  0  0  0
 14 58  1  0  0  0
 15 16  1  0  0  0
 16 21  1  0  0  0
 16 17  2  0  0  0
 17 18  1  0  0  0
 17 59  1  0  0  0
 18 19  2  0  0  0
 18 60  1  0  0  0
 19 20  1  0  0  0
 19 61  1  0  0  0
 20 21  2  0  0  0
 20 22  1  0  0  0
 21 62  1  0  0  0
 22 23  1  0  0  0
 22 63  1  0  0  0
 22 64  1  0  0  0
 23 38  1  0  0  0
 23 24  1  0  0  0
 23 27  1  0  0  0
 24 25  1  0  0  0
 24 65  1  0  0  0
 25 26  2  0  0  0
 27 39  1  0  0  0
 27 28  1  0  0  0
 27 37  1  0  0  0
 28 40  1  0  0  0
 28 33  1  0  0  0
 28 29  1  0  0  0
 29 30  1  0  0  0
 29 66  1  0  0  0
 29 67  1  0  0  0
 30 31  1  0  0  0
 31 41  1  0  0  0
 31 32  1  0  0  0
 31 34  1  0  0  0
 32 33  1  0  0  0
 32 68  1  0  0  0
 32 69  1  0  0  0
 33 70  1  0  0  0
 33 77  1  0  0  0
 34 35  1  0  0  0
 34 71  1  0  0  0
 34 72  1  0  0  0
 35 36  1  0  0  0
 36 73  1  0  0  0
 36 74  1  0  0  0
 36 75  1  0  0  0
 37 76  1  0  0  0
M  CHG  1  33   1
M  END
> <s_m_source_file>
BACE_13.smi

> <i_m_source_file_index>
1

> <i_lp_mmshare_version>
42013

> <i_f3d_flags>
0

> <s_epik_input>
W0NIM11PW0NIMl1jKFtjSF1jMTIpW2NIXWMoW2NIXTEpW05IXVtDSDJdW0NIMl1bQ0gyXVtDSDJdT2MzW2NIXVtjSF1bY0hdYyhbY0hdMylbQ0gyXVtDQEhdKFtOSF1DMj1PKVtDQEhdKFtPSF0pW0NASF00W0NIMl1PW0NASF0oW0NIMl1bTkhdNClbQ0gyXU9bQ0gzXQ==

> <s_epik_cmdline>
J2VwaWtfcHl0aG9uJywgJy1waCcsICc3LjAnLCAnLXRuJywgJzgnLCAnLW1hJywgJzIwMCcsICctaW1hZScsICc8aW5maWxlLm1hZT4nLCAnLW9tYWUnLCAnPG91dGZpbGUubWFlPic=

> <r_lp_tautomer_probability>
1

> <r_epik_Ionization_Penalty>
  0.1161

> <r_epik_Ionization_Penalty_Charging>
  0.1158

> <r_epik_Ionization_Penalty_Neutral>
  0.0003

> <r_epik_State_Penalty>
  0.1054

> <r_epik_Charging_Adjusted_Penalty>
0.221149

> <i_epik_Tot_Q>
1

> <i_epik_Tot_abs_Q>
1

> <s_lp_Force_Field>
OPLS_2005

> <r_lp_Energy>
45.964

> <b_lp_Chiralities_Consistent>
1

> <s_lp_Variant>
BACE_13.smi:1-1

> <chiral flag>
1

> <version>
0

> <r_i_glide_lipo>
-0.389877

> <r_i_glide_hbond>
-0.448198

> <r_i_glide_metal>
-0

> <r_i_glide_rewards>
0

> <r_i_glide_erotb>
0.309821

> <r_i_glide_esite>
-0.0409344

> <chiral flag>
1

> <s_i_glide_gridfile>
second_dock_grid_2

> <i_i_glide_lignum>
26

> <i_i_glide_rotatable_bonds>
7

> <r_i_docking_score>
-5.56446

> <r_i_glide_ligand_efficiency>
-0.150391

> <r_i_glide_ligand_efficiency_sa>
-0.501136

> <r_i_glide_ligand_efficiency_ln>
-1.2068

> <r_glide_XP_GScore>
-5.66986

> <r_i_glide_gscore>
-5.66986

> <r_i_glide_evdw>
-36.2617

> <r_i_glide_ecoul>
-11.5645

> <r_i_glide_energy>
-47.8262

> <r_i_glide_einternal>
3.25184

> <r_i_glide_emodel>
-60.3808

> <r_glide_XP_HBond>
-1.62337

> <i_i_glide_confnum>
1

> <i_i_glide_posenum>
32

> <r_i_glide_eff_state_penalty>
0.1054

> <i_glide_XP_PoseRank>
4

$$$$
BACE_13.smi:1
                    3D
 Structure written by MMmdl.
 77 80  0  0  1  0            999 V2000
   17.5031   49.0957  -10.6177 C   0  0  0  0  0  0
   18.0860   48.1598   -9.7300 O   0  0  0  0  0  0
   17.5137   46.8654   -9.8378 C   0  0  0  0  0  0
   18.1979   45.8658   -8.9240 C   0  0  0  0  0  0
   18.3051   44.5125   -9.3095 C   0  0  0  0  0  0
   18.9376   43.5749   -8.4660 C   0  0  0  0  0  0
   19.4694   44.0077   -7.2287 C   0  0  0  0  0  0
   19.3726   45.3566   -6.8400 C   0  0  0  0  0  0
   18.7226   46.2814   -7.6825 C   0  0  0  0  0  0
   19.9626   45.7634   -5.6399 N   0  0  0  0  0  0
   21.0488   46.7265   -5.7993 C   0  0  0  0  0  0
   22.3310   46.0630   -6.3299 C   0  0  0  0  0  0
   23.0038   45.1327   -5.3040 C   0  0  0  0  0  0
   24.0462   44.2062   -5.9521 C   0  0  0  0  0  0
   23.4246   43.2915   -6.8492 O   0  0  0  0  0  0
   22.7698   42.1835   -6.3525 C   0  0  0  0  0  0
   22.7069   41.8290   -4.9793 C   0  0  0  0  0  0
   22.0432   40.6534   -4.5804 C   0  0  0  0  0  0
   21.4074   39.8450   -5.5405 C   0  0  0  0  0  0
   21.4259   40.2011   -6.8997 C   0  0  0  0  0  0
   22.1346   41.3540   -7.2997 C   0  0  0  0  0  0
   20.6357   39.3761   -7.9120 C   0  0  0  0  0  0
   19.1366   39.7884   -8.0424 C   0  0  2  0  0  0
   19.0505   41.2447   -7.9109 N   0  0  0  0  0  0
   19.0781   42.1455   -8.9046 C   0  0  0  0  0  0
   19.1213   41.8433  -10.0961 O   0  0  0  0  0  0
   18.1726   39.1240   -7.0024 C   0  0  1  0  0  0
   16.6284   39.2561   -7.2423 C   0  0  1  0  0  0
   16.1775   40.6312   -7.7869 C   0  0  0  0  0  0
   14.8186   40.6635   -8.1594 O   0  0  0  0  0  0
   14.4224   39.6894   -9.1257 C   0  0  2  0  0  0
   14.7108   38.3068   -8.5196 C   0  0  0  0  0  0
   16.1169   38.1497   -8.0897 N   0  3  0  0  0  0
   15.0471   39.8863  -10.5358 C   0  0  0  0  0  0
   14.4606   40.9343  -11.3030 O   0  0  0  0  0  0
   14.7660   42.2383  -10.8373 C   0  0  0  0  0  0
   18.4599   37.7501   -6.8483 O   0  0  0  0  0  0
   18.8003   39.4731   -9.0306 H   0  0  0  0  0  0
   18.4112   39.5606   -6.0401 H   0  0  0  0  0  0
   16.1330   39.1204   -6.2790 H   0  0  0  0  0  0
   13.3409   39.7565   -9.2460 H   0  0  0  0  0  0
   17.9788   50.0683  -10.4919 H   0  0  0  0  0  0
   16.4394   49.2162  -10.4171 H   0  0  0  0  0  0
   17.6317   48.7897  -11.6581 H   0  0  0  0  0  0
   17.5879   46.5154  -10.8680 H   0  0  0  0  0  0
   16.4543   46.9055   -9.5798 H   0  0  0  0  0  0
   17.9058   44.1965  -10.2613 H   0  0  0  0  0  0
   19.9836   43.3127   -6.5799 H   0  0  0  0  0  0
   18.6389   47.3168   -7.3860 H   0  0  0  0  0  0
   20.2596   44.9872   -5.0624 H   0  0  0  0  0  0
   21.2580   47.1994   -4.8399 H   0  0  0  0  0  0
   20.7463   47.5284   -6.4729 H   0  0  0  0  0  0
   23.0424   46.8367   -6.6190 H   0  0  0  0  0  0
   22.1051   45.5169   -7.2472 H   0  0  0  0  0  0
   22.2539   44.5379   -4.7859 H   0  0  0  0  0  0
   23.4869   45.7356   -4.5348 H   0  0  0  0  0  0
   24.6532   43.6853   -5.2131 H   0  0  0  0  0  0
   24.7514   44.8065   -6.5251 H   0  0  0  0  0  0
   23.1780   42.4275   -4.2148 H   0  0  0  0  0  0
   22.0177   40.3745   -3.5364 H   0  0  0  0  0  0
   20.8865   38.9515   -5.2403 H   0  0  0  0  0  0
   22.1654   41.6287   -8.3449 H   0  0  0  0  0  0
   20.7534   38.3130   -7.6951 H   0  0  0  0  0  0
   21.1145   39.5144   -8.8817 H   0  0  0  0  0  0
   18.9757   41.5967   -6.9654 H   0  0  0  0  0  0
   16.7187   40.9077   -8.6816 H   0  0  0  0  0  0
   16.3561   41.4107   -7.0471 H   0  0  0  0  0  0
   14.4646   37.5290   -9.2409 H   0  0  0  0  0  0
   14.0717   38.1534   -7.6482 H   0  0  0  0  0  0
   16.7176   38.0459   -8.8939 H   0  0  0  0  0  0
   16.1320   39.9822  -10.5205 H   0  0  0  0  0  0
   14.8599   38.9815  -11.1110 H   0  0  0  0  0  0
   14.3704   42.9672  -11.5398 H   0  0  0  0  0  0
   15.8427   42.3925  -10.7598 H   0  0  0  0  0  0
   14.3052   42.4373   -9.8698 H   0  0  0  0  0  0
   17.8662   37.3819   -6.2032 H   0  0  0  0  0  0
   16.1676   37.3025   -7.5191 H   0  0  0  0  0  0
  1  2  1  0  0  0
  1 42  1  0  0  0
  1 43  1  0  0  0
  1 44  1  0  0  0
  2  3  1  0  0  0
  3  4  1  0  0  0
  3 45  1  0  0  0
  3 46  1  0  0  0
  4  9  1  0  0  0
  4  5  2  0  0  0
  5  6  1  0  0  0
  5 47  1  0  0  0
  6 25  1  0  0  0
  6  7  2  0  0  0
  7  8  1  0  0  0
  7 48  1  0  0  0
  8  9  2  0  0  0
  8 10  1  0  0  0
  9 49  1  0  0  0
 10 11  1  0  0  0
 10 50  1  0  0  0
 11 12  1  0  0  0
 11 51  1  0  0  0
 11 52  1  0  0  0
 12 13  1  0  0  0
 12 53  1  0  0  0
 12 54  1  0  0  0
 13 14  1  0  0  0
 13 55  1  0  0  0
 13 56  1  0  0  0
 14 15  1  0  0  0
 14 57  1  0  0  0
 14 58  1  0  0  0
 15 16  1  0  0  0
 16 21  1  0  0  0
 16 17  2  0  0  0
 17 18  1  0  0  0
 17 59  1  0  0  0
 18 19  2  0  0  0
 18 60  1  0  0  0
 19 20  1  0  0  0
 19 61  1  0  0  0
 20 21  2  0  0  0
 20 22  1  0  0  0
 21 62  1  0  0  0
 22 23  1  0  0  0
 22 63  1  0  0  0
 22 64  1  0  0  0
 23 38  1  0  0  0
 23 24  1  0  0  0
 23 27  1  0  0  0
 24 25  1  0  0  0
 24 65  1  0  0  0
 25 26  2  0  0  0
 27 39  1  0  0  0
 27 28  1  0  0  0
 27 37  1  0  0  0
 28 40  1  0  0  0
 28 33  1  0  0  0
 28 29  1  0  0  0
 29 30  1  0  0  0
 29 66  1  0  0  0
 29 67  1  0  0  0
 30 31  1  0  0  0
 31 41  1  0  0  0
 31 32  1  0  0  0
 31 34  1  0  0  0
 32 33  1  0  0  0
 32 68  1  0  0  0
 32 69  1  0  0  0
 33 70  1  0  0  0
 33 77  1  0  0  0
 34 35  1  0  0  0
 34 71  1  0  0  0
 34 72  1  0  0  0
 35 36  1  0  0  0
 36 73  1  0  0  0
 36 74  1  0  0  0
 36 75  1  0  0  0
 37 76  1  0  0  0
M  CHG  1  33   1
M  END
> <s_m_source_file>
BACE_13.smi

> <i_m_source_file_index>
1

> <i_lp_mmshare_version>
42013

> <i_f3d_flags>
0

> <s_epik_input>
W0NIM11PW0NIMl1jKFtjSF1jMTIpW2NIXWMoW2NIXTEpW05IXVtDSDJdW0NIMl1bQ0gyXVtDSDJdT2MzW2NIXVtjSF1bY0hdYyhbY0hdMylbQ0gyXVtDQEhdKFtOSF1DMj1PKVtDQEhdKFtPSF0pW0NASF00W0NIMl1PW0NASF0oW0NIMl1bTkhdNClbQ0gyXU9bQ0gzXQ==

> <s_epik_cmdline>
J2VwaWtfcHl0aG9uJywgJy1waCcsICc3LjAnLCAnLXRuJywgJzgnLCAnLW1hJywgJzIwMCcsICctaW1hZScsICc8aW5maWxlLm1hZT4nLCAnLW9tYWUnLCAnPG91dGZpbGUubWFlPic=

> <r_lp_tautomer_probability>
1

> <r_epik_Ionization_Penalty>
  0.1161

> <r_epik_Ionization_Penalty_Charging>
  0.1158

> <r_epik_Ionization_Penalty_Neutral>
  0.0003

> <r_epik_State_Penalty>
  0.1054

> <r_epik_Charging_Adjusted_Penalty>
0.221149

> <i_epik_Tot_Q>
1

> <i_epik_Tot_abs_Q>
1

> <s_lp_Force_Field>
OPLS_2005

> <r_lp_Energy>
45.964

> <b_lp_Chiralities_Consistent>
1

> <s_lp_Variant>
BACE_13.smi:1-1

> <chiral flag>
1

> <version>
0

> <r_i_glide_lipo>
-0.389877

> <r_i_glide_hbond>
-0.448198

> <r_i_glide_metal>
-0

> <r_i_glide_rewards>
0

> <r_i_glide_erotb>
0.309821

> <r_i_glide_esite>
-0.0409344

> <chiral flag>
1

> <s_i_glide_gridfile>
second_dock_grid_2

> <i_i_glide_lignum>
26

> <i_i_glide_rotatable_bonds>
7

> <r_i_docking_score>
-5.48412

> <r_i_glide_ligand_efficiency>
-0.148219

> <r_i_glide_ligand_efficiency_sa>
-0.4939

> <r_i_glide_ligand_efficiency_ln>
-1.18938

> <r_glide_XP_GScore>
-5.58952

> <r_i_glide_gscore>
-5.58952

> <r_i_glide_evdw>
-32.561

> <r_i_glide_ecoul>
-17.7121

> <r_i_glide_energy>
-50.273

> <r_i_glide_einternal>
9.94369

> <r_i_glide_emodel>
-66.0699

> <r_glide_XP_HBond>
-1.62337

> <i_i_glide_confnum>
1

> <i_i_glide_posenum>
1

> <r_i_glide_eff_state_penalty>
0.1054

> <i_glide_XP_PoseRank>
5

$$$$
BACE_13.smi:1
                    3D
 Structure written by MMmdl.
 77 80  0  0  1  0            999 V2000
   23.5559   42.3776   -4.2118 C   0  0  0  0  0  0
   22.4979   42.8772   -3.4080 O   0  0  0  0  0  0
   21.3434   42.0533   -3.4252 C   0  0  0  0  0  0
   20.8611   41.7670   -4.8337 C   0  0  0  0  0  0
   20.1004   42.7272   -5.5297 C   0  0  0  0  0  0
   19.6610   42.4568   -6.8412 C   0  0  0  0  0  0
   20.0850   41.2656   -7.4835 C   0  0  0  0  0  0
   20.8641   40.3037   -6.7940 C   0  0  0  0  0  0
   21.2285   40.5581   -5.4598 C   0  0  0  0  0  0
   21.2937   39.0970   -7.3724 N   0  0  0  0  0  0
   20.6798   38.6081   -8.5979 C   0  0  0  0  0  0
   21.3487   39.1654   -9.8598 C   0  0  0  0  0  0
   20.3663   39.1603  -11.0405 C   0  0  0  0  0  0
   20.9179   39.8197  -12.3199 C   0  0  0  0  0  0
   21.5966   41.0428  -12.0636 O   0  0  0  0  0  0
   20.9022   42.1511  -11.6383 C   0  0  0  0  0  0
   21.6818   43.2577  -11.2448 C   0  0  0  0  0  0
   21.0771   44.4546  -10.8208 C   0  0  0  0  0  0
   19.6764   44.5390  -10.7440 C   0  0  0  0  0  0
   18.8809   43.4257  -11.0807 C   0  0  0  0  0  0
   19.4901   42.2495  -11.5687 C   0  0  0  0  0  0
   17.3804   43.4688  -10.8244 C   0  0  0  0  0  0
   17.0253   43.6363   -9.3214 C   0  0  2  0  0  0
   17.9686   42.8921   -8.4864 N   0  0  0  0  0  0
   18.7220   43.4175   -7.5077 C   0  0  0  0  0  0
   18.6081   44.5785   -7.1115 O   0  0  0  0  0  0
   15.5476   43.2939   -8.9806 C   0  0  1  0  0  0
   15.1506   41.8359   -8.5813 C   0  0  1  0  0  0
   15.5626   40.7501   -9.5991 C   0  0  0  0  0  0
   15.0822   39.4727   -9.1875 O   0  0  0  0  0  0
   15.5262   39.0360   -7.8981 C   0  0  2  0  0  0
   15.1417   40.0908   -6.8480 C   0  0  0  0  0  0
   15.6178   41.4361   -7.2352 N   0  3  0  0  0  0
   17.0332   38.7147   -7.8847 C   0  0  0  0  0  0
   17.4055   37.8967   -8.9862 O   0  0  0  0  0  0
   17.1375   36.5206   -8.7849 C   0  0  0  0  0  0
   15.0662   44.2443   -8.0414 O   0  0  0  0  0  0
   17.1711   44.7024   -9.1360 H   0  0  0  0  0  0
   14.9728   43.5198   -9.8797 H   0  0  0  0  0  0
   14.0600   41.8224   -8.5407 H   0  0  0  0  0  0
   14.9810   38.1205   -7.6686 H   0  0  0  0  0  0
   24.4598   42.9467   -4.0403 H   0  0  0  0  0  0
   23.3341   42.4793   -5.2744 H   0  0  0  0  0  0
   23.7664   41.3271   -3.9984 H   0  0  0  0  0  0
   20.5535   42.5523   -2.8628 H   0  0  0  0  0  0
   21.5528   41.1191   -2.9014 H   0  0  0  0  0  0
   19.8174   43.6411   -5.0261 H   0  0  0  0  0  0
   19.7976   41.0809   -8.5083 H   0  0  0  0  0  0
   21.8242   39.8369   -4.9182 H   0  0  0  0  0  0
   21.7617   38.4196   -6.7857 H   0  0  0  0  0  0
   19.6266   38.8716   -8.5815 H   0  0  0  0  0  0
   20.7074   37.5204   -8.6255 H   0  0  0  0  0  0
   22.2507   38.5973  -10.0938 H   0  0  0  0  0  0
   21.6766   40.1890   -9.6760 H   0  0  0  0  0  0
   19.4522   39.6628  -10.7301 H   0  0  0  0  0  0
   20.0589   38.1396  -11.2641 H   0  0  0  0  0  0
   20.1322   39.9608  -13.0632 H   0  0  0  0  0  0
   21.6470   39.1504  -12.7792 H   0  0  0  0  0  0
   22.7594   43.1897  -11.2901 H   0  0  0  0  0  0
   21.6886   45.2984  -10.5353 H   0  0  0  0  0  0
   19.2198   45.4464  -10.3760 H   0  0  0  0  0  0
   18.8595   41.4215  -11.8551 H   0  0  0  0  0  0
   16.9370   42.5563  -11.2202 H   0  0  0  0  0  0
   16.9484   44.2847  -11.4023 H   0  0  0  0  0  0
   18.1694   41.9389   -8.7523 H   0  0  0  0  0  0
   16.6421   40.7145   -9.7384 H   0  0  0  0  0  0
   15.1296   40.9731  -10.5749 H   0  0  0  0  0  0
   15.5238   39.8247   -5.8615 H   0  0  0  0  0  0
   14.0598   40.1334   -6.7557 H   0  0  0  0  0  0
   16.6258   41.4589   -7.1739 H   0  0  0  0  0  0
   17.6043   39.6385   -7.9533 H   0  0  0  0  0  0
   17.3278   38.2583   -6.9380 H   0  0  0  0  0  0
   17.4919   35.9489   -9.6396 H   0  0  0  0  0  0
   16.0712   36.3294   -8.6687 H   0  0  0  0  0  0
   17.6595   36.1483   -7.9039 H   0  0  0  0  0  0
   15.5057   44.1296   -7.2013 H   0  0  0  0  0  0
   15.2503   42.0817   -6.5376 H   0  0  0  0  0  0
  1  2  1  0  0  0
  1 42  1  0  0  0
  1 43  1  0  0  0
  1 44  1  0  0  0
  2  3  1  0  0  0
  3  4  1  0  0  0
  3 45  1  0  0  0
  3 46  1  0  0  0
  4  9  1  0  0  0
  4  5  2  0  0  0
  5  6  1  0  0  0
  5 47  1  0  0  0
  6 25  1  0  0  0
  6  7  2  0  0  0
  7  8  1  0  0  0
  7 48  1  0  0  0
  8  9  2  0  0  0
  8 10  1  0  0  0
  9 49  1  0  0  0
 10 11  1  0  0  0
 10 50  1  0  0  0
 11 12  1  0  0  0
 11 51  1  0  0  0
 11 52  1  0  0  0
 12 13  1  0  0  0
 12 53  1  0  0  0
 12 54  1  0  0  0
 13 14  1  0  0  0
 13 55  1  0  0  0
 13 56  1  0  0  0
 14 15  1  0  0  0
 14 57  1  0  0  0
 14 58  1  0  0  0
 15 16  1  0  0  0
 16 21  1  0  0  0
 16 17  2  0  0  0
 17 18  1  0  0  0
 17 59  1  0  0  0
 18 19  2  0  0  0
 18 60  1  0  0  0
 19 20  1  0  0  0
 19 61  1  0  0  0
 20 21  2  0  0  0
 20 22  1  0  0  0
 21 62  1  0  0  0
 22 23  1  0  0  0
 22 63  1  0  0  0
 22 64  1  0  0  0
 23 38  1  0  0  0
 23 24  1  0  0  0
 23 27  1  0  0  0
 24 25  1  0  0  0
 24 65  1  0  0  0
 25 26  2  0  0  0
 27 39  1  0  0  0
 27 28  1  0  0  0
 27 37  1  0  0  0
 28 40  1  0  0  0
 28 33  1  0  0  0
 28 29  1  0  0  0
 29 30  1  0  0  0
 29 66  1  0  0  0
 29 67  1  0  0  0
 30 31  1  0  0  0
 31 41  1  0  0  0
 31 32  1  0  0  0
 31 34  1  0  0  0
 32 33  1  0  0  0
 32 68  1  0  0  0
 32 69  1  0  0  0
 33 70  1  0  0  0
 33 77  1  0  0  0
 34 35  1  0  0  0
 34 71  1  0  0  0
 34 72  1  0  0  0
 35 36  1  0  0  0
 36 73  1  0  0  0
 36 74  1  0  0  0
 36 75  1  0  0  0
 37 76  1  0  0  0
M  CHG  1  33   1
M  END
> <s_m_source_file>
BACE_13.smi

> <i_m_source_file_index>
1

> <i_lp_mmshare_version>
42013

> <i_f3d_flags>
0

> <s_epik_input>
W0NIM11PW0NIMl1jKFtjSF1jMTIpW2NIXWMoW2NIXTEpW05IXVtDSDJdW0NIMl1bQ0gyXVtDSDJdT2MzW2NIXVtjSF1bY0hdYyhbY0hdMylbQ0gyXVtDQEhdKFtOSF1DMj1PKVtDQEhdKFtPSF0pW0NASF00W0NIMl1PW0NASF0oW0NIMl1bTkhdNClbQ0gyXU9bQ0gzXQ==

> <s_epik_cmdline>
J2VwaWtfcHl0aG9uJywgJy1waCcsICc3LjAnLCAnLXRuJywgJzgnLCAnLW1hJywgJzIwMCcsICctaW1hZScsICc8aW5maWxlLm1hZT4nLCAnLW9tYWUnLCAnPG91dGZpbGUubWFlPic=

> <r_lp_tautomer_probability>
1

> <r_epik_Ionization_Penalty>
  0.1161

> <r_epik_Ionization_Penalty_Charging>
  0.1158

> <r_epik_Ionization_Penalty_Neutral>
  0.0003

> <r_epik_State_Penalty>
  0.1054

> <r_epik_Charging_Adjusted_Penalty>
0.221149

> <i_epik_Tot_Q>
1

> <i_epik_Tot_abs_Q>
1

> <s_lp_Force_Field>
OPLS_2005

> <r_lp_Energy>
45.964

> <b_lp_Chiralities_Consistent>
1

> <s_lp_Variant>
BACE_13.smi:1-1

> <chiral flag>
1

> <version>
0

> <r_i_glide_lipo>
-0.389877

> <r_i_glide_hbond>
-0.448198

> <r_i_glide_metal>
-0

> <r_i_glide_rewards>
0

> <r_i_glide_erotb>
0.309821

> <r_i_glide_esite>
-0.0409344

> <chiral flag>
1

> <s_i_glide_gridfile>
second_dock_grid_2

> <i_i_glide_lignum>
26

> <i_i_glide_rotatable_bonds>
7

> <r_i_docking_score>
-5.16982

> <r_i_glide_ligand_efficiency>
-0.139725

> <r_i_glide_ligand_efficiency_sa>
-0.465594

> <r_i_glide_ligand_efficiency_ln>
-1.12121

> <r_glide_XP_GScore>
-5.27522

> <r_i_glide_gscore>
-5.27522

> <r_i_glide_evdw>
-36.9325

> <r_i_glide_ecoul>
-11.3869

> <r_i_glide_energy>
-48.3195

> <r_i_glide_einternal>
3.3357

> <r_i_glide_emodel>
-61.5095

> <r_glide_XP_HBond>
-1.62337

> <i_i_glide_confnum>
1

> <i_i_glide_posenum>
29

> <r_i_glide_eff_state_penalty>
0.1054

> <i_glide_XP_PoseRank>
6

$$$$
BACE_13.smi:1
                    3D
 Structure written by MMmdl.
 77 80  0  0  1  0            999 V2000
   18.1548   43.1427  -13.1126 C   0  0  0  0  0  0
   16.8775   43.6381  -12.7394 O   0  0  0  0  0  0
   16.9165   44.4945  -11.6037 C   0  0  0  0  0  0
   17.3962   43.7880  -10.3499 C   0  0  0  0  0  0
   18.7649   43.8044  -10.0109 C   0  0  0  0  0  0
   19.2336   43.0691   -8.9016 C   0  0  0  0  0  0
   18.3099   42.3835   -8.0853 C   0  0  0  0  0  0
   16.9414   42.3611   -8.4213 C   0  0  0  0  0  0
   16.4876   43.0601   -9.5584 C   0  0  0  0  0  0
   16.0600   41.6115   -7.6398 N   0  0  0  0  0  0
   15.2099   40.6266   -8.2974 C   0  0  0  0  0  0
   16.0160   39.4991   -8.9694 C   0  0  0  0  0  0
   16.7972   38.6352   -7.9636 C   0  0  0  0  0  0
   17.6650   37.5575   -8.6382 C   0  0  0  0  0  0
   18.7064   38.1298   -9.4298 O   0  0  0  0  0  0
   19.8282   38.6500   -8.8138 C   0  0  0  0  0  0
   20.0977   38.5616   -7.4253 C   0  0  0  0  0  0
   21.2790   39.1081   -6.8893 C   0  0  0  0  0  0
   22.1974   39.7659   -7.7262 C   0  0  0  0  0  0
   21.9307   39.8887   -9.1046 C   0  0  0  0  0  0
   20.7576   39.3152   -9.6414 C   0  0  0  0  0  0
   22.8805   40.6816   -9.9897 C   0  0  0  0  0  0
   22.8242   42.2156   -9.7462 C   0  0  2  0  0  0
   21.4370   42.6798   -9.7148 N   0  0  0  0  0  0
   20.7017   42.9583   -8.6261 C   0  0  0  0  0  0
   21.1511   43.0154   -7.4822 O   0  0  0  0  0  0
   23.6133   43.0623  -10.7813 C   0  0  1  0  0  0
   25.1083   42.6842  -10.9414 C   0  0  1  0  0  0
   25.8308   43.5429  -12.0020 C   0  0  0  0  0  0
   27.1782   43.1068  -12.1502 O   0  0  0  0  0  0
   27.9631   43.1727  -10.9610 C   0  0  2  0  0  0
   27.2629   42.4043   -9.8224 C   0  0  0  0  0  0
   25.8498   42.8184   -9.6705 N   0  3  0  0  0  0
   28.3300   44.6267  -10.5896 C   0  0  0  0  0  0
   29.2572   44.6668   -9.5114 O   0  0  0  0  0  0
   30.6150   44.5240   -9.9010 C   0  0  0  0  0  0
   22.9756   42.9495  -12.0425 O   0  0  0  0  0  0
   23.2613   42.4002   -8.7641 H   0  0  0  0  0  0
   23.5468   44.1121  -10.4884 H   0  0  0  0  0  0
   25.1757   41.6380  -11.2406 H   0  0  0  0  0  0
   28.8880   42.6470  -11.1957 H   0  0  0  0  0  0
   18.0965   42.6016  -14.0515 H   0  0  0  0  0  0
   18.5526   42.4430  -12.3778 H   0  0  0  0  0  0
   18.8592   43.9638  -13.2396 H   0  0  0  0  0  0
   15.9117   44.8815  -11.4302 H   0  0  0  0  0  0
   17.5461   45.3616  -11.8093 H   0  0  0  0  0  0
   19.4604   44.3453  -10.6360 H   0  0  0  0  0  0
   18.6618   41.8155   -7.2364 H   0  0  0  0  0  0
   15.4425   43.0356   -9.8285 H   0  0  0  0  0  0
   16.3814   41.3453   -6.7149 H   0  0  0  0  0  0
   14.5680   41.1193   -9.0273 H   0  0  0  0  0  0
   14.5400   40.2013   -7.5484 H   0  0  0  0  0  0
   16.6972   39.9153   -9.7117 H   0  0  0  0  0  0
   15.3268   38.8603   -9.5214 H   0  0  0  0  0  0
   16.0871   38.1532   -7.2905 H   0  0  0  0  0  0
   17.4188   39.2673   -7.3305 H   0  0  0  0  0  0
   17.0387   36.9605   -9.3015 H   0  0  0  0  0  0
   18.0593   36.8513   -7.9081 H   0  0  0  0  0  0
   19.4170   38.0742   -6.7444 H   0  0  0  0  0  0
   21.4755   39.0305   -5.8304 H   0  0  0  0  0  0
   23.0906   40.1995   -7.3013 H   0  0  0  0  0  0
   20.5500   39.4042  -10.6974 H   0  0  0  0  0  0
   22.6554   40.4568  -11.0324 H   0  0  0  0  0  0
   23.8891   40.3107   -9.8121 H   0  0  0  0  0  0
   20.9550   42.6594  -10.6011 H   0  0  0  0  0  0
   25.7905   44.6033  -11.7474 H   0  0  0  0  0  0
   25.3466   43.4463  -12.9699 H   0  0  0  0  0  0
   27.7952   42.5551   -8.8823 H   0  0  0  0  0  0
   27.2856   41.3338  -10.0375 H   0  0  0  0  0  0
   25.8174   43.7805   -9.3620 H   0  0  0  0  0  0
   28.7204   45.1631  -11.4571 H   0  0  0  0  0  0
   27.4410   45.1690  -10.2674 H   0  0  0  0  0  0
   31.2523   44.5434   -9.0166 H   0  0  0  0  0  0
   30.9233   45.3480  -10.5460 H   0  0  0  0  0  0
   30.7967   43.5861  -10.4230 H   0  0  0  0  0  0
   23.1579   42.0868  -12.4040 H   0  0  0  0  0  0
   25.4178   42.2361   -8.9667 H   0  0  0  0  0  0
  1  2  1  0  0  0
  1 42  1  0  0  0
  1 43  1  0  0  0
  1 44  1  0  0  0
  2  3  1  0  0  0
  3  4  1  0  0  0
  3 45  1  0  0  0
  3 46  1  0  0  0
  4  9  1  0  0  0
  4  5  2  0  0  0
  5  6  1  0  0  0
  5 47  1  0  0  0
  6 25  1  0  0  0
  6  7  2  0  0  0
  7  8  1  0  0  0
  7 48  1  0  0  0
  8  9  2  0  0  0
  8 10  1  0  0  0
  9 49  1  0  0  0
 10 11  1  0  0  0
 10 50  1  0  0  0
 11 12  1  0  0  0
 11 51  1  0  0  0
 11 52  1  0  0  0
 12 13  1  0  0  0
 12 53  1  0  0  0
 12 54  1  0  0  0
 13 14  1  0  0  0
 13 55  1  0  0  0
 13 56  1  0  0  0
 14 15  1  0  0  0
 14 57  1  0  0  0
 14 58  1  0  0  0
 15 16  1  0  0  0
 16 21  1  0  0  0
 16 17  2  0  0  0
 17 18  1  0  0  0
 17 59  1  0  0  0
 18 19  2  0  0  0
 18 60  1  0  0  0
 19 20  1  0  0  0
 19 61  1  0  0  0
 20 21  2  0  0  0
 20 22  1  0  0  0
 21 62  1  0  0  0
 22 23  1  0  0  0
 22 63  1  0  0  0
 22 64  1  0  0  0
 23 38  1  0  0  0
 23 24  1  0  0  0
 23 27  1  0  0  0
 24 25  1  0  0  0
 24 65  1  0  0  0
 25 26  2  0  0  0
 27 39  1  0  0  0
 27 28  1  0  0  0
 27 37  1  0  0  0
 28 40  1  0  0  0
 28 33  1  0  0  0
 28 29  1  0  0  0
 29 30  1  0  0  0
 29 66  1  0  0  0
 29 67  1  0  0  0
 30 31  1  0  0  0
 31 41  1  0  0  0
 31 32  1  0  0  0
 31 34  1  0  0  0
 32 33  1  0  0  0
 32 68  1  0  0  0
 32 69  1  0  0  0
 33 70  1  0  0  0
 33 77  1  0  0  0
 34 35  1  0  0  0
 34 71  1  0  0  0
 34 72  1  0  0  0
 35 36  1  0  0  0
 36 73  1  0  0  0
 36 74  1  0  0  0
 36 75  1  0  0  0
 37 76  1  0  0  0
M  CHG  1  33   1
M  END
> <s_m_source_file>
BACE_13.smi

> <i_m_source_file_index>
1

> <i_lp_mmshare_version>
42013

> <i_f3d_flags>
0

> <s_epik_input>
W0NIM11PW0NIMl1jKFtjSF1jMTIpW2NIXWMoW2NIXTEpW05IXVtDSDJdW0NIMl1bQ0gyXVtDSDJdT2MzW2NIXVtjSF1bY0hdYyhbY0hdMylbQ0gyXVtDQEhdKFtOSF1DMj1PKVtDQEhdKFtPSF0pW0NASF00W0NIMl1PW0NASF0oW0NIMl1bTkhdNClbQ0gyXU9bQ0gzXQ==

> <s_epik_cmdline>
J2VwaWtfcHl0aG9uJywgJy1waCcsICc3LjAnLCAnLXRuJywgJzgnLCAnLW1hJywgJzIwMCcsICctaW1hZScsICc8aW5maWxlLm1hZT4nLCAnLW9tYWUnLCAnPG91dGZpbGUubWFlPic=

> <r_lp_tautomer_probability>
1

> <r_epik_Ionization_Penalty>
  0.1161

> <r_epik_Ionization_Penalty_Charging>
  0.1158

> <r_epik_Ionization_Penalty_Neutral>
  0.0003

> <r_epik_State_Penalty>
  0.1054

> <r_epik_Charging_Adjusted_Penalty>
0.221149

> <i_epik_Tot_Q>
1

> <i_epik_Tot_abs_Q>
1

> <s_lp_Force_Field>
OPLS_2005

> <r_lp_Energy>
45.964

> <b_lp_Chiralities_Consistent>
1

> <s_lp_Variant>
BACE_13.smi:1-1

> <chiral flag>
1

> <version>
0

> <r_i_glide_lipo>
-0.389877

> <r_i_glide_hbond>
-0.448198

> <r_i_glide_metal>
-0

> <r_i_glide_rewards>
0

> <r_i_glide_erotb>
0.309821

> <r_i_glide_esite>
-0.0409344

> <chiral flag>
1

> <s_i_glide_gridfile>
second_dock_grid_2

> <i_i_glide_lignum>
26

> <i_i_glide_rotatable_bonds>
7

> <r_i_docking_score>
-4.52189

> <r_i_glide_ligand_efficiency>
-0.122213

> <r_i_glide_ligand_efficiency_sa>
-0.407242

> <r_i_glide_ligand_efficiency_ln>
-0.980692

> <r_glide_XP_GScore>
-4.62729

> <r_i_glide_gscore>
-4.62729

> <r_i_glide_evdw>
-34.3801

> <r_i_glide_ecoul>
-10.4129

> <r_i_glide_energy>
-44.793

> <r_i_glide_einternal>
3.84604

> <r_i_glide_emodel>
-63.9776

> <r_glide_XP_HBond>
-1.62337

> <i_i_glide_confnum>
1

> <i_i_glide_posenum>
12

> <r_i_glide_eff_state_penalty>
0.1054

> <i_glide_XP_PoseRank>
7

$$$$
BACE_13.smi:1
                    3D
 Structure written by MMmdl.
 77 80  0  0  1  0            999 V2000
   18.3039   42.9485  -13.0017 C   0  0  0  0  0  0
   16.9761   43.4356  -12.8399 O   0  0  0  0  0  0
   16.7974   44.2685  -11.6972 C   0  0  0  0  0  0
   17.1508   43.5694  -10.3965 C   0  0  0  0  0  0
   18.4773   43.6126   -9.9233 C   0  0  0  0  0  0
   18.8533   42.8581   -8.7945 C   0  0  0  0  0  0
   17.8737   42.1352   -8.0871 C   0  0  0  0  0  0
   16.5392   42.1047   -8.5386 C   0  0  0  0  0  0
   16.1812   42.8168   -9.7020 C   0  0  0  0  0  0
   15.6087   41.3282   -7.8445 N   0  0  0  0  0  0
   14.7499   40.4187   -8.5963 C   0  0  0  0  0  0
   15.5184   39.2935   -9.3071 C   0  0  0  0  0  0
   16.0841   38.2695   -8.3102 C   0  0  0  0  0  0
   17.0058   37.2209   -8.9556 C   0  0  0  0  0  0
   18.1118   37.8056   -9.6382 O   0  0  0  0  0  0
   19.1429   38.3651   -8.9119 C   0  0  0  0  0  0
   19.2264   38.3470   -7.4953 C   0  0  0  0  0  0
   20.3146   38.9464   -6.8395 C   0  0  0  0  0  0
   21.3428   39.5477   -7.5768 C   0  0  0  0  0  0
   21.2670   39.5908   -8.9812 C   0  0  0  0  0  0
   20.1743   38.9914   -9.6417 C   0  0  0  0  0  0
   22.3381   40.3351   -9.7607 C   0  0  0  0  0  0
   22.4245   41.8444   -9.3895 C   0  0  2  0  0  0
   21.0809   42.4152   -9.4489 N   0  0  0  0  0  0
   20.2916   42.7387   -8.4123 C   0  0  0  0  0  0
   20.6690   42.8171   -7.2448 O   0  0  0  0  0  0
   23.3541   42.7314  -10.2595 C   0  0  1  0  0  0
   24.8785   42.6608   -9.9818 C   0  0  1  0  0  0
   25.5582   41.2954  -10.2429 C   0  0  0  0  0  0
   26.9613   41.3857  -10.0401 O   0  0  0  0  0  0
   27.6426   42.3508  -10.8298 C   0  0  2  0  0  0
   27.0201   43.7392  -10.5831 C   0  0  0  0  0  0
   25.5570   43.7141  -10.7745 N   0  3  0  0  0  0
   27.6927   41.9323  -12.3080 C   0  0  0  0  0  0
   28.7351   42.6105  -12.9952 O   0  0  0  0  0  0
   29.9617   41.8906  -13.0212 C   0  0  0  0  0  0
   23.0933   42.5503  -11.6400 O   0  0  0  0  0  0
   22.7814   41.9197   -8.3607 H   0  0  0  0  0  0
   23.0716   43.7654  -10.0489 H   0  0  0  0  0  0
   25.0354   42.9073   -8.9295 H   0  0  0  0  0  0
   28.6627   42.3655  -10.4480 H   0  0  0  0  0  0
   18.4570   42.5502  -14.0047 H   0  0  0  0  0  0
   18.5155   42.1398  -12.3003 H   0  0  0  0  0  0
   19.0323   43.7437  -12.8406 H   0  0  0  0  0  0
   15.7576   44.5892  -11.6644 H   0  0  0  0  0  0
   17.3957   45.1744  -11.8041 H   0  0  0  0  0  0
   19.2200   44.1744  -10.4703 H   0  0  0  0  0  0
   18.1641   41.5324   -7.2398 H   0  0  0  0  0  0
   15.1696   42.7812  -10.0741 H   0  0  0  0  0  0
   15.8598   41.0211   -6.9122 H   0  0  0  0  0  0
   14.1388   40.9755   -9.3085 H   0  0  0  0  0  0
   14.0588   39.9657   -7.8867 H   0  0  0  0  0  0
   16.3153   39.7101   -9.9242 H   0  0  0  0  0  0
   14.8465   38.7772   -9.9917 H   0  0  0  0  0  0
   15.2606   37.7558   -7.8155 H   0  0  0  0  0  0
   16.6046   38.7984   -7.5148 H   0  0  0  0  0  0
   16.4368   36.6568   -9.6950 H   0  0  0  0  0  0
   17.3459   36.4871   -8.2250 H   0  0  0  0  0  0
   18.4729   37.8761   -6.8826 H   0  0  0  0  0  0
   20.3598   38.9492   -5.7609 H   0  0  0  0  0  0
   22.1684   40.0110   -7.0546 H   0  0  0  0  0  0
   20.1057   39.0236  -10.7190 H   0  0  0  0  0  0
   22.1492   40.2105  -10.8261 H   0  0  0  0  0  0
   23.2610   39.8103   -9.5518 H   0  0  0  0  0  0
   20.6367   42.3788  -10.3542 H   0  0  0  0  0  0
   25.3407   40.9155  -11.2372 H   0  0  0  0  0  0
   25.2120   40.5509   -9.5314 H   0  0  0  0  0  0
   27.4670   44.4839  -11.2446 H   0  0  0  0  0  0
   27.2326   44.0598   -9.5614 H   0  0  0  0  0  0
   25.3452   43.5419  -11.7481 H   0  0  0  0  0  0
   27.8219   40.8520  -12.3830 H   0  0  0  0  0  0
   26.7469   42.1712  -12.7981 H   0  0  0  0  0  0
   30.7221   42.4787  -13.5340 H   0  0  0  0  0  0
   29.8509   40.9513  -13.5651 H   0  0  0  0  0  0
   30.3242   41.6718  -12.0158 H   0  0  0  0  0  0
   23.3461   41.6765  -11.9230 H   0  0  0  0  0  0
   25.1707   44.6128  -10.5251 H   0  0  0  0  0  0
  1  2  1  0  0  0
  1 42  1  0  0  0
  1 43  1  0  0  0
  1 44  1  0  0  0
  2  3  1  0  0  0
  3  4  1  0  0  0
  3 45  1  0  0  0
  3 46  1  0  0  0
  4  9  1  0  0  0
  4  5  2  0  0  0
  5  6  1  0  0  0
  5 47  1  0  0  0
  6 25  1  0  0  0
  6  7  2  0  0  0
  7  8  1  0  0  0
  7 48  1  0  0  0
  8  9  2  0  0  0
  8 10  1  0  0  0
  9 49  1  0  0  0
 10 11  1  0  0  0
 10 50  1  0  0  0
 11 12  1  0  0  0
 11 51  1  0  0  0
 11 52  1  0  0  0
 12 13  1  0  0  0
 12 53  1  0  0  0
 12 54  1  0  0  0
 13 14  1  0  0  0
 13 55  1  0  0  0
 13 56  1  0  0  0
 14 15  1  0  0  0
 14 57  1  0  0  0
 14 58  1  0  0  0
 15 16  1  0  0  0
 16 21  1  0  0  0
 16 17  2  0  0  0
 17 18  1  0  0  0
 17 59  1  0  0  0
 18 19  2  0  0  0
 18 60  1  0  0  0
 19 20  1  0  0  0
 19 61  1  0  0  0
 20 21  2  0  0  0
 20 22  1  0  0  0
 21 62  1  0  0  0
 22 23  1  0  0  0
 22 63  1  0  0  0
 22 64  1  0  0  0
 23 38  1  0  0  0
 23 24  1  0  0  0
 23 27  1  0  0  0
 24 25  1  0  0  0
 24 65  1  0  0  0
 25 26  2  0  0  0
 27 39  1  0  0  0
 27 28  1  0  0  0
 27 37  1  0  0  0
 28 40  1  0  0  0
 28 33  1  0  0  0
 28 29  1  0  0  0
 29 30  1  0  0  0
 29 66  1  0  0  0
 29 67  1  0  0  0
 30 31  1  0  0  0
 31 41  1  0  0  0
 31 32  1  0  0  0
 31 34  1  0  0  0
 32 33  1  0  0  0
 32 68  1  0  0  0
 32 69  1  0  0  0
 33 70  1  0  0  0
 33 77  1  0  0  0
 34 35  1  0  0  0
 34 71  1  0  0  0
 34 72  1  0  0  0
 35 36  1  0  0  0
 36 73  1  0  0  0
 36 74  1  0  0  0
 36 75  1  0  0  0
 37 76  1  0  0  0
M  CHG  1  33   1
M  END
> <s_m_source_file>
BACE_13.smi

> <i_m_source_file_index>
1

> <i_lp_mmshare_version>
42013

> <i_f3d_flags>
0

> <s_epik_input>
W0NIM11PW0NIMl1jKFtjSF1jMTIpW2NIXWMoW2NIXTEpW05IXVtDSDJdW0NIMl1bQ0gyXVtDSDJdT2MzW2NIXVtjSF1bY0hdYyhbY0hdMylbQ0gyXVtDQEhdKFtOSF1DMj1PKVtDQEhdKFtPSF0pW0NASF00W0NIMl1PW0NASF0oW0NIMl1bTkhdNClbQ0gyXU9bQ0gzXQ==

> <s_epik_cmdline>
J2VwaWtfcHl0aG9uJywgJy1waCcsICc3LjAnLCAnLXRuJywgJzgnLCAnLW1hJywgJzIwMCcsICctaW1hZScsICc8aW5maWxlLm1hZT4nLCAnLW9tYWUnLCAnPG91dGZpbGUubWFlPic=

> <r_lp_tautomer_probability>
1

> <r_epik_Ionization_Penalty>
  0.1161

> <r_epik_Ionization_Penalty_Charging>
  0.1158

> <r_epik_Ionization_Penalty_Neutral>
  0.0003

> <r_epik_State_Penalty>
  0.1054

> <r_epik_Charging_Adjusted_Penalty>
0.221149

> <i_epik_Tot_Q>
1

> <i_epik_Tot_abs_Q>
1

> <s_lp_Force_Field>
OPLS_2005

> <r_lp_Energy>
45.964

> <b_lp_Chiralities_Consistent>
1

> <s_lp_Variant>
BACE_13.smi:1-1

> <chiral flag>
1

> <version>
0

> <r_i_glide_lipo>
-0.389877

> <r_i_glide_hbond>
-0.448198

> <r_i_glide_metal>
-0

> <r_i_glide_rewards>
0

> <r_i_glide_erotb>
0.309821

> <r_i_glide_esite>
-0.0409344

> <chiral flag>
1

> <s_i_glide_gridfile>
second_dock_grid_2

> <i_i_glide_lignum>
26

> <i_i_glide_rotatable_bonds>
7

> <r_i_docking_score>
-2.94565

> <r_i_glide_ligand_efficiency>
-0.079612

> <r_i_glide_ligand_efficiency_sa>
-0.265285

> <r_i_glide_ligand_efficiency_ln>
-0.638841

> <r_glide_XP_GScore>
-3.05105

> <r_i_glide_gscore>
-3.05105

> <r_i_glide_evdw>
-37.325

> <r_i_glide_ecoul>
-12.422

> <r_i_glide_energy>
-49.747

> <r_i_glide_einternal>
6.91688

> <r_i_glide_emodel>
-60.2012

> <r_glide_XP_HBond>
-1.62337

> <i_i_glide_confnum>
1

> <i_i_glide_posenum>
43

> <r_i_glide_eff_state_penalty>
0.1054

> <i_glide_XP_PoseRank>
8

$$$$
