BACE_8.smi:1
                    3D
 Structure written by MMmdl.
 77 79  0  0  1  0            999 V2000
   20.5277   38.9237   -7.4621 C   0  0  0  0  0  0
   19.7896   39.1856   -8.7929 C   0  0  2  0  0  0
   19.0022   37.9312   -9.2415 C   0  0  0  0  0  0
   17.7777   37.6117   -8.3754 C   0  0  0  0  0  0
   16.8383   38.6636   -8.5171 O   0  0  0  0  0  0
   15.7648   38.5500   -7.5980 C   0  0  0  0  0  0
   14.7620   39.6841   -7.7951 C   0  0  0  0  0  0
   15.2549   41.0418   -7.2771 C   0  0  0  0  0  0
   16.5097   41.5515   -7.9873 C   0  0  0  0  0  0
   16.7867   42.9323   -7.6402 N   0  0  0  0  0  0
   18.0532   43.4403   -7.9268 C   0  0  0  0  0  0
   18.8095   42.9848   -9.0259 C   0  0  0  0  0  0
   20.0475   43.5966   -9.2915 C   0  0  0  0  0  0
   20.4921   44.6198   -8.4315 C   0  0  0  0  0  0
   19.6831   44.9788   -7.3354 C   0  0  0  0  0  0
   18.4801   44.4151   -7.0991 N   0  0  0  0  0  0
   20.2228   46.2091   -6.2512 Cl  0  0  0  0  0  0
   20.8244   43.2355  -10.5222 C   0  0  0  0  0  0
   21.0604   44.0990  -11.3629 O   0  0  0  0  0  0
   21.2279   41.9642  -10.6928 N   0  0  0  0  0  0
   21.5120   40.9761   -9.6452 C   0  0  1  0  0  0
   20.7320   39.6603   -9.9251 C   0  0  0  0  0  0
   23.0434   40.7214   -9.5936 C   0  0  1  0  0  0
   23.9239   41.9888   -9.5144 C   0  0  0  0  0  0
   25.2831   41.7506   -9.9964 N   0  0  0  0  0  0
   26.0067   43.0015  -10.2032 C   0  0  0  0  0  0
   27.5107   42.8508  -10.3293 C   0  0  0  0  0  0
   28.0860   41.8362  -11.1192 C   0  0  0  0  0  0
   29.4874   41.7504  -11.2459 C   0  0  0  0  0  0
   30.3192   42.6848  -10.5948 C   0  0  0  0  0  0
   29.7523   43.7075   -9.8048 C   0  0  0  0  0  0
   28.3474   43.7825   -9.6811 C   0  0  0  0  0  0
   30.6151   44.7641   -9.1200 C   0  0  0  0  0  0
   31.0834   45.8318  -10.1210 C   0  0  0  0  0  0
   31.8005   44.1630   -8.3482 C   0  0  0  0  0  0
   23.3248   39.9652   -8.4394 O   0  0  0  0  0  0
   19.0769   39.9904   -8.6258 H   0  0  0  0  0  0
   21.2086   41.3825   -8.6802 H   0  0  0  0  0  0
   23.3261   40.1501  -10.4765 H   0  0  0  0  0  0
   21.2877   38.1497   -7.5741 H   0  0  0  0  0  0
   19.8474   38.6117   -6.6736 H   0  0  0  0  0  0
   21.0193   39.8217   -7.0875 H   0  0  0  0  0  0
   18.6612   38.0550  -10.2717 H   0  0  0  0  0  0
   19.6718   37.0726   -9.2461 H   0  0  0  0  0  0
   17.3230   36.6750   -8.7015 H   0  0  0  0  0  0
   18.0624   37.4740   -7.3319 H   0  0  0  0  0  0
   15.2600   37.6032   -7.7701 H   0  0  0  0  0  0
   16.1321   38.5509   -6.5720 H   0  0  0  0  0  0
   14.4757   39.7530   -8.8451 H   0  0  0  0  0  0
   13.8556   39.4166   -7.2499 H   0  0  0  0  0  0
   14.4593   41.7686   -7.4079 H   0  0  0  0  0  0
   15.4322   40.9807   -6.2007 H   0  0  0  0  0  0
   17.3604   40.9412   -7.6912 H   0  0  0  0  0  0
   16.3868   41.4647   -9.0658 H   0  0  0  0  0  0
   16.3459   43.2501   -6.7774 H   0  0  0  0  0  0
   18.4344   42.2202   -9.6904 H   0  0  0  0  0  0
   21.4341   45.1190   -8.6059 H   0  0  0  0  0  0
   21.6470   41.7623  -11.5886 H   0  0  0  0  0  0
   21.4262   38.8526  -10.1591 H   0  0  0  0  0  0
   20.1367   39.7822  -10.8308 H   0  0  0  0  0  0
   23.4977   42.7773  -10.1310 H   0  0  0  0  0  0
   23.9367   42.3875   -8.4992 H   0  0  0  0  0  0
   25.2239   41.2466  -10.8791 H   0  0  0  0  0  0
   25.6312   43.5081  -11.0915 H   0  0  0  0  0  0
   25.8113   43.6742   -9.3667 H   0  0  0  0  0  0
   27.4622   41.1153  -11.6253 H   0  0  0  0  0  0
   29.9208   40.9661  -11.8486 H   0  0  0  0  0  0
   31.3892   42.6204  -10.7214 H   0  0  0  0  0  0
   27.9051   44.5751   -9.0910 H   0  0  0  0  0  0
   29.9880   45.2671   -8.3804 H   0  0  0  0  0  0
   30.2329   46.3088  -10.6052 H   0  0  0  0  0  0
   31.7127   45.3978  -10.9001 H   0  0  0  0  0  0
   31.6605   46.6102   -9.6232 H   0  0  0  0  0  0
   31.4754   43.3725   -7.6711 H   0  0  0  0  0  0
   32.2987   44.9220   -7.7461 H   0  0  0  0  0  0
   32.5476   43.7502   -9.0250 H   0  0  0  0  0  0
   24.0747   39.4222   -8.6453 H   0  0  0  0  0  0
  1  2  1  0  0  0
  1 40  1  0  0  0
  1 41  1  0  0  0
  1 42  1  0  0  0
  2 37  1  0  0  0
  2 22  1  0  0  0
  2  3  1  0  0  0
  3  4  1  0  0  0
  3 43  1  0  0  0
  3 44  1  0  0  0
  4  5  1  0  0  0
  4 45  1  0  0  0
  4 46  1  0  0  0
  5  6  1  0  0  0
  6  7  1  0  0  0
  6 47  1  0  0  0
  6 48  1  0  0  0
  7  8  1  0  0  0
  7 49  1  0  0  0
  7 50  1  0  0  0
  8  9  1  0  0  0
  8 51  1  0  0  0
  8 52  1  0  0  0
  9 10  1  0  0  0
  9 53  1  0  0  0
  9 54  1  0  0  0
 10 11  1  0  0  0
 10 55  1  0  0  0
 11 16  1  0  0  0
 11 12  2  0  0  0
 12 13  1  0  0  0
 12 56  1  0  0  0
 13 14  2  0  0  0
 13 18  1  0  0  0
 14 15  1  0  0  0
 14 57  1  0  0  0
 15 16  2  0  0  0
 15 17  1  0  0  0
 18 19  2  0  0  0
 18 20  1  0  0  0
 20 21  1  0  0  0
 20 58  1  0  0  0
 21 38  1  0  0  0
 21 22  1  0  0  0
 21 23  1  0  0  0
 22 59  1  0  0  0
 22 60  1  0  0  0
 23 39  1  0  0  0
 23 24  1  0  0  0
 23 36  1  0  0  0
 24 25  1  0  0  0
 24 61  1  0  0  0
 24 62  1  0  0  0
 25 26  1  0  0  0
 25 63  1  0  0  0
 26 27  1  0  0  0
 26 64  1  0  0  0
 26 65  1  0  0  0
 27 32  1  0  0  0
 27 28  2  0  0  0
 28 29  1  0  0  0
 28 66  1  0  0  0
 29 30  2  0  0  0
 29 67  1  0  0  0
 30 31  1  0  0  0
 30 68  1  0  0  0
 31 32  2  0  0  0
 31 33  1  0  0  0
 32 69  1  0  0  0
 33 34  1  0  0  0
 33 35  1  0  0  0
 33 70  1  0  0  0
 34 71  1  0  0  0
 34 72  1  0  0  0
 34 73  1  0  0  0
 35 74  1  0  0  0
 35 75  1  0  0  0
 35 76  1  0  0  0
 36 77  1  0  0  0
M  END
> <s_m_source_file>
BACE_8.smi

> <i_m_source_file_index>
1

> <i_lp_mmshare_version>
42013

> <i_f3d_flags>
0

> <s_epik_input>
W05IXTFbQ0gyXVtDSDJdW0NIMl1bQ0gyXU9bQ0gyXVtDSDJdW0NAQEhdKFtDSDNdKVtDSDJdW0NASF0oW05IXUMoPU8pYyhbY0hdYzEyKVtjSF1jKG4yKUNsKVtDQEhdKFtPSF0pW0NIMl1bTkhdW0NIMl1jM1tjSF1bY0hdW2NIXWMoW2NIXTMpW0NIXShbQ0gzXSlbQ0gzXQ==

> <s_epik_cmdline>
J2VwaWtfcHl0aG9uJywgJy1waCcsICc3LjAnLCAnLXRuJywgJzgnLCAnLW1hJywgJzIwMCcsICctaW1hZScsICc8aW5maWxlLm1hZT4nLCAnLW9tYWUnLCAnPG91dGZpbGUubWFlPic=

> <r_lp_tautomer_probability>
1

> <r_epik_Ionization_Penalty>
  2.0939

> <r_epik_Ionization_Penalty_Charging>
  0.0000

> <r_epik_Ionization_Penalty_Neutral>
  2.0939

> <r_epik_State_Penalty>
  2.2295

> <r_epik_Charging_Adjusted_Penalty>
2.2295

> <i_epik_Tot_Q>
0

> <i_epik_Tot_abs_Q>
0

> <s_lp_Force_Field>
OPLS_2005

> <r_lp_Energy>
36.7598

> <b_lp_Chiralities_Consistent>
1

> <s_lp_Variant>
BACE_8.smi:1-2

> <chiral flag>
1

> <version>
0

> <r_i_glide_lipo>
-0.781907

> <r_i_glide_hbond>
-0.424148

> <r_i_glide_metal>
-0

> <r_i_glide_rewards>
0

> <r_i_glide_erotb>
0.383885

> <r_i_glide_esite>
-0.0874244

> <chiral flag>
1

> <s_i_glide_gridfile>
second_dock_grid_2

> <i_i_glide_lignum>
17

> <i_i_glide_rotatable_bonds>
7

> <r_i_docking_score>
-0.757294

> <r_i_glide_ligand_efficiency>
-0.0210359

> <r_i_glide_ligand_efficiency_sa>
-0.0694591

> <r_i_glide_ligand_efficiency_ln>
-0.165221

> <r_glide_XP_GScore>
-2.98679

> <r_i_glide_gscore>
-2.98679

> <r_i_glide_evdw>
-38.8575

> <r_i_glide_ecoul>
-10.5546

> <r_i_glide_energy>
-49.4121

> <r_i_glide_einternal>
6.0431

> <r_i_glide_emodel>
-65.6777

> <r_glide_XP_HBond>
-1.25082

> <i_i_glide_confnum>
1

> <i_i_glide_posenum>
17

> <r_i_glide_eff_state_penalty>
2.2295

> <i_glide_XP_PoseRank>
1

$$$$
BACE_8.smi:1
                    3D
 Structure written by MMmdl.
 77 79  0  0  1  0            999 V2000
   20.6292   38.7069   -7.3389 C   0  0  0  0  0  0
   19.8263   39.0420   -8.6113 C   0  0  2  0  0  0
   18.9120   37.8676   -9.0314 C   0  0  0  0  0  0
   17.6740   37.6656   -8.1422 C   0  0  0  0  0  0
   16.7849   38.7514   -8.3409 O   0  0  0  0  0  0
   15.6299   38.6913   -7.5181 C   0  0  0  0  0  0
   14.7010   39.8692   -7.8528 C   0  0  0  0  0  0
   15.1950   41.2439   -7.3616 C   0  0  0  0  0  0
   16.5519   41.6506   -7.9527 C   0  0  0  0  0  0
   16.9009   43.0279   -7.6391 N   0  0  0  0  0  0
   18.2173   43.4153   -7.9122 C   0  0  0  0  0  0
   18.9274   42.9377   -9.0357 C   0  0  0  0  0  0
   20.2313   43.4220   -9.2602 C   0  0  0  0  0  0
   20.7801   44.3392   -8.3461 C   0  0  0  0  0  0
   20.0082   44.7202   -7.2360 C   0  0  0  0  0  0
   18.7453   44.2916   -7.0384 N   0  0  0  0  0  0
   20.6995   45.7851   -6.0765 Cl  0  0  0  0  0  0
   21.0089   43.0055  -10.4686 C   0  0  0  0  0  0
   21.3329   43.8440  -11.2973 O   0  0  0  0  0  0
   21.3184   41.7103  -10.6201 N   0  0  0  0  0  0
   21.5527   40.7618   -9.5316 C   0  0  1  0  0  0
   20.7522   39.4556   -9.7776 C   0  0  0  0  0  0
   23.0832   40.5528   -9.3450 C   0  0  1  0  0  0
   23.8927   41.7566   -8.7924 C   0  0  0  0  0  0
   24.6475   42.4626   -9.8263 N   0  0  0  0  0  0
   25.7003   41.6519  -10.4332 C   0  0  0  0  0  0
   26.6077   42.4709  -11.3224 C   0  0  0  0  0  0
   26.1369   43.6592  -11.9126 C   0  0  0  0  0  0
   26.9865   44.4142  -12.7410 C   0  0  0  0  0  0
   28.3086   43.9915  -12.9737 C   0  0  0  0  0  0
   28.7937   42.8038  -12.3853 C   0  0  0  0  0  0
   27.9298   42.0423  -11.5647 C   0  0  0  0  0  0
   30.2237   42.3610  -12.6778 C   0  0  0  0  0  0
   31.2238   43.2484  -11.9247 C   0  0  0  0  0  0
   30.5618   42.2831  -14.1769 C   0  0  0  0  0  0
   23.2600   39.4844   -8.4336 O   0  0  0  0  0  0
   19.1853   39.8953   -8.3941 H   0  0  0  0  0  0
   21.1839   41.1789   -8.5944 H   0  0  0  0  0  0
   23.5018   40.2072  -10.2896 H   0  0  0  0  0  0
   21.3325   37.8940   -7.5162 H   0  0  0  0  0  0
   19.9783   38.4113   -6.5178 H   0  0  0  0  0  0
   21.2060   39.5614   -6.9851 H   0  0  0  0  0  0
   18.5654   38.0104  -10.0554 H   0  0  0  0  0  0
   19.4954   36.9495   -9.0459 H   0  0  0  0  0  0
   17.1726   36.7378   -8.4190 H   0  0  0  0  0  0
   17.9533   37.5787   -7.0925 H   0  0  0  0  0  0
   15.1042   37.7522   -7.7019 H   0  0  0  0  0  0
   15.9078   38.7098   -6.4632 H   0  0  0  0  0  0
   14.5281   39.8977   -8.9282 H   0  0  0  0  0  0
   13.7269   39.6795   -7.3996 H   0  0  0  0  0  0
   14.4447   41.9895   -7.6277 H   0  0  0  0  0  0
   15.2500   41.2461   -6.2726 H   0  0  0  0  0  0
   17.3305   41.0020   -7.5526 H   0  0  0  0  0  0
   16.5335   41.5075   -9.0327 H   0  0  0  0  0  0
   16.5477   43.3769   -6.7571 H   0  0  0  0  0  0
   18.4946   42.2342   -9.7303 H   0  0  0  0  0  0
   21.7812   44.7217   -8.4804 H   0  0  0  0  0  0
   21.7147   41.4506  -11.5129 H   0  0  0  0  0  0
   21.4218   38.6287  -10.0048 H   0  0  0  0  0  0
   20.1416   39.5750  -10.6737 H   0  0  0  0  0  0
   23.2317   42.4546   -8.2808 H   0  0  0  0  0  0
   24.5880   41.4099   -8.0251 H   0  0  0  0  0  0
   23.9991   42.7320  -10.5613 H   0  0  0  0  0  0
   26.2902   41.1639   -9.6552 H   0  0  0  0  0  0
   25.2808   40.8549  -11.0463 H   0  0  0  0  0  0
   25.1265   44.0014  -11.7340 H   0  0  0  0  0  0
   26.6216   45.3223  -13.1946 H   0  0  0  0  0  0
   28.9495   44.5843  -13.6100 H   0  0  0  0  0  0
   28.2654   41.1233  -11.1124 H   0  0  0  0  0  0
   30.3265   41.3473  -12.2895 H   0  0  0  0  0  0
   31.0622   43.1917  -10.8476 H   0  0  0  0  0  0
   31.1213   44.2938  -12.2115 H   0  0  0  0  0  0
   32.2512   42.9413  -12.1190 H   0  0  0  0  0  0
   29.8475   41.6612  -14.7164 H   0  0  0  0  0  0
   31.5516   41.8527  -14.3260 H   0  0  0  0  0  0
   30.5702   43.2643  -14.6464 H   0  0  0  0  0  0
   23.9343   38.9045   -8.7750 H   0  0  0  0  0  0
  1  2  1  0  0  0
  1 40  1  0  0  0
  1 41  1  0  0  0
  1 42  1  0  0  0
  2 37  1  0  0  0
  2 22  1  0  0  0
  2  3  1  0  0  0
  3  4  1  0  0  0
  3 43  1  0  0  0
  3 44  1  0  0  0
  4  5  1  0  0  0
  4 45  1  0  0  0
  4 46  1  0  0  0
  5  6  1  0  0  0
  6  7  1  0  0  0
  6 47  1  0  0  0
  6 48  1  0  0  0
  7  8  1  0  0  0
  7 49  1  0  0  0
  7 50  1  0  0  0
  8  9  1  0  0  0
  8 51  1  0  0  0
  8 52  1  0  0  0
  9 10  1  0  0  0
  9 53  1  0  0  0
  9 54  1  0  0  0
 10 11  1  0  0  0
 10 55  1  0  0  0
 11 16  1  0  0  0
 11 12  2  0  0  0
 12 13  1  0  0  0
 12 56  1  0  0  0
 13 14  2  0  0  0
 13 18  1  0  0  0
 14 15  1  0  0  0
 14 57  1  0  0  0
 15 16  2  0  0  0
 15 17  1  0  0  0
 18 19  2  0  0  0
 18 20  1  0  0  0
 20 21  1  0  0  0
 20 58  1  0  0  0
 21 38  1  0  0  0
 21 22  1  0  0  0
 21 23  1  0  0  0
 22 59  1  0  0  0
 22 60  1  0  0  0
 23 39  1  0  0  0
 23 24  1  0  0  0
 23 36  1  0  0  0
 24 25  1  0  0  0
 24 61  1  0  0  0
 24 62  1  0  0  0
 25 26  1  0  0  0
 25 63  1  0  0  0
 26 27  1  0  0  0
 26 64  1  0  0  0
 26 65  1  0  0  0
 27 32  1  0  0  0
 27 28  2  0  0  0
 28 29  1  0  0  0
 28 66  1  0  0  0
 29 30  2  0  0  0
 29 67  1  0  0  0
 30 31  1  0  0  0
 30 68  1  0  0  0
 31 32  2  0  0  0
 31 33  1  0  0  0
 32 69  1  0  0  0
 33 34  1  0  0  0
 33 35  1  0  0  0
 33 70  1  0  0  0
 34 71  1  0  0  0
 34 72  1  0  0  0
 34 73  1  0  0  0
 35 74  1  0  0  0
 35 75  1  0  0  0
 35 76  1  0  0  0
 36 77  1  0  0  0
M  END
> <s_m_source_file>
BACE_8.smi

> <i_m_source_file_index>
1

> <i_lp_mmshare_version>
42013

> <i_f3d_flags>
0

> <s_epik_input>
W05IXTFbQ0gyXVtDSDJdW0NIMl1bQ0gyXU9bQ0gyXVtDSDJdW0NAQEhdKFtDSDNdKVtDSDJdW0NASF0oW05IXUMoPU8pYyhbY0hdYzEyKVtjSF1jKG4yKUNsKVtDQEhdKFtPSF0pW0NIMl1bTkhdW0NIMl1jM1tjSF1bY0hdW2NIXWMoW2NIXTMpW0NIXShbQ0gzXSlbQ0gzXQ==

> <s_epik_cmdline>
J2VwaWtfcHl0aG9uJywgJy1waCcsICc3LjAnLCAnLXRuJywgJzgnLCAnLW1hJywgJzIwMCcsICctaW1hZScsICc8aW5maWxlLm1hZT4nLCAnLW9tYWUnLCAnPG91dGZpbGUubWFlPic=

> <r_lp_tautomer_probability>
1

> <r_epik_Ionization_Penalty>
  2.0939

> <r_epik_Ionization_Penalty_Charging>
  0.0000

> <r_epik_Ionization_Penalty_Neutral>
  2.0939

> <r_epik_State_Penalty>
  2.2295

> <r_epik_Charging_Adjusted_Penalty>
2.2295

> <i_epik_Tot_Q>
0

> <i_epik_Tot_abs_Q>
0

> <s_lp_Force_Field>
OPLS_2005

> <r_lp_Energy>
36.7598

> <b_lp_Chiralities_Consistent>
1

> <s_lp_Variant>
BACE_8.smi:1-2

> <chiral flag>
1

> <version>
0

> <r_i_glide_lipo>
-0.781907

> <r_i_glide_hbond>
-0.424148

> <r_i_glide_metal>
-0

> <r_i_glide_rewards>
0

> <r_i_glide_erotb>
0.383885

> <r_i_glide_esite>
-0.0874244

> <chiral flag>
1

> <s_i_glide_gridfile>
second_dock_grid_2

> <i_i_glide_lignum>
17

> <i_i_glide_rotatable_bonds>
7

> <r_i_docking_score>
-0.553053

> <r_i_glide_ligand_efficiency>
-0.0153626

> <r_i_glide_ligand_efficiency_sa>
-0.0507262

> <r_i_glide_ligand_efficiency_ln>
-0.120661

> <r_glide_XP_GScore>
-2.78255

> <r_i_glide_gscore>
-2.78255

> <r_i_glide_evdw>
-35.9399

> <r_i_glide_ecoul>
-12.0473

> <r_i_glide_energy>
-47.9872

> <r_i_glide_einternal>
10.69

> <r_i_glide_emodel>
-65.3026

> <r_glide_XP_HBond>
-1.25082

> <i_i_glide_confnum>
1

> <i_i_glide_posenum>
2

> <r_i_glide_eff_state_penalty>
2.2295

> <i_glide_XP_PoseRank>
2

$$$$
BACE_8.smi:1
                    3D
 Structure written by MMmdl.
 77 79  0  0  1  0            999 V2000
   20.4589   38.8267   -7.2868 C   0  0  0  0  0  0
   19.8519   39.1371   -8.6700 C   0  0  2  0  0  0
   19.0635   37.9256   -9.2230 C   0  0  0  0  0  0
   17.7862   37.5838   -8.4371 C   0  0  0  0  0  0
   16.8767   38.6666   -8.5476 O   0  0  0  0  0  0
   15.7826   38.5503   -7.6518 C   0  0  0  0  0  0
   14.7879   39.6935   -7.8681 C   0  0  0  0  0  0
   15.2606   41.0547   -7.3327 C   0  0  0  0  0  0
   16.5420   41.5658   -8.0025 C   0  0  0  0  0  0
   16.8292   42.9429   -7.6401 N   0  0  0  0  0  0
   18.0966   43.4614   -7.9091 C   0  0  0  0  0  0
   18.9128   42.9590   -8.9466 C   0  0  0  0  0  0
   20.1550   43.5763   -9.1906 C   0  0  0  0  0  0
   20.5374   44.6609   -8.3754 C   0  0  0  0  0  0
   19.6682   45.0729   -7.3460 C   0  0  0  0  0  0
   18.4697   44.4950   -7.1270 N   0  0  0  0  0  0
   20.1310   46.3845   -6.3257 Cl  0  0  0  0  0  0
   21.0063   43.1611  -10.3540 C   0  0  0  0  0  0
   21.2539   43.9741  -11.2399 O   0  0  0  0  0  0
   21.4714   41.9018  -10.4152 N   0  0  0  0  0  0
   21.6364   40.9358   -9.3227 C   0  0  1  0  0  0
   20.9132   39.6107   -9.6932 C   0  0  0  0  0  0
   23.1615   40.7434   -9.0774 C   0  0  1  0  0  0
   23.8829   42.0425   -8.6201 C   0  0  0  0  0  0
   25.0496   42.4025   -9.4345 N   0  0  0  0  0  0
   24.7934   42.6697  -10.8452 C   0  0  0  0  0  0
   25.9893   43.2947  -11.5328 C   0  0  0  0  0  0
   25.8918   44.6049  -12.0461 C   0  0  0  0  0  0
   26.9984   45.1977  -12.6783 C   0  0  0  0  0  0
   28.2055   44.4846  -12.8006 C   0  0  0  0  0  0
   28.3182   43.1720  -12.2912 C   0  0  0  0  0  0
   27.1996   42.5775  -11.6612 C   0  0  0  0  0  0
   29.6367   42.4232  -12.4446 C   0  0  0  0  0  0
   29.5659   41.4047  -13.5869 C   0  0  0  0  0  0
   30.1098   41.7680  -11.1374 C   0  0  0  0  0  0
   23.3702   39.7698   -8.0756 O   0  0  0  0  0  0
   19.1484   39.9586   -8.5445 H   0  0  0  0  0  0
   21.2032   41.3370   -8.4061 H   0  0  0  0  0  0
   23.6140   40.3428   -9.9839 H   0  0  0  0  0  0
   21.1877   38.0184   -7.3465 H   0  0  0  0  0  0
   19.6980   38.5408   -6.5625 H   0  0  0  0  0  0
   20.9648   39.6935   -6.8624 H   0  0  0  0  0  0
   18.7769   38.1101  -10.2582 H   0  0  0  0  0  0
   19.7146   37.0527   -9.2407 H   0  0  0  0  0  0
   17.3255   36.6839   -8.8465 H   0  0  0  0  0  0
   18.0194   37.3658   -7.3938 H   0  0  0  0  0  0
   15.2704   37.6077   -7.8337 H   0  0  0  0  0  0
   16.1313   38.5504   -6.6175 H   0  0  0  0  0  0
   14.5308   39.7696   -8.9238 H   0  0  0  0  0  0
   13.8659   39.4257   -7.3513 H   0  0  0  0  0  0
   14.4603   41.7770   -7.4824 H   0  0  0  0  0  0
   15.4089   40.9882   -6.2533 H   0  0  0  0  0  0
   17.3819   40.9466   -7.6890 H   0  0  0  0  0  0
   16.4514   41.4874   -9.0855 H   0  0  0  0  0  0
   16.3592   43.2791   -6.8016 H   0  0  0  0  0  0
   18.5856   42.1442   -9.5776 H   0  0  0  0  0  0
   21.4749   45.1724   -8.5372 H   0  0  0  0  0  0
   21.9591   41.6627  -11.2661 H   0  0  0  0  0  0
   21.6369   38.8106   -9.8535 H   0  0  0  0  0  0
   20.4165   39.7301  -10.6573 H   0  0  0  0  0  0
   23.1859   42.8794   -8.6076 H   0  0  0  0  0  0
   24.1939   41.9420   -7.5831 H   0  0  0  0  0  0
   25.5243   43.2008   -9.0274 H   0  0  0  0  0  0
   24.5423   41.7500  -11.3655 H   0  0  0  0  0  0
   23.9372   43.3362  -10.9555 H   0  0  0  0  0  0
   24.9700   45.1582  -11.9536 H   0  0  0  0  0  0
   26.9225   46.2030  -13.0671 H   0  0  0  0  0  0
   29.0468   44.9535  -13.2873 H   0  0  0  0  0  0
   27.2617   41.5709  -11.2726 H   0  0  0  0  0  0
   30.3938   43.1593  -12.7187 H   0  0  0  0  0  0
   29.2595   41.8754  -14.5211 H   0  0  0  0  0  0
   28.8600   40.6050  -13.3655 H   0  0  0  0  0  0
   30.5393   40.9492  -13.7625 H   0  0  0  0  0  0
   30.1502   42.4933  -10.3232 H   0  0  0  0  0  0
   31.1090   41.3494  -11.2551 H   0  0  0  0  0  0
   29.4512   40.9518  -10.8406 H   0  0  0  0  0  0
   23.9616   39.1253   -8.4499 H   0  0  0  0  0  0
  1  2  1  0  0  0
  1 40  1  0  0  0
  1 41  1  0  0  0
  1 42  1  0  0  0
  2 37  1  0  0  0
  2 22  1  0  0  0
  2  3  1  0  0  0
  3  4  1  0  0  0
  3 43  1  0  0  0
  3 44  1  0  0  0
  4  5  1  0  0  0
  4 45  1  0  0  0
  4 46  1  0  0  0
  5  6  1  0  0  0
  6  7  1  0  0  0
  6 47  1  0  0  0
  6 48  1  0  0  0
  7  8  1  0  0  0
  7 49  1  0  0  0
  7 50  1  0  0  0
  8  9  1  0  0  0
  8 51  1  0  0  0
  8 52  1  0  0  0
  9 10  1  0  0  0
  9 53  1  0  0  0
  9 54  1  0  0  0
 10 11  1  0  0  0
 10 55  1  0  0  0
 11 16  1  0  0  0
 11 12  2  0  0  0
 12 13  1  0  0  0
 12 56  1  0  0  0
 13 14  2  0  0  0
 13 18  1  0  0  0
 14 15  1  0  0  0
 14 57  1  0  0  0
 15 16  2  0  0  0
 15 17  1  0  0  0
 18 19  2  0  0  0
 18 20  1  0  0  0
 20 21  1  0  0  0
 20 58  1  0  0  0
 21 38  1  0  0  0
 21 22  1  0  0  0
 21 23  1  0  0  0
 22 59  1  0  0  0
 22 60  1  0  0  0
 23 39  1  0  0  0
 23 24  1  0  0  0
 23 36  1  0  0  0
 24 25  1  0  0  0
 24 61  1  0  0  0
 24 62  1  0  0  0
 25 26  1  0  0  0
 25 63  1  0  0  0
 26 27  1  0  0  0
 26 64  1  0  0  0
 26 65  1  0  0  0
 27 32  1  0  0  0
 27 28  2  0  0  0
 28 29  1  0  0  0
 28 66  1  0  0  0
 29 30  2  0  0  0
 29 67  1  0  0  0
 30 31  1  0  0  0
 30 68  1  0  0  0
 31 32  2  0  0  0
 31 33  1  0  0  0
 32 69  1  0  0  0
 33 34  1  0  0  0
 33 35  1  0  0  0
 33 70  1  0  0  0
 34 71  1  0  0  0
 34 72  1  0  0  0
 34 73  1  0  0  0
 35 74  1  0  0  0
 35 75  1  0  0  0
 35 76  1  0  0  0
 36 77  1  0  0  0
M  END
> <s_m_source_file>
BACE_8.smi

> <i_m_source_file_index>
1

> <i_lp_mmshare_version>
42013

> <i_f3d_flags>
0

> <s_epik_input>
W05IXTFbQ0gyXVtDSDJdW0NIMl1bQ0gyXU9bQ0gyXVtDSDJdW0NAQEhdKFtDSDNdKVtDSDJdW0NASF0oW05IXUMoPU8pYyhbY0hdYzEyKVtjSF1jKG4yKUNsKVtDQEhdKFtPSF0pW0NIMl1bTkhdW0NIMl1jM1tjSF1bY0hdW2NIXWMoW2NIXTMpW0NIXShbQ0gzXSlbQ0gzXQ==

> <s_epik_cmdline>
J2VwaWtfcHl0aG9uJywgJy1waCcsICc3LjAnLCAnLXRuJywgJzgnLCAnLW1hJywgJzIwMCcsICctaW1hZScsICc8aW5maWxlLm1hZT4nLCAnLW9tYWUnLCAnPG91dGZpbGUubWFlPic=

> <r_lp_tautomer_probability>
1

> <r_epik_Ionization_Penalty>
  2.0939

> <r_epik_Ionization_Penalty_Charging>
  0.0000

> <r_epik_Ionization_Penalty_Neutral>
  2.0939

> <r_epik_State_Penalty>
  2.2295

> <r_epik_Charging_Adjusted_Penalty>
2.2295

> <i_epik_Tot_Q>
0

> <i_epik_Tot_abs_Q>
0

> <s_lp_Force_Field>
OPLS_2005

> <r_lp_Energy>
36.7598

> <b_lp_Chiralities_Consistent>
1

> <s_lp_Variant>
BACE_8.smi:1-2

> <chiral flag>
1

> <version>
0

> <r_i_glide_lipo>
-0.781907

> <r_i_glide_hbond>
-0.424148

> <r_i_glide_metal>
-0

> <r_i_glide_rewards>
0

> <r_i_glide_erotb>
0.383885

> <r_i_glide_esite>
-0.0874244

> <chiral flag>
1

> <s_i_glide_gridfile>
second_dock_grid_2

> <i_i_glide_lignum>
17

> <i_i_glide_rotatable_bonds>
7

> <r_i_docking_score>
-0.208267

> <r_i_glide_ligand_efficiency>
-0.00578521

> <r_i_glide_ligand_efficiency_sa>
-0.0191023

> <r_i_glide_ligand_efficiency_ln>
-0.0454383

> <r_glide_XP_GScore>
-2.43777

> <r_i_glide_gscore>
-2.43777

> <r_i_glide_evdw>
-39.0543

> <r_i_glide_ecoul>
-9.81515

> <r_i_glide_energy>
-48.8694

> <r_i_glide_einternal>
12.0099

> <r_i_glide_emodel>
-64.3639

> <r_glide_XP_HBond>
-1.25082

> <i_i_glide_confnum>
1

> <i_i_glide_posenum>
11

> <r_i_glide_eff_state_penalty>
2.2295

> <i_glide_XP_PoseRank>
3

$$$$
BACE_9.smi:1
                    3D
 Structure written by MMmdl.
 88 90  0  0  1  0            999 V2000
   21.1023   41.9554   -3.7783 C   0  0  0  0  0  0
   22.0483   42.5342   -4.8458 C   0  0  2  0  0  0
   22.4396   43.9708   -4.4398 C   0  0  0  0  0  0
   23.5046   44.6276   -5.3255 C   0  0  0  0  0  0
   23.7846   46.0870   -4.9239 C   0  0  0  0  0  0
   24.8499   46.7543   -5.8093 C   0  0  0  0  0  0
   26.2798   46.2178   -5.5864 C   0  0  0  0  0  0
   27.2784   46.5943   -6.6992 C   0  0  0  0  0  0
   27.3068   45.6039   -7.8796 C   0  0  0  0  0  0
   26.0890   45.6671   -8.6737 N   0  0  0  0  0  0
   25.6267   44.4813   -9.2568 C   0  0  0  0  0  0
   26.5043   43.5460   -9.8501 C   0  0  0  0  0  0
   26.0004   42.3723  -10.4437 C   0  0  0  0  0  0
   24.6109   42.1214  -10.4329 C   0  0  0  0  0  0
   23.7273   43.0431   -9.8298 C   0  0  0  0  0  0
   24.2414   44.2238   -9.2528 C   0  0  0  0  0  0
   22.2502   42.7826   -9.8249 C   0  0  0  0  0  0
   21.5974   42.9376  -10.8524 O   0  0  0  0  0  0
   21.6641   42.3982   -8.6736 N   0  0  0  0  0  0
   22.2911   42.0012   -7.4016 C   0  0  1  0  0  0
   21.3884   42.5031   -6.2456 C   0  0  0  0  0  0
   22.6721   40.4779   -7.3743 C   0  0  1  0  0  0
   21.7316   39.4826   -6.6520 C   0  0  0  0  0  0
   20.3132   39.5154   -7.0770 N   0  3  0  0  0  0
   20.0726   39.3559   -8.5230 C   0  0  0  0  0  0
   18.7374   38.7061   -8.7338 C   0  0  0  0  0  0
   18.6958   37.3502   -9.0987 C   0  0  0  0  0  0
   17.4681   36.6936   -9.2401 C   0  0  0  0  0  0
   16.2784   37.4122   -9.0601 C   0  0  0  0  0  0
   16.3063   38.7723   -8.6804 C   0  0  0  0  0  0
   17.5443   39.4218   -8.5221 C   0  0  0  0  0  0
   15.0233   39.5255   -8.3807 C   0  0  0  0  0  0
   14.5829   39.2325   -6.9419 C   0  0  0  0  0  0
   13.9330   39.1825   -9.3951 C   0  0  0  0  0  0
   22.9110   39.9745   -8.6733 O   0  0  0  0  0  0
   26.9614   41.3691  -11.0469 C   0  0  0  0  0  0
   27.8261   41.9713  -11.9978 O   0  0  0  0  0  0
   28.8592   41.1017  -12.4395 C   0  0  0  0  0  0
   22.9470   41.9189   -4.8523 H   0  0  0  0  0  0
   23.2292   42.5495   -7.3194 H   0  0  0  0  0  0
   23.6329   40.3886   -6.8642 H   0  0  0  0  0  0
   20.1885   42.5472   -3.6976 H   0  0  0  0  0  0
   21.5742   41.9484   -2.7957 H   0  0  0  0  0  0
   20.8049   40.9335   -4.0032 H   0  0  0  0  0  0
   21.5416   44.5873   -4.4425 H   0  0  0  0  0  0
   22.8035   43.9650   -3.4110 H   0  0  0  0  0  0
   24.4132   44.0270   -5.2697 H   0  0  0  0  0  0
   23.1915   44.6188   -6.3671 H   0  0  0  0  0  0
   22.8608   46.6548   -5.0164 H   0  0  0  0  0  0
   24.0617   46.1502   -3.8735 H   0  0  0  0  0  0
   24.5439   46.6419   -6.8463 H   0  0  0  0  0  0
   24.8571   47.8293   -5.6222 H   0  0  0  0  0  0
   26.6414   46.6145   -4.6367 H   0  0  0  0  0  0
   26.2873   45.1359   -5.4638 H   0  0  0  0  0  0
   27.1053   47.6130   -7.0470 H   0  0  0  0  0  0
   28.2767   46.5995   -6.2619 H   0  0  0  0  0  0
   28.1488   45.8378   -8.5309 H   0  0  0  0  0  0
   27.4690   44.5923   -7.5047 H   0  0  0  0  0  0
   25.3783   46.2878   -8.3202 H   0  0  0  0  0  0
   27.5677   43.7273   -9.8643 H   0  0  0  0  0  0
   24.2233   41.2147  -10.8699 H   0  0  0  0  0  0
   23.5638   44.9347   -8.8056 H   0  0  0  0  0  0
   20.6622   42.3034   -8.7233 H   0  0  0  0  0  0
   20.4639   41.9341   -6.2107 H   0  0  0  0  0  0
   21.0461   43.5129   -6.4843 H   0  0  0  0  0  0
   22.0994   38.4627   -6.7901 H   0  0  0  0  0  0
   21.7659   39.6518   -5.5791 H   0  0  0  0  0  0
   19.8346   38.7543   -6.6131 H   0  0  0  0  0  0
   20.1084   40.3097   -9.0434 H   0  0  0  0  0  0
   20.8328   38.7101   -8.9662 H   0  0  0  0  0  0
   19.6197   36.8140   -9.2403 H   0  0  0  0  0  0
   17.4408   35.6522   -9.5159 H   0  0  0  0  0  0
   15.3483   36.8927   -9.2009 H   0  0  0  0  0  0
   17.5755   40.4581   -8.2194 H   0  0  0  0  0  0
   15.2194   40.5947   -8.4634 H   0  0  0  0  0  0
   15.3409   39.5413   -6.2199 H   0  0  0  0  0  0
   14.4149   38.1652   -6.7973 H   0  0  0  0  0  0
   13.6640   39.7496   -6.6842 H   0  0  0  0  0  0
   14.2682   39.3514  -10.4183 H   0  0  0  0  0  0
   13.0210   39.7524   -9.2500 H   0  0  0  0  0  0
   13.6597   38.1376   -9.2933 H   0  0  0  0  0  0
   23.6775   39.4105   -8.6800 H   0  0  0  0  0  0
   27.5388   40.9503  -10.2270 H   0  0  0  0  0  0
   26.4152   40.5479  -11.5089 H   0  0  0  0  0  0
   29.4333   41.5831  -13.2289 H   0  0  0  0  0  0
   28.4595   40.1686  -12.8404 H   0  0  0  0  0  0
   29.5437   40.8649  -11.6256 H   0  0  0  0  0  0
   19.8733   40.3715   -6.7686 H   0  0  0  0  0  0
  1  2  1  0  0  0
  1 42  1  0  0  0
  1 43  1  0  0  0
  1 44  1  0  0  0
  2 39  1  0  0  0
  2 21  1  0  0  0
  2  3  1  0  0  0
  3  4  1  0  0  0
  3 45  1  0  0  0
  3 46  1  0  0  0
  4  5  1  0  0  0
  4 47  1  0  0  0
  4 48  1  0  0  0
  5  6  1  0  0  0
  5 49  1  0  0  0
  5 50  1  0  0  0
  6  7  1  0  0  0
  6 51  1  0  0  0
  6 52  1  0  0  0
  7  8  1  0  0  0
  7 53  1  0  0  0
  7 54  1  0  0  0
  8  9  1  0  0  0
  8 55  1  0  0  0
  8 56  1  0  0  0
  9 10  1  0  0  0
  9 57  1  0  0  0
  9 58  1  0  0  0
 10 11  1  0  0  0
 10 59  1  0  0  0
 11 16  1  0  0  0
 11 12  2  0  0  0
 12 13  1  0  0  0
 12 60  1  0  0  0
 13 14  2  0  0  0
 13 36  1  0  0  0
 14 15  1  0  0  0
 14 61  1  0  0  0
 15 16  2  0  0  0
 15 17  1  0  0  0
 16 62  1  0  0  0
 17 18  2  0  0  0
 17 19  1  0  0  0
 19 20  1  0  0  0
 19 63  1  0  0  0
 20 40  1  0  0  0
 20 21  1  0  0  0
 20 22  1  0  0  0
 21 64  1  0  0  0
 21 65  1  0  0  0
 22 41  1  0  0  0
 22 23  1  0  0  0
 22 35  1  0  0  0
 23 24  1  0  0  0
 23 66  1  0  0  0
 23 67  1  0  0  0
 24 25  1  0  0  0
 24 68  1  0  0  0
 24 88  1  0  0  0
 25 26  1  0  0  0
 25 69  1  0  0  0
 25 70  1  0  0  0
 26 31  1  0  0  0
 26 27  2  0  0  0
 27 28  1  0  0  0
 27 71  1  0  0  0
 28 29  2  0  0  0
 28 72  1  0  0  0
 29 30  1  0  0  0
 29 73  1  0  0  0
 30 31  2  0  0  0
 30 32  1  0  0  0
 31 74  1  0  0  0
 32 33  1  0  0  0
 32 34  1  0  0  0
 32 75  1  0  0  0
 33 76  1  0  0  0
 33 77  1  0  0  0
 33 78  1  0  0  0
 34 79  1  0  0  0
 34 80  1  0  0  0
 34 81  1  0  0  0
 35 82  1  0  0  0
 36 37  1  0  0  0
 36 83  1  0  0  0
 36 84  1  0  0  0
 37 38  1  0  0  0
 38 85  1  0  0  0
 38 86  1  0  0  0
 38 87  1  0  0  0
M  CHG  1  24   1
M  END
> <s_m_source_file>
BACE_9.smi

> <i_m_source_file_index>
1

> <i_lp_mmshare_version>
42013

> <i_f3d_flags>
0

> <s_epik_input>
W05IXTFbQ0gyXVtDSDJdW0NIMl1bQ0gyXVtDSDJdW0NIMl1bQ0gyXVtDQEBIXShbQ0gzXSlbQ0gyXVtDQEhdKFtOSF1DKD1PKWMoW2NIXTIpW2NIXWMoW2NIXWMxMilbQ0gyXU9bQ0gzXSlbQ0BIXShbT0hdKVtDSDJdW05IXVtDSDJdYzNbY0hdW2NIXVtjSF1jKFtjSF0zKVtDSF0oW0NIM10pW0NIM10=

> <s_epik_cmdline>
J2VwaWtfcHl0aG9uJywgJy1waCcsICc3LjAnLCAnLXRuJywgJzgnLCAnLW1hJywgJzIwMCcsICctaW1hZScsICc8aW5maWxlLm1hZT4nLCAnLW9tYWUnLCAnPG91dGZpbGUubWFlPic=

> <r_epik_Ionization_Penalty>
  0.0171

> <r_epik_Ionization_Penalty_Charging>
  0.0165

> <r_epik_Ionization_Penalty_Neutral>
  0.0006

> <r_epik_State_Penalty>
  0.0130

> <r_epik_Charging_Adjusted_Penalty>
0.0295552

> <i_epik_Tot_Q>
1

> <i_epik_Tot_abs_Q>
1

> <s_lp_Force_Field>
OPLS_2005

> <r_lp_Energy>
38.0252

> <b_lp_Chiralities_Consistent>
1

> <s_lp_Variant>
BACE_9.smi:1-1

> <chiral flag>
1

> <version>
0

> <r_i_glide_lipo>
-0.710728

> <r_i_glide_hbond>
-0.0540132

> <r_i_glide_metal>
-0

> <r_i_glide_rewards>
-0.0401973

> <r_i_glide_erotb>
0.448381

> <r_i_glide_esite>
-0.0114061

> <chiral flag>
1

> <s_i_glide_gridfile>
second_dock_grid_2

> <i_i_glide_lignum>
18

> <i_i_glide_rotatable_bonds>
9

> <r_i_docking_score>
-4.69372

> <r_i_glide_ligand_efficiency>
-0.123519

> <r_i_glide_ligand_efficiency_sa>
-0.415267

> <r_i_glide_ligand_efficiency_ln>
-1.0121

> <r_glide_XP_GScore>
-4.70672

> <r_i_glide_gscore>
-4.70672

> <r_i_glide_evdw>
-39.3646

> <r_i_glide_ecoul>
-6.43277

> <r_i_glide_energy>
-45.7974

> <r_i_glide_einternal>
6.41881

> <r_i_glide_emodel>
-60.8142

> <r_glide_XP_HBond>
-0.7

> <i_i_glide_confnum>
1

> <i_i_glide_posenum>
22

> <r_i_glide_eff_state_penalty>
0.013

> <i_glide_XP_PoseRank>
1

$$$$
BACE_9.smi:1
                    3D
 Structure written by MMmdl.
 88 90  0  0  1  0            999 V2000
   21.9355   43.2884   -5.9548 C   0  0  0  0  0  0
   23.2803   43.5493   -6.6538 C   0  0  2  0  0  0
   24.0232   44.7117   -5.9573 C   0  0  0  0  0  0
   25.4642   44.9285   -6.4454 C   0  0  0  0  0  0
   26.2035   46.0254   -5.6581 C   0  0  0  0  0  0
   27.5833   46.3686   -6.2430 C   0  0  0  0  0  0
   28.6484   45.2737   -6.0304 C   0  0  0  0  0  0
   29.9473   45.5247   -6.8232 C   0  0  0  0  0  0
   29.9827   44.8285   -8.1952 C   0  0  0  0  0  0
   28.8972   45.2704   -9.0604 N   0  0  0  0  0  0
   28.2925   44.3477   -9.9228 C   0  0  0  0  0  0
   29.0166   43.2920  -10.5170 C   0  0  0  0  0  0
   28.3820   42.3990  -11.4023 C   0  0  0  0  0  0
   27.0114   42.5601  -11.6935 C   0  0  0  0  0  0
   26.2696   43.5975  -11.0896 C   0  0  0  0  0  0
   26.9209   44.4947  -10.2148 C   0  0  0  0  0  0
   24.8149   43.7760  -11.4227 C   0  0  0  0  0  0
   24.4886   44.1392  -12.5513 O   0  0  0  0  0  0
   23.8897   43.5528  -10.4685 N   0  0  0  0  0  0
   24.0677   43.0364   -9.1069 C   0  0  1  0  0  0
   23.0759   43.7784   -8.1749 C   0  0  0  0  0  0
   23.9201   41.4860   -9.0687 C   0  0  1  0  0  0
   22.6155   40.9020   -9.6634 C   0  0  0  0  0  0
   22.4600   39.4817   -9.2803 N   0  3  0  0  0  0
   21.2400   38.8020   -9.7483 C   0  0  0  0  0  0
   20.1094   38.8097   -8.7292 C   0  0  0  0  0  0
   20.3165   39.1318   -7.3656 C   0  0  0  0  0  0
   19.2442   39.0785   -6.4563 C   0  0  0  0  0  0
   17.9648   38.6894   -6.8945 C   0  0  0  0  0  0
   17.7440   38.3648   -8.2490 C   0  0  0  0  0  0
   18.8203   38.4346   -9.1600 C   0  0  0  0  0  0
   16.3608   37.9290   -8.7136 C   0  0  0  0  0  0
   16.3857   36.4871   -9.2402 C   0  0  0  0  0  0
   15.7769   38.9074   -9.7449 C   0  0  0  0  0  0
   25.0433   40.9500   -9.7393 O   0  0  0  0  0  0
   29.1869   41.2752  -12.0291 C   0  0  0  0  0  0
   30.2262   41.7498  -12.8720 O   0  0  0  0  0  0
   29.7633   42.1932  -14.1372 C   0  0  0  0  0  0
   23.8794   42.6555   -6.4963 H   0  0  0  0  0  0
   25.0687   43.2790   -8.7487 H   0  0  0  0  0  0
   24.0071   41.1506   -8.0378 H   0  0  0  0  0  0
   21.2656   44.1437   -6.0480 H   0  0  0  0  0  0
   22.0747   43.0918   -4.8913 H   0  0  0  0  0  0
   21.4290   42.4203   -6.3794 H   0  0  0  0  0  0
   23.4534   45.6343   -6.0748 H   0  0  0  0  0  0
   24.0566   44.5148   -4.8855 H   0  0  0  0  0  0
   26.0110   43.9875   -6.3757 H   0  0  0  0  0  0
   25.4497   45.2039   -7.4992 H   0  0  0  0  0  0
   25.5962   46.9312   -5.6684 H   0  0  0  0  0  0
   26.3086   45.7477   -4.6094 H   0  0  0  0  0  0
   27.4625   46.5999   -7.2996 H   0  0  0  0  0  0
   27.9423   47.2896   -5.7825 H   0  0  0  0  0  0
   28.8826   45.2287   -4.9664 H   0  0  0  0  0  0
   28.2583   44.2881   -6.2869 H   0  0  0  0  0  0
   30.1292   46.5955   -6.9304 H   0  0  0  0  0  0
   30.7863   45.1445   -6.2393 H   0  0  0  0  0  0
   30.9305   45.0416   -8.6906 H   0  0  0  0  0  0
   29.9447   43.7504   -8.0459 H   0  0  0  0  0  0
   28.3063   45.9955   -8.6817 H   0  0  0  0  0  0
   30.0726   43.1711  -10.3194 H   0  0  0  0  0  0
   26.5211   41.8805  -12.3761 H   0  0  0  0  0  0
   26.3608   45.3066   -9.7723 H   0  0  0  0  0  0
   22.9385   43.7239  -10.7554 H   0  0  0  0  0  0
   22.0576   43.5095   -8.4575 H   0  0  0  0  0  0
   23.1315   44.8499   -8.3740 H   0  0  0  0  0  0
   21.7482   41.4432   -9.2848 H   0  0  0  0  0  0
   22.6098   41.0046  -10.7503 H   0  0  0  0  0  0
   23.2692   38.9804   -9.6418 H   0  0  0  0  0  0
   20.9085   39.2137  -10.7020 H   0  0  0  0  0  0
   21.4954   37.7603   -9.9286 H   0  0  0  0  0  0
   21.2838   39.4200   -6.9832 H   0  0  0  0  0  0
   19.3931   39.3502   -5.4221 H   0  0  0  0  0  0
   17.1505   38.6409   -6.1846 H   0  0  0  0  0  0
   18.6574   38.1773  -10.1970 H   0  0  0  0  0  0
   15.6951   37.9434   -7.8495 H   0  0  0  0  0  0
   16.6565   35.7924   -8.4448 H   0  0  0  0  0  0
   17.1133   36.3736  -10.0400 H   0  0  0  0  0  0
   15.4167   36.1906   -9.6399 H   0  0  0  0  0  0
   15.7167   39.9156   -9.3324 H   0  0  0  0  0  0
   14.7676   38.6136  -10.0326 H   0  0  0  0  0  0
   16.3808   38.9526  -10.6507 H   0  0  0  0  0  0
   25.0816   40.0053   -9.6402 H   0  0  0  0  0  0
   29.6600   40.7111  -11.2254 H   0  0  0  0  0  0
   28.5411   40.5689  -12.5567 H   0  0  0  0  0  0
   30.6128   42.5197  -14.7379 H   0  0  0  0  0  0
   29.0776   43.0353  -14.0390 H   0  0  0  0  0  0
   29.2597   41.3901  -14.6777 H   0  0  0  0  0  0
   22.4891   39.3998   -8.2759 H   0  0  0  0  0  0
  1  2  1  0  0  0
  1 42  1  0  0  0
  1 43  1  0  0  0
  1 44  1  0  0  0
  2 39  1  0  0  0
  2 21  1  0  0  0
  2  3  1  0  0  0
  3  4  1  0  0  0
  3 45  1  0  0  0
  3 46  1  0  0  0
  4  5  1  0  0  0
  4 47  1  0  0  0
  4 48  1  0  0  0
  5  6  1  0  0  0
  5 49  1  0  0  0
  5 50  1  0  0  0
  6  7  1  0  0  0
  6 51  1  0  0  0
  6 52  1  0  0  0
  7  8  1  0  0  0
  7 53  1  0  0  0
  7 54  1  0  0  0
  8  9  1  0  0  0
  8 55  1  0  0  0
  8 56  1  0  0  0
  9 10  1  0  0  0
  9 57  1  0  0  0
  9 58  1  0  0  0
 10 11  1  0  0  0
 10 59  1  0  0  0
 11 16  1  0  0  0
 11 12  2  0  0  0
 12 13  1  0  0  0
 12 60  1  0  0  0
 13 14  2  0  0  0
 13 36  1  0  0  0
 14 15  1  0  0  0
 14 61  1  0  0  0
 15 16  2  0  0  0
 15 17  1  0  0  0
 16 62  1  0  0  0
 17 18  2  0  0  0
 17 19  1  0  0  0
 19 20  1  0  0  0
 19 63  1  0  0  0
 20 40  1  0  0  0
 20 21  1  0  0  0
 20 22  1  0  0  0
 21 64  1  0  0  0
 21 65  1  0  0  0
 22 41  1  0  0  0
 22 23  1  0  0  0
 22 35  1  0  0  0
 23 24  1  0  0  0
 23 66  1  0  0  0
 23 67  1  0  0  0
 24 25  1  0  0  0
 24 68  1  0  0  0
 24 88  1  0  0  0
 25 26  1  0  0  0
 25 69  1  0  0  0
 25 70  1  0  0  0
 26 31  1  0  0  0
 26 27  2  0  0  0
 27 28  1  0  0  0
 27 71  1  0  0  0
 28 29  2  0  0  0
 28 72  1  0  0  0
 29 30  1  0  0  0
 29 73  1  0  0  0
 30 31  2  0  0  0
 30 32  1  0  0  0
 31 74  1  0  0  0
 32 33  1  0  0  0
 32 34  1  0  0  0
 32 75  1  0  0  0
 33 76  1  0  0  0
 33 77  1  0  0  0
 33 78  1  0  0  0
 34 79  1  0  0  0
 34 80  1  0  0  0
 34 81  1  0  0  0
 35 82  1  0  0  0
 36 37  1  0  0  0
 36 83  1  0  0  0
 36 84  1  0  0  0
 37 38  1  0  0  0
 38 85  1  0  0  0
 38 86  1  0  0  0
 38 87  1  0  0  0
M  CHG  1  24   1
M  END
> <s_m_source_file>
BACE_9.smi

> <i_m_source_file_index>
1

> <i_lp_mmshare_version>
42013

> <i_f3d_flags>
0

> <s_epik_input>
W05IXTFbQ0gyXVtDSDJdW0NIMl1bQ0gyXVtDSDJdW0NIMl1bQ0gyXVtDQEBIXShbQ0gzXSlbQ0gyXVtDQEhdKFtOSF1DKD1PKWMoW2NIXTIpW2NIXWMoW2NIXWMxMilbQ0gyXU9bQ0gzXSlbQ0BIXShbT0hdKVtDSDJdW05IXVtDSDJdYzNbY0hdW2NIXVtjSF1jKFtjSF0zKVtDSF0oW0NIM10pW0NIM10=

> <s_epik_cmdline>
J2VwaWtfcHl0aG9uJywgJy1waCcsICc3LjAnLCAnLXRuJywgJzgnLCAnLW1hJywgJzIwMCcsICctaW1hZScsICc8aW5maWxlLm1hZT4nLCAnLW9tYWUnLCAnPG91dGZpbGUubWFlPic=

> <r_epik_Ionization_Penalty>
  0.0171

> <r_epik_Ionization_Penalty_Charging>
  0.0165

> <r_epik_Ionization_Penalty_Neutral>
  0.0006

> <r_epik_State_Penalty>
  0.0130

> <r_epik_Charging_Adjusted_Penalty>
0.0295552

> <i_epik_Tot_Q>
1

> <i_epik_Tot_abs_Q>
1

> <s_lp_Force_Field>
OPLS_2005

> <r_lp_Energy>
38.0252

> <b_lp_Chiralities_Consistent>
1

> <s_lp_Variant>
BACE_9.smi:1-1

> <chiral flag>
1

> <version>
0

> <r_i_glide_lipo>
-0.710728

> <r_i_glide_hbond>
-0.0540132

> <r_i_glide_metal>
-0

> <r_i_glide_rewards>
-0.0401973

> <r_i_glide_erotb>
0.448381

> <r_i_glide_esite>
-0.0114061

> <chiral flag>
1

> <s_i_glide_gridfile>
second_dock_grid_2

> <i_i_glide_lignum>
18

> <i_i_glide_rotatable_bonds>
9

> <r_i_docking_score>
-3.59506

> <r_i_glide_ligand_efficiency>
-0.0946069

> <r_i_glide_ligand_efficiency_sa>
-0.318066

> <r_i_glide_ligand_efficiency_ln>
-0.775201

> <r_glide_XP_GScore>
-3.60806

> <r_i_glide_gscore>
-3.60806

> <r_i_glide_evdw>
-39.2967

> <r_i_glide_ecoul>
-9.77171

> <r_i_glide_energy>
-49.0684

> <r_i_glide_einternal>
8.45268

> <r_i_glide_emodel>
-63.1135

> <r_glide_XP_HBond>
-0.7

> <i_i_glide_confnum>
1

> <i_i_glide_posenum>
7

> <r_i_glide_eff_state_penalty>
0.013

> <i_glide_XP_PoseRank>
2

$$$$
BACE_9.smi:1
                    3D
 Structure written by MMmdl.
 88 90  0  0  1  0            999 V2000
   21.8979   43.4457   -6.0635 C   0  0  0  0  0  0
   23.2552   43.7003   -6.7413 C   0  0  2  0  0  0
   23.9657   44.9082   -6.0914 C   0  0  0  0  0  0
   25.4163   45.0999   -6.5622 C   0  0  0  0  0  0
   26.1700   46.1713   -5.7554 C   0  0  0  0  0  0
   27.5542   46.5038   -6.3362 C   0  0  0  0  0  0
   28.6114   45.4032   -6.1165 C   0  0  0  0  0  0
   29.8841   45.5960   -6.9655 C   0  0  0  0  0  0
   29.8517   44.8567   -8.3133 C   0  0  0  0  0  0
   28.7944   45.3382   -9.1880 N   0  0  0  0  0  0
   28.2423   44.4298  -10.0968 C   0  0  0  0  0  0
   29.0231   43.4290  -10.7132 C   0  0  0  0  0  0
   28.4399   42.5228  -11.6169 C   0  0  0  0  0  0
   27.0559   42.5968  -11.8882 C   0  0  0  0  0  0
   26.2602   43.5821  -11.2624 C   0  0  0  0  0  0
   26.8677   44.5135  -10.3913 C   0  0  0  0  0  0
   24.7915   43.6696  -11.5637 C   0  0  0  0  0  0
   24.4070   43.8485  -12.7208 O   0  0  0  0  0  0
   23.9146   43.5546  -10.5515 N   0  0  0  0  0  0
   24.1197   43.0954   -9.1684 C   0  0  1  0  0  0
   23.0828   43.8385   -8.2781 C   0  0  0  0  0  0
   24.0433   41.5378   -9.1610 C   0  0  1  0  0  0
   22.8319   40.9055   -9.8953 C   0  0  0  0  0  0
   22.4177   39.6469   -9.2346 N   0  3  0  0  0  0
   21.4665   39.7642   -8.1119 C   0  0  0  0  0  0
   20.0392   39.4677   -8.5332 C   0  0  0  0  0  0
   19.7938   38.5578   -9.5826 C   0  0  0  0  0  0
   18.4734   38.2481   -9.9576 C   0  0  0  0  0  0
   17.3943   38.8605   -9.2937 C   0  0  0  0  0  0
   17.6278   39.7818   -8.2494 C   0  0  0  0  0  0
   18.9559   40.0751   -7.8677 C   0  0  0  0  0  0
   16.4563   40.4542   -7.5506 C   0  0  0  0  0  0
   15.6544   39.4442   -6.7149 C   0  0  0  0  0  0
   15.5539   41.2097   -8.5379 C   0  0  0  0  0  0
   25.2481   40.9977   -9.6748 O   0  0  0  0  0  0
   29.3039   41.4521  -12.2520 C   0  0  0  0  0  0
   30.5967   41.3896  -11.6600 O   0  0  0  0  0  0
   31.4207   42.4747  -12.0498 C   0  0  0  0  0  0
   23.8680   42.8409   -6.5152 H   0  0  0  0  0  0
   25.1135   43.3894   -8.8365 H   0  0  0  0  0  0
   23.9671   41.2097   -8.1237 H   0  0  0  0  0  0
   21.2137   44.2805   -6.2084 H   0  0  0  0  0  0
   22.0167   43.2943   -4.9897 H   0  0  0  0  0  0
   21.4203   42.5479   -6.4595 H   0  0  0  0  0  0
   23.3959   45.8206   -6.2673 H   0  0  0  0  0  0
   23.9732   44.7637   -5.0089 H   0  0  0  0  0  0
   25.9465   44.1515   -6.4928 H   0  0  0  0  0  0
   25.4150   45.3837   -7.6135 H   0  0  0  0  0  0
   25.5758   47.0853   -5.7447 H   0  0  0  0  0  0
   26.2675   45.8641   -4.7132 H   0  0  0  0  0  0
   27.4420   46.7365   -7.3936 H   0  0  0  0  0  0
   27.9196   47.4237   -5.8756 H   0  0  0  0  0  0
   28.8843   45.4051   -5.0611 H   0  0  0  0  0  0
   28.1993   44.4141   -6.3092 H   0  0  0  0  0  0
   30.0932   46.6575   -7.1113 H   0  0  0  0  0  0
   30.7322   45.2046   -6.4019 H   0  0  0  0  0  0
   30.8070   44.9816   -8.8238 H   0  0  0  0  0  0
   29.7234   43.7890   -8.1347 H   0  0  0  0  0  0
   28.1699   46.0233   -8.7880 H   0  0  0  0  0  0
   30.0798   43.3496  -10.5033 H   0  0  0  0  0  0
   26.6046   41.8938  -12.5717 H   0  0  0  0  0  0
   26.2696   45.2884   -9.9308 H   0  0  0  0  0  0
   22.9461   43.6403  -10.8244 H   0  0  0  0  0  0
   22.0797   43.5209   -8.5698 H   0  0  0  0  0  0
   23.1065   44.8993   -8.5275 H   0  0  0  0  0  0
   22.0021   41.6171   -9.8854 H   0  0  0  0  0  0
   23.0383   40.6615  -10.9332 H   0  0  0  0  0  0
   22.0461   39.0192   -9.9281 H   0  0  0  0  0  0
   21.7660   39.0512   -7.3444 H   0  0  0  0  0  0
   21.5275   40.7461   -7.6504 H   0  0  0  0  0  0
   20.6154   38.0868  -10.0983 H   0  0  0  0  0  0
   18.2839   37.5399  -10.7514 H   0  0  0  0  0  0
   16.3846   38.6194   -9.5910 H   0  0  0  0  0  0
   19.1408   40.7724   -7.0638 H   0  0  0  0  0  0
   16.8667   41.1961   -6.8626 H   0  0  0  0  0  0
   16.2924   38.9515   -5.9802 H   0  0  0  0  0  0
   15.2058   38.6701   -7.3400 H   0  0  0  0  0  0
   14.8496   39.9392   -6.1713 H   0  0  0  0  0  0
   16.1378   41.9055   -9.1419 H   0  0  0  0  0  0
   14.7944   41.7845   -8.0069 H   0  0  0  0  0  0
   15.0362   40.5306   -9.2168 H   0  0  0  0  0  0
   25.1391   40.0704   -9.8370 H   0  0  0  0  0  0
   28.7943   40.4935  -12.1319 H   0  0  0  0  0  0
   29.3937   41.6387  -13.3216 H   0  0  0  0  0  0
   32.3993   42.3892  -11.5760 H   0  0  0  0  0  0
   30.9857   43.4297  -11.7510 H   0  0  0  0  0  0
   31.5689   42.4790  -13.1282 H   0  0  0  0  0  0
   23.2679   39.2140   -8.8739 H   0  0  0  0  0  0
  1  2  1  0  0  0
  1 42  1  0  0  0
  1 43  1  0  0  0
  1 44  1  0  0  0
  2 39  1  0  0  0
  2 21  1  0  0  0
  2  3  1  0  0  0
  3  4  1  0  0  0
  3 45  1  0  0  0
  3 46  1  0  0  0
  4  5  1  0  0  0
  4 47  1  0  0  0
  4 48  1  0  0  0
  5  6  1  0  0  0
  5 49  1  0  0  0
  5 50  1  0  0  0
  6  7  1  0  0  0
  6 51  1  0  0  0
  6 52  1  0  0  0
  7  8  1  0  0  0
  7 53  1  0  0  0
  7 54  1  0  0  0
  8  9  1  0  0  0
  8 55  1  0  0  0
  8 56  1  0  0  0
  9 10  1  0  0  0
  9 57  1  0  0  0
  9 58  1  0  0  0
 10 11  1  0  0  0
 10 59  1  0  0  0
 11 16  1  0  0  0
 11 12  2  0  0  0
 12 13  1  0  0  0
 12 60  1  0  0  0
 13 14  2  0  0  0
 13 36  1  0  0  0
 14 15  1  0  0  0
 14 61  1  0  0  0
 15 16  2  0  0  0
 15 17  1  0  0  0
 16 62  1  0  0  0
 17 18  2  0  0  0
 17 19  1  0  0  0
 19 20  1  0  0  0
 19 63  1  0  0  0
 20 40  1  0  0  0
 20 21  1  0  0  0
 20 22  1  0  0  0
 21 64  1  0  0  0
 21 65  1  0  0  0
 22 41  1  0  0  0
 22 23  1  0  0  0
 22 35  1  0  0  0
 23 24  1  0  0  0
 23 66  1  0  0  0
 23 67  1  0  0  0
 24 25  1  0  0  0
 24 68  1  0  0  0
 24 88  1  0  0  0
 25 26  1  0  0  0
 25 69  1  0  0  0
 25 70  1  0  0  0
 26 31  1  0  0  0
 26 27  2  0  0  0
 27 28  1  0  0  0
 27 71  1  0  0  0
 28 29  2  0  0  0
 28 72  1  0  0  0
 29 30  1  0  0  0
 29 73  1  0  0  0
 30 31  2  0  0  0
 30 32  1  0  0  0
 31 74  1  0  0  0
 32 33  1  0  0  0
 32 34  1  0  0  0
 32 75  1  0  0  0
 33 76  1  0  0  0
 33 77  1  0  0  0
 33 78  1  0  0  0
 34 79  1  0  0  0
 34 80  1  0  0  0
 34 81  1  0  0  0
 35 82  1  0  0  0
 36 37  1  0  0  0
 36 83  1  0  0  0
 36 84  1  0  0  0
 37 38  1  0  0  0
 38 85  1  0  0  0
 38 86  1  0  0  0
 38 87  1  0  0  0
M  CHG  1  24   1
M  END
> <s_m_source_file>
BACE_9.smi

> <i_m_source_file_index>
1

> <i_lp_mmshare_version>
42013

> <i_f3d_flags>
0

> <s_epik_input>
W05IXTFbQ0gyXVtDSDJdW0NIMl1bQ0gyXVtDSDJdW0NIMl1bQ0gyXVtDQEBIXShbQ0gzXSlbQ0gyXVtDQEhdKFtOSF1DKD1PKWMoW2NIXTIpW2NIXWMoW2NIXWMxMilbQ0gyXU9bQ0gzXSlbQ0BIXShbT0hdKVtDSDJdW05IXVtDSDJdYzNbY0hdW2NIXVtjSF1jKFtjSF0zKVtDSF0oW0NIM10pW0NIM10=

> <s_epik_cmdline>
J2VwaWtfcHl0aG9uJywgJy1waCcsICc3LjAnLCAnLXRuJywgJzgnLCAnLW1hJywgJzIwMCcsICctaW1hZScsICc8aW5maWxlLm1hZT4nLCAnLW9tYWUnLCAnPG91dGZpbGUubWFlPic=

> <r_epik_Ionization_Penalty>
  0.0171

> <r_epik_Ionization_Penalty_Charging>
  0.0165

> <r_epik_Ionization_Penalty_Neutral>
  0.0006

> <r_epik_State_Penalty>
  0.0130

> <r_epik_Charging_Adjusted_Penalty>
0.0295552

> <i_epik_Tot_Q>
1

> <i_epik_Tot_abs_Q>
1

> <s_lp_Force_Field>
OPLS_2005

> <r_lp_Energy>
38.0252

> <b_lp_Chiralities_Consistent>
1

> <s_lp_Variant>
BACE_9.smi:1-1

> <chiral flag>
1

> <version>
0

> <r_i_glide_lipo>
-0.710728

> <r_i_glide_hbond>
-0.0540132

> <r_i_glide_metal>
-0

> <r_i_glide_rewards>
-0.0401973

> <r_i_glide_erotb>
0.448381

> <r_i_glide_esite>
-0.0114061

> <chiral flag>
1

> <s_i_glide_gridfile>
second_dock_grid_2

> <i_i_glide_lignum>
18

> <i_i_glide_rotatable_bonds>
9

> <r_i_docking_score>
-2.36507

> <r_i_glide_ligand_efficiency>
-0.0622388

> <r_i_glide_ligand_efficiency_sa>
-0.209245

> <r_i_glide_ligand_efficiency_ln>
-0.509979

> <r_glide_XP_GScore>
-2.37807

> <r_i_glide_gscore>
-2.37807

> <r_i_glide_evdw>
-34.5832

> <r_i_glide_ecoul>
-9.94053

> <r_i_glide_energy>
-44.5238

> <r_i_glide_einternal>
6.08201

> <r_i_glide_emodel>
-61.1346

> <r_glide_XP_HBond>
-0.7

> <i_i_glide_confnum>
1

> <i_i_glide_posenum>
20

> <r_i_glide_eff_state_penalty>
0.013

> <i_glide_XP_PoseRank>
3

$$$$
BACE_9.smi:1
                    3D
 Structure written by MMmdl.
 88 90  0  0  1  0            999 V2000
   20.1082   42.6152   -6.0795 C   0  0  0  0  0  0
   21.4737   43.0805   -6.6134 C   0  0  2  0  0  0
   21.9039   44.3948   -5.9250 C   0  0  0  0  0  0
   23.3480   44.8154   -6.2413 C   0  0  0  0  0  0
   23.8250   46.0036   -5.3885 C   0  0  0  0  0  0
   25.1937   46.5513   -5.8253 C   0  0  0  0  0  0
   26.3830   45.6401   -5.4613 C   0  0  0  0  0  0
   27.6946   46.0289   -6.1727 C   0  0  0  0  0  0
   27.9319   45.2802   -7.4946 C   0  0  0  0  0  0
   26.9150   45.5738   -8.4919 N   0  0  0  0  0  0
   26.6209   44.5781   -9.4289 C   0  0  0  0  0  0
   27.6162   43.7116   -9.9285 C   0  0  0  0  0  0
   27.2907   42.7130  -10.8640 C   0  0  0  0  0  0
   25.9518   42.5576  -11.2855 C   0  0  0  0  0  0
   24.9432   43.4065  -10.7776 C   0  0  0  0  0  0
   25.2922   44.4336   -9.8727 C   0  0  0  0  0  0
   23.5224   43.2503  -11.2385 C   0  0  0  0  0  0
   23.2454   43.3521  -12.4349 O   0  0  0  0  0  0
   22.5682   43.0045  -10.3242 N   0  0  0  0  0  0
   22.6892   42.5993   -8.9146 C   0  0  1  0  0  0
   21.4536   43.1727   -8.1631 C   0  0  0  0  0  0
   22.8640   41.0502   -8.8713 C   0  0  1  0  0  0
   22.1631   40.2477   -9.9987 C   0  0  0  0  0  0
   22.0755   38.8130   -9.6435 N   0  3  0  0  0  0
   20.9754   38.4141   -8.7438 C   0  0  0  0  0  0
   19.6702   39.1078   -9.0875 C   0  0  0  0  0  0
   19.5244   39.7455  -10.3371 C   0  0  0  0  0  0
   18.3065   40.3607  -10.6807 C   0  0  0  0  0  0
   17.2354   40.3534   -9.7680 C   0  0  0  0  0  0
   17.3735   39.7280   -8.5095 C   0  0  0  0  0  0
   18.5938   39.0983   -8.1783 C   0  0  0  0  0  0
   16.2177   39.7419   -7.5212 C   0  0  0  0  0  0
   15.0839   38.8114   -7.9797 C   0  0  0  0  0  0
   15.7045   41.1654   -7.2558 C   0  0  0  0  0  0
   24.2427   40.7255   -8.8402 O   0  0  0  0  0  0
   28.3809   41.7910  -11.3712 C   0  0  0  0  0  0
   29.4427   42.5100  -11.9889 O   0  0  0  0  0  0
   29.2086   42.7372  -13.3680 C   0  0  0  0  0  0
   22.1878   42.3348   -6.2980 H   0  0  0  0  0  0
   23.5795   43.0548   -8.4855 H   0  0  0  0  0  0
   22.4331   40.6892   -7.9367 H   0  0  0  0  0  0
   19.3191   43.3257   -6.3212 H   0  0  0  0  0  0
   20.1294   42.4963   -4.9952 H   0  0  0  0  0  0
   19.8283   41.6474   -6.4992 H   0  0  0  0  0  0
   21.2179   45.2001   -6.1873 H   0  0  0  0  0  0
   21.8139   44.2647   -4.8444 H   0  0  0  0  0  0
   24.0128   43.9669   -6.0881 H   0  0  0  0  0  0
   23.4182   45.0842   -7.2942 H   0  0  0  0  0  0
   23.0941   46.8087   -5.4681 H   0  0  0  0  0  0
   23.8539   45.7274   -4.3335 H   0  0  0  0  0  0
   25.1639   46.7516   -6.8947 H   0  0  0  0  0  0
   25.3527   47.5232   -5.3542 H   0  0  0  0  0  0
   26.5328   45.6974   -4.3831 H   0  0  0  0  0  0
   26.1594   44.5950   -5.6693 H   0  0  0  0  0  0
   27.7452   47.1087   -6.3252 H   0  0  0  0  0  0
   28.5265   45.7869   -5.5098 H   0  0  0  0  0  0
   28.9055   45.5538   -7.9021 H   0  0  0  0  0  0
   27.9578   44.2078   -7.3007 H   0  0  0  0  0  0
   26.1478   46.1521   -8.1814 H   0  0  0  0  0  0
   28.6419   43.8077   -9.6034 H   0  0  0  0  0  0
   25.6984   41.7834  -11.9935 H   0  0  0  0  0  0
   24.5297   45.1054   -9.5018 H   0  0  0  0  0  0
   21.6351   42.9284  -10.7026 H   0  0  0  0  0  0
   20.5535   42.6928   -8.5525 H   0  0  0  0  0  0
   21.3340   44.2205   -8.4386 H   0  0  0  0  0  0
   21.1585   40.6521  -10.1482 H   0  0  0  0  0  0
   22.6810   40.3036  -10.9516 H   0  0  0  0  0  0
   22.0354   38.2676  -10.4885 H   0  0  0  0  0  0
   20.8409   37.3370   -8.8375 H   0  0  0  0  0  0
   21.2366   38.5952   -7.7046 H   0  0  0  0  0  0
   20.3416   39.7583  -11.0406 H   0  0  0  0  0  0
   18.1888   40.8368  -11.6437 H   0  0  0  0  0  0
   16.3059   40.8313  -10.0393 H   0  0  0  0  0  0
   18.7026   38.6108   -7.2206 H   0  0  0  0  0  0
   16.5937   39.3568   -6.5713 H   0  0  0  0  0  0
   15.4462   37.7914   -8.1138 H   0  0  0  0  0  0
   14.6516   39.1393   -8.9267 H   0  0  0  0  0  0
   14.2819   38.7806   -7.2421 H   0  0  0  0  0  0
   16.5220   41.8220   -6.9549 H   0  0  0  0  0  0
   14.9631   41.1672   -6.4561 H   0  0  0  0  0  0
   15.2348   41.5995   -8.1395 H   0  0  0  0  0  0
   24.3756   39.8606   -9.2041 H   0  0  0  0  0  0
   28.7636   41.2225  -10.5206 H   0  0  0  0  0  0
   27.9586   41.0746  -12.0751 H   0  0  0  0  0  0
   30.0431   43.2889  -13.8023 H   0  0  0  0  0  0
   28.3015   43.3229  -13.5246 H   0  0  0  0  0  0
   29.1140   41.7945  -13.9040 H   0  0  0  0  0  0
   22.9530   38.5732   -9.1820 H   0  0  0  0  0  0
  1  2  1  0  0  0
  1 42  1  0  0  0
  1 43  1  0  0  0
  1 44  1  0  0  0
  2 39  1  0  0  0
  2 21  1  0  0  0
  2  3  1  0  0  0
  3  4  1  0  0  0
  3 45  1  0  0  0
  3 46  1  0  0  0
  4  5  1  0  0  0
  4 47  1  0  0  0
  4 48  1  0  0  0
  5  6  1  0  0  0
  5 49  1  0  0  0
  5 50  1  0  0  0
  6  7  1  0  0  0
  6 51  1  0  0  0
  6 52  1  0  0  0
  7  8  1  0  0  0
  7 53  1  0  0  0
  7 54  1  0  0  0
  8  9  1  0  0  0
  8 55  1  0  0  0
  8 56  1  0  0  0
  9 10  1  0  0  0
  9 57  1  0  0  0
  9 58  1  0  0  0
 10 11  1  0  0  0
 10 59  1  0  0  0
 11 16  1  0  0  0
 11 12  2  0  0  0
 12 13  1  0  0  0
 12 60  1  0  0  0
 13 14  2  0  0  0
 13 36  1  0  0  0
 14 15  1  0  0  0
 14 61  1  0  0  0
 15 16  2  0  0  0
 15 17  1  0  0  0
 16 62  1  0  0  0
 17 18  2  0  0  0
 17 19  1  0  0  0
 19 20  1  0  0  0
 19 63  1  0  0  0
 20 40  1  0  0  0
 20 21  1  0  0  0
 20 22  1  0  0  0
 21 64  1  0  0  0
 21 65  1  0  0  0
 22 41  1  0  0  0
 22 23  1  0  0  0
 22 35  1  0  0  0
 23 24  1  0  0  0
 23 66  1  0  0  0
 23 67  1  0  0  0
 24 25  1  0  0  0
 24 68  1  0  0  0
 24 88  1  0  0  0
 25 26  1  0  0  0
 25 69  1  0  0  0
 25 70  1  0  0  0
 26 31  1  0  0  0
 26 27  2  0  0  0
 27 28  1  0  0  0
 27 71  1  0  0  0
 28 29  2  0  0  0
 28 72  1  0  0  0
 29 30  1  0  0  0
 29 73  1  0  0  0
 30 31  2  0  0  0
 30 32  1  0  0  0
 31 74  1  0  0  0
 32 33  1  0  0  0
 32 34  1  0  0  0
 32 75  1  0  0  0
 33 76  1  0  0  0
 33 77  1  0  0  0
 33 78  1  0  0  0
 34 79  1  0  0  0
 34 80  1  0  0  0
 34 81  1  0  0  0
 35 82  1  0  0  0
 36 37  1  0  0  0
 36 83  1  0  0  0
 36 84  1  0  0  0
 37 38  1  0  0  0
 38 85  1  0  0  0
 38 86  1  0  0  0
 38 87  1  0  0  0
M  CHG  1  24   1
M  END
> <s_m_source_file>
BACE_9.smi

> <i_m_source_file_index>
1

> <i_lp_mmshare_version>
42013

> <i_f3d_flags>
0

> <s_epik_input>
W05IXTFbQ0gyXVtDSDJdW0NIMl1bQ0gyXVtDSDJdW0NIMl1bQ0gyXVtDQEBIXShbQ0gzXSlbQ0gyXVtDQEhdKFtOSF1DKD1PKWMoW2NIXTIpW2NIXWMoW2NIXWMxMilbQ0gyXU9bQ0gzXSlbQ0BIXShbT0hdKVtDSDJdW05IXVtDSDJdYzNbY0hdW2NIXVtjSF1jKFtjSF0zKVtDSF0oW0NIM10pW0NIM10=

> <s_epik_cmdline>
J2VwaWtfcHl0aG9uJywgJy1waCcsICc3LjAnLCAnLXRuJywgJzgnLCAnLW1hJywgJzIwMCcsICctaW1hZScsICc8aW5maWxlLm1hZT4nLCAnLW9tYWUnLCAnPG91dGZpbGUubWFlPic=

> <r_epik_Ionization_Penalty>
  0.0171

> <r_epik_Ionization_Penalty_Charging>
  0.0165

> <r_epik_Ionization_Penalty_Neutral>
  0.0006

> <r_epik_State_Penalty>
  0.0130

> <r_epik_Charging_Adjusted_Penalty>
0.0295552

> <i_epik_Tot_Q>
1

> <i_epik_Tot_abs_Q>
1

> <s_lp_Force_Field>
OPLS_2005

> <r_lp_Energy>
38.0252

> <b_lp_Chiralities_Consistent>
1

> <s_lp_Variant>
BACE_9.smi:1-1

> <chiral flag>
1

> <version>
0

> <r_i_glide_lipo>
-0.710728

> <r_i_glide_hbond>
-0.0540132

> <r_i_glide_metal>
-0

> <r_i_glide_rewards>
-0.0401973

> <r_i_glide_erotb>
0.448381

> <r_i_glide_esite>
-0.0114061

> <chiral flag>
1

> <s_i_glide_gridfile>
second_dock_grid_2

> <i_i_glide_lignum>
18

> <i_i_glide_rotatable_bonds>
9

> <r_i_docking_score>
-1.95489

> <r_i_glide_ligand_efficiency>
-0.0514446

> <r_i_glide_ligand_efficiency_sa>
-0.172955

> <r_i_glide_ligand_efficiency_ln>
-0.421533

> <r_glide_XP_GScore>
-1.96789

> <r_i_glide_gscore>
-1.96789

> <r_i_glide_evdw>
-34.9414

> <r_i_glide_ecoul>
-8.89282

> <r_i_glide_energy>
-43.8342

> <r_i_glide_einternal>
5.87757

> <r_i_glide_emodel>
-61.3061

> <r_glide_XP_HBond>
-0.7

> <i_i_glide_confnum>
1

> <i_i_glide_posenum>
27

> <r_i_glide_eff_state_penalty>
0.013

> <i_glide_XP_PoseRank>
4

$$$$
BACE_9.smi:1
                    3D
 Structure written by MMmdl.
 88 90  0  0  1  0            999 V2000
   21.8527   43.3759   -6.0466 C   0  0  0  0  0  0
   23.2581   43.5775   -6.6402 C   0  0  2  0  0  0
   23.9686   44.7435   -5.9168 C   0  0  0  0  0  0
   25.4411   44.9436   -6.3134 C   0  0  0  0  0  0
   26.1360   46.0410   -5.4880 C   0  0  0  0  0  0
   27.5314   46.4076   -6.0149 C   0  0  0  0  0  0
   28.6037   45.3286   -5.7653 C   0  0  0  0  0  0
   29.9324   45.6163   -6.4938 C   0  0  0  0  0  0
   30.0526   44.9281   -7.8656 C   0  0  0  0  0  0
   28.9835   45.3238   -8.7728 N   0  0  0  0  0  0
   28.4596   44.3821   -9.6679 C   0  0  0  0  0  0
   29.2511   43.3474  -10.2138 C   0  0  0  0  0  0
   28.6975   42.4347  -11.1338 C   0  0  0  0  0  0
   27.3389   42.5457  -11.4970 C   0  0  0  0  0  0
   26.5293   43.5573  -10.9368 C   0  0  0  0  0  0
   27.1032   44.4832  -10.0383 C   0  0  0  0  0  0
   25.0847   43.6681  -11.3357 C   0  0  0  0  0  0
   24.7937   43.9399  -12.4961 O   0  0  0  0  0  0
   24.1247   43.4664  -10.4121 N   0  0  0  0  0  0
   24.2534   43.0265   -9.0172 C   0  0  1  0  0  0
   23.1798   43.7685   -8.1791 C   0  0  0  0  0  0
   24.2018   41.4743   -8.9042 C   0  0  1  0  0  0
   22.8743   40.7885   -9.3083 C   0  0  0  0  0  0
   22.8600   39.3844   -8.8400 N   0  3  0  0  0  0
   21.7368   38.5443   -9.3122 C   0  0  0  0  0  0
   20.4659   38.6724   -8.4853 C   0  0  0  0  0  0
   20.5183   39.0290   -7.1205 C   0  0  0  0  0  0
   19.3361   39.0793   -6.3639 C   0  0  0  0  0  0
   18.1005   38.7495   -6.9401 C   0  0  0  0  0  0
   18.0323   38.3811   -8.2958 C   0  0  0  0  0  0
   19.2170   38.3545   -9.0695 C   0  0  0  0  0  0
   16.6849   37.9942   -8.8870 C   0  0  0  0  0  0
   16.6638   36.5161   -9.2983 C   0  0  0  0  0  0
   16.2799   38.9342  -10.0303 C   0  0  0  0  0  0
   25.2523   40.9500   -9.6913 O   0  0  0  0  0  0
   29.5608   41.3222  -11.7015 C   0  0  0  0  0  0
   30.8752   41.7502  -12.0274 O   0  0  0  0  0  0
   30.9403   42.4842  -13.2412 C   0  0  0  0  0  0
   23.8104   42.6702   -6.4102 H   0  0  0  0  0  0
   25.2220   43.3354   -8.6310 H   0  0  0  0  0  0
   24.4513   41.2008   -7.8826 H   0  0  0  0  0  0
   21.2196   44.2467   -6.2192 H   0  0  0  0  0  0
   21.9008   43.2089   -4.9697 H   0  0  0  0  0  0
   21.3569   42.5081   -6.4852 H   0  0  0  0  0  0
   23.4194   45.6700   -6.0894 H   0  0  0  0  0  0
   23.9239   44.5679   -4.8411 H   0  0  0  0  0  0
   25.9776   44.0004   -6.2033 H   0  0  0  0  0  0
   25.4961   45.2164   -7.3663 H   0  0  0  0  0  0
   25.5179   46.9394   -5.5113 H   0  0  0  0  0  0
   26.2029   45.7500   -4.4402 H   0  0  0  0  0  0
   27.4518   46.6442   -7.0738 H   0  0  0  0  0  0
   27.8580   47.3307   -5.5343 H   0  0  0  0  0  0
   28.7892   45.2775   -4.6914 H   0  0  0  0  0  0
   28.2424   44.3398   -6.0511 H   0  0  0  0  0  0
   30.0891   46.6917   -6.5902 H   0  0  0  0  0  0
   30.7538   45.2583   -5.8721 H   0  0  0  0  0  0
   31.0092   45.1854   -8.3212 H   0  0  0  0  0  0
   30.0598   43.8487   -7.7224 H   0  0  0  0  0  0
   28.3477   46.0230   -8.4224 H   0  0  0  0  0  0
   30.2946   43.2579   -9.9503 H   0  0  0  0  0  0
   26.9080   41.8393  -12.1918 H   0  0  0  0  0  0
   26.4948   45.2753   -9.6272 H   0  0  0  0  0  0
   23.1829   43.5760  -10.7546 H   0  0  0  0  0  0
   22.1932   43.4789   -8.5383 H   0  0  0  0  0  0
   23.2336   44.8363   -8.3975 H   0  0  0  0  0  0
   22.0187   41.2887   -8.8576 H   0  0  0  0  0  0
   22.7407   40.8314  -10.3905 H   0  0  0  0  0  0
   23.7039   38.9453   -9.2113 H   0  0  0  0  0  0
   21.5322   38.7446  -10.3648 H   0  0  0  0  0  0
   22.0559   37.5033   -9.2509 H   0  0  0  0  0  0
   21.4510   39.2557   -6.6273 H   0  0  0  0  0  0
   19.3726   39.3507   -5.3193 H   0  0  0  0  0  0
   17.2067   38.7686   -6.3299 H   0  0  0  0  0  0
   19.1681   38.0568  -10.1075 H   0  0  0  0  0  0
   15.9301   38.1076   -8.1060 H   0  0  0  0  0  0
   16.8514   35.8747   -8.4367 H   0  0  0  0  0  0
   17.4317   36.3060  -10.0390 H   0  0  0  0  0  0
   15.6977   36.2357   -9.7198 H   0  0  0  0  0  0
   16.2034   39.9628   -9.6774 H   0  0  0  0  0  0
   15.3085   38.6553  -10.4402 H   0  0  0  0  0  0
   17.0080   38.9185  -10.8399 H   0  0  0  0  0  0
   25.2717   40.0027   -9.6403 H   0  0  0  0  0  0
   29.6604   40.5501  -10.9396 H   0  0  0  0  0  0
   29.0805   40.8484  -12.5605 H   0  0  0  0  0  0
   31.9735   42.7751  -13.4325 H   0  0  0  0  0  0
   30.3387   43.3930  -13.1952 H   0  0  0  0  0  0
   30.6002   41.8802  -14.0854 H   0  0  0  0  0  0
   22.9027   39.3531   -7.8332 H   0  0  0  0  0  0
  1  2  1  0  0  0
  1 42  1  0  0  0
  1 43  1  0  0  0
  1 44  1  0  0  0
  2 39  1  0  0  0
  2 21  1  0  0  0
  2  3  1  0  0  0
  3  4  1  0  0  0
  3 45  1  0  0  0
  3 46  1  0  0  0
  4  5  1  0  0  0
  4 47  1  0  0  0
  4 48  1  0  0  0
  5  6  1  0  0  0
  5 49  1  0  0  0
  5 50  1  0  0  0
  6  7  1  0  0  0
  6 51  1  0  0  0
  6 52  1  0  0  0
  7  8  1  0  0  0
  7 53  1  0  0  0
  7 54  1  0  0  0
  8  9  1  0  0  0
  8 55  1  0  0  0
  8 56  1  0  0  0
  9 10  1  0  0  0
  9 57  1  0  0  0
  9 58  1  0  0  0
 10 11  1  0  0  0
 10 59  1  0  0  0
 11 16  1  0  0  0
 11 12  2  0  0  0
 12 13  1  0  0  0
 12 60  1  0  0  0
 13 14  2  0  0  0
 13 36  1  0  0  0
 14 15  1  0  0  0
 14 61  1  0  0  0
 15 16  2  0  0  0
 15 17  1  0  0  0
 16 62  1  0  0  0
 17 18  2  0  0  0
 17 19  1  0  0  0
 19 20  1  0  0  0
 19 63  1  0  0  0
 20 40  1  0  0  0
 20 21  1  0  0  0
 20 22  1  0  0  0
 21 64  1  0  0  0
 21 65  1  0  0  0
 22 41  1  0  0  0
 22 23  1  0  0  0
 22 35  1  0  0  0
 23 24  1  0  0  0
 23 66  1  0  0  0
 23 67  1  0  0  0
 24 25  1  0  0  0
 24 68  1  0  0  0
 24 88  1  0  0  0
 25 26  1  0  0  0
 25 69  1  0  0  0
 25 70  1  0  0  0
 26 31  1  0  0  0
 26 27  2  0  0  0
 27 28  1  0  0  0
 27 71  1  0  0  0
 28 29  2  0  0  0
 28 72  1  0  0  0
 29 30  1  0  0  0
 29 73  1  0  0  0
 30 31  2  0  0  0
 30 32  1  0  0  0
 31 74  1  0  0  0
 32 33  1  0  0  0
 32 34  1  0  0  0
 32 75  1  0  0  0
 33 76  1  0  0  0
 33 77  1  0  0  0
 33 78  1  0  0  0
 34 79  1  0  0  0
 34 80  1  0  0  0
 34 81  1  0  0  0
 35 82  1  0  0  0
 36 37  1  0  0  0
 36 83  1  0  0  0
 36 84  1  0  0  0
 37 38  1  0  0  0
 38 85  1  0  0  0
 38 86  1  0  0  0
 38 87  1  0  0  0
M  CHG  1  24   1
M  END
> <s_m_source_file>
BACE_9.smi

> <i_m_source_file_index>
1

> <i_lp_mmshare_version>
42013

> <i_f3d_flags>
0

> <s_epik_input>
W05IXTFbQ0gyXVtDSDJdW0NIMl1bQ0gyXVtDSDJdW0NIMl1bQ0gyXVtDQEBIXShbQ0gzXSlbQ0gyXVtDQEhdKFtOSF1DKD1PKWMoW2NIXTIpW2NIXWMoW2NIXWMxMilbQ0gyXU9bQ0gzXSlbQ0BIXShbT0hdKVtDSDJdW05IXVtDSDJdYzNbY0hdW2NIXVtjSF1jKFtjSF0zKVtDSF0oW0NIM10pW0NIM10=

> <s_epik_cmdline>
J2VwaWtfcHl0aG9uJywgJy1waCcsICc3LjAnLCAnLXRuJywgJzgnLCAnLW1hJywgJzIwMCcsICctaW1hZScsICc8aW5maWxlLm1hZT4nLCAnLW9tYWUnLCAnPG91dGZpbGUubWFlPic=

> <r_epik_Ionization_Penalty>
  0.0171

> <r_epik_Ionization_Penalty_Charging>
  0.0165

> <r_epik_Ionization_Penalty_Neutral>
  0.0006

> <r_epik_State_Penalty>
  0.0130

> <r_epik_Charging_Adjusted_Penalty>
0.0295552

> <i_epik_Tot_Q>
1

> <i_epik_Tot_abs_Q>
1

> <s_lp_Force_Field>
OPLS_2005

> <r_lp_Energy>
38.0252

> <b_lp_Chiralities_Consistent>
1

> <s_lp_Variant>
BACE_9.smi:1-1

> <chiral flag>
1

> <version>
0

> <r_i_glide_lipo>
-0.710728

> <r_i_glide_hbond>
-0.0540132

> <r_i_glide_metal>
-0

> <r_i_glide_rewards>
-0.0401973

> <r_i_glide_erotb>
0.448381

> <r_i_glide_esite>
-0.0114061

> <chiral flag>
1

> <s_i_glide_gridfile>
second_dock_grid_2

> <i_i_glide_lignum>
18

> <i_i_glide_rotatable_bonds>
9

> <r_i_docking_score>
-1.70547

> <r_i_glide_ligand_efficiency>
-0.0448808

> <r_i_glide_ligand_efficiency_sa>
-0.150888

> <r_i_glide_ligand_efficiency_ln>
-0.36775

> <r_glide_XP_GScore>
-1.71847

> <r_i_glide_gscore>
-1.71847

> <r_i_glide_evdw>
-37.7355

> <r_i_glide_ecoul>
-11.6363

> <r_i_glide_energy>
-49.3718

> <r_i_glide_einternal>
6.67409

> <r_i_glide_emodel>
-61.5955

> <r_glide_XP_HBond>
-0.7

> <i_i_glide_confnum>
1

> <i_i_glide_posenum>
10

> <r_i_glide_eff_state_penalty>
0.013

> <i_glide_XP_PoseRank>
5

$$$$
BACE_9.smi:1
                    3D
 Structure written by MMmdl.
 88 90  0  0  1  0            999 V2000
   20.5552   42.8028   -5.7661 C   0  0  0  0  0  0
   21.9051   43.2868   -6.3268 C   0  0  2  0  0  0
   22.3195   44.6011   -5.6255 C   0  0  0  0  0  0
   23.7533   45.0557   -5.9366 C   0  0  0  0  0  0
   24.1802   46.3135   -5.1531 C   0  0  0  0  0  0
   25.5950   46.7954   -5.5178 C   0  0  0  0  0  0
   26.7308   45.8782   -5.0125 C   0  0  0  0  0  0
   28.0807   46.0785   -5.7293 C   0  0  0  0  0  0
   28.2555   45.2141   -6.9926 C   0  0  0  0  0  0
   27.3403   45.6135   -8.0487 N   0  0  0  0  0  0
   27.0284   44.6760   -9.0380 C   0  0  0  0  0  0
   27.9993   43.8055   -9.5762 C   0  0  0  0  0  0
   27.6522   42.8952  -10.5964 C   0  0  0  0  0  0
   26.3167   42.8324  -11.0473 C   0  0  0  0  0  0
   25.3288   43.6641  -10.4798 C   0  0  0  0  0  0
   25.7012   44.6112   -9.5037 C   0  0  0  0  0  0
   23.9049   43.5722  -10.9514 C   0  0  0  0  0  0
   23.6404   43.7502  -12.1367 O   0  0  0  0  0  0
   22.9327   43.2971  -10.0577 N   0  0  0  0  0  0
   23.0482   42.8490   -8.6623 C   0  0  1  0  0  0
   21.8357   43.4133   -7.8738 C   0  0  0  0  0  0
   23.1626   41.2972   -8.5923 C   0  0  1  0  0  0
   22.1089   40.5106   -9.4077 C   0  0  0  0  0  0
   22.0213   39.0969   -8.9771 N   0  3  0  0  0  0
   21.1355   38.8336   -7.8147 C   0  0  0  0  0  0
   19.6741   38.6814   -8.2203 C   0  0  0  0  0  0
   19.3387   37.8433   -9.3015 C   0  0  0  0  0  0
   17.9943   37.6223   -9.6395 C   0  0  0  0  0  0
   16.9681   38.2590   -8.9245 C   0  0  0  0  0  0
   17.2780   39.1137   -7.8470 C   0  0  0  0  0  0
   18.6372   39.3172   -7.4980 C   0  0  0  0  0  0
   16.1765   39.8139   -7.0527 C   0  0  0  0  0  0
   14.7841   39.1641   -7.1439 C   0  0  0  0  0  0
   16.0798   41.2926   -7.4326 C   0  0  0  0  0  0
   24.4587   40.9500   -9.0384 O   0  0  0  0  0  0
   28.6794   41.9518  -11.1972 C   0  0  0  0  0  0
   29.9916   42.0799  -10.6579 O   0  0  0  0  0  0
   30.7855   43.0261  -11.3510 C   0  0  0  0  0  0
   22.6396   42.5293   -6.0524 H   0  0  0  0  0  0
   23.9378   43.2704   -8.2004 H   0  0  0  0  0  0
   23.1151   40.9897   -7.5478 H   0  0  0  0  0  0
   19.7552   43.5129   -5.9832 H   0  0  0  0  0  0
   20.5925   42.6716   -4.6834 H   0  0  0  0  0  0
   20.2729   41.8412   -6.1901 H   0  0  0  0  0  0
   21.6180   45.3951   -5.8838 H   0  0  0  0  0  0
   22.2346   44.4649   -4.5456 H   0  0  0  0  0  0
   24.4321   44.2303   -5.7222 H   0  0  0  0  0  0
   23.8442   45.2641   -7.0014 H   0  0  0  0  0  0
   23.4747   47.1142   -5.3753 H   0  0  0  0  0  0
   24.1103   46.1501   -4.0762 H   0  0  0  0  0  0
   25.6402   46.9203   -6.5967 H   0  0  0  0  0  0
   25.7506   47.7953   -5.1094 H   0  0  0  0  0  0
   26.8638   46.0722   -3.9480 H   0  0  0  0  0  0
   26.4574   44.8270   -5.0798 H   0  0  0  0  0  0
   28.2427   47.1329   -5.9542 H   0  0  0  0  0  0
   28.8751   45.8031   -5.0365 H   0  0  0  0  0  0
   29.2775   45.3130   -7.3615 H   0  0  0  0  0  0
   28.1036   44.1594   -6.7477 H   0  0  0  0  0  0
   26.5825   46.2089   -7.7504 H   0  0  0  0  0  0
   29.0150   43.8497   -9.2159 H   0  0  0  0  0  0
   26.0438   42.1204  -11.8140 H   0  0  0  0  0  0
   24.9547   45.2795   -9.1001 H   0  0  0  0  0  0
   21.9992   43.3112  -10.4382 H   0  0  0  0  0  0
   20.9267   42.9375   -8.2406 H   0  0  0  0  0  0
   21.7029   44.4652   -8.1264 H   0  0  0  0  0  0
   21.1198   40.9621   -9.3263 H   0  0  0  0  0  0
   22.3668   40.5399  -10.4660 H   0  0  0  0  0  0
   21.6617   38.5564   -9.7486 H   0  0  0  0  0  0
   21.4447   37.8922   -7.3552 H   0  0  0  0  0  0
   21.2496   39.6045   -7.0519 H   0  0  0  0  0  0
   20.1121   37.3506   -9.8657 H   0  0  0  0  0  0
   17.7408   36.9507  -10.4399 H   0  0  0  0  0  0
   15.9446   38.0690   -9.2110 H   0  0  0  0  0  0
   18.8741   39.9520   -6.6570 H   0  0  0  0  0  0
   16.4610   39.7491   -6.0044 H   0  0  0  0  0  0
   14.8203   38.1202   -6.8480 H   0  0  0  0  0  0
   14.3524   39.2287   -8.1423 H   0  0  0  0  0  0
   14.0880   39.6566   -6.4626 H   0  0  0  0  0  0
   17.0119   41.8225   -7.2378 H   0  0  0  0  0  0
   15.2984   41.7633   -6.8414 H   0  0  0  0  0  0
   15.8261   41.4202   -8.4859 H   0  0  0  0  0  0
   24.5449   40.0143   -9.1691 H   0  0  0  0  0  0
   28.3277   40.9509  -10.9750 H   0  0  0  0  0  0
   28.6815   42.0384  -12.2846 H   0  0  0  0  0  0
   31.7538   43.1215  -10.8635 H   0  0  0  0  0  0
   30.3189   44.0124  -11.3684 H   0  0  0  0  0  0
   30.9601   42.7060  -12.3784 H   0  0  0  0  0  0
   22.9534   38.7612   -8.7798 H   0  0  0  0  0  0
  1  2  1  0  0  0
  1 42  1  0  0  0
  1 43  1  0  0  0
  1 44  1  0  0  0
  2 39  1  0  0  0
  2 21  1  0  0  0
  2  3  1  0  0  0
  3  4  1  0  0  0
  3 45  1  0  0  0
  3 46  1  0  0  0
  4  5  1  0  0  0
  4 47  1  0  0  0
  4 48  1  0  0  0
  5  6  1  0  0  0
  5 49  1  0  0  0
  5 50  1  0  0  0
  6  7  1  0  0  0
  6 51  1  0  0  0
  6 52  1  0  0  0
  7  8  1  0  0  0
  7 53  1  0  0  0
  7 54  1  0  0  0
  8  9  1  0  0  0
  8 55  1  0  0  0
  8 56  1  0  0  0
  9 10  1  0  0  0
  9 57  1  0  0  0
  9 58  1  0  0  0
 10 11  1  0  0  0
 10 59  1  0  0  0
 11 16  1  0  0  0
 11 12  2  0  0  0
 12 13  1  0  0  0
 12 60  1  0  0  0
 13 14  2  0  0  0
 13 36  1  0  0  0
 14 15  1  0  0  0
 14 61  1  0  0  0
 15 16  2  0  0  0
 15 17  1  0  0  0
 16 62  1  0  0  0
 17 18  2  0  0  0
 17 19  1  0  0  0
 19 20  1  0  0  0
 19 63  1  0  0  0
 20 40  1  0  0  0
 20 21  1  0  0  0
 20 22  1  0  0  0
 21 64  1  0  0  0
 21 65  1  0  0  0
 22 41  1  0  0  0
 22 23  1  0  0  0
 22 35  1  0  0  0
 23 24  1  0  0  0
 23 66  1  0  0  0
 23 67  1  0  0  0
 24 25  1  0  0  0
 24 68  1  0  0  0
 24 88  1  0  0  0
 25 26  1  0  0  0
 25 69  1  0  0  0
 25 70  1  0  0  0
 26 31  1  0  0  0
 26 27  2  0  0  0
 27 28  1  0  0  0
 27 71  1  0  0  0
 28 29  2  0  0  0
 28 72  1  0  0  0
 29 30  1  0  0  0
 29 73  1  0  0  0
 30 31  2  0  0  0
 30 32  1  0  0  0
 31 74  1  0  0  0
 32 33  1  0  0  0
 32 34  1  0  0  0
 32 75  1  0  0  0
 33 76  1  0  0  0
 33 77  1  0  0  0
 33 78  1  0  0  0
 34 79  1  0  0  0
 34 80  1  0  0  0
 34 81  1  0  0  0
 35 82  1  0  0  0
 36 37  1  0  0  0
 36 83  1  0  0  0
 36 84  1  0  0  0
 37 38  1  0  0  0
 38 85  1  0  0  0
 38 86  1  0  0  0
 38 87  1  0  0  0
M  CHG  1  24   1
M  END
> <s_m_source_file>
BACE_9.smi

> <i_m_source_file_index>
1

> <i_lp_mmshare_version>
42013

> <i_f3d_flags>
0

> <s_epik_input>
W05IXTFbQ0gyXVtDSDJdW0NIMl1bQ0gyXVtDSDJdW0NIMl1bQ0gyXVtDQEBIXShbQ0gzXSlbQ0gyXVtDQEhdKFtOSF1DKD1PKWMoW2NIXTIpW2NIXWMoW2NIXWMxMilbQ0gyXU9bQ0gzXSlbQ0BIXShbT0hdKVtDSDJdW05IXVtDSDJdYzNbY0hdW2NIXVtjSF1jKFtjSF0zKVtDSF0oW0NIM10pW0NIM10=

> <s_epik_cmdline>
J2VwaWtfcHl0aG9uJywgJy1waCcsICc3LjAnLCAnLXRuJywgJzgnLCAnLW1hJywgJzIwMCcsICctaW1hZScsICc8aW5maWxlLm1hZT4nLCAnLW9tYWUnLCAnPG91dGZpbGUubWFlPic=

> <r_epik_Ionization_Penalty>
  0.0171

> <r_epik_Ionization_Penalty_Charging>
  0.0165

> <r_epik_Ionization_Penalty_Neutral>
  0.0006

> <r_epik_State_Penalty>
  0.0130

> <r_epik_Charging_Adjusted_Penalty>
0.0295552

> <i_epik_Tot_Q>
1

> <i_epik_Tot_abs_Q>
1

> <s_lp_Force_Field>
OPLS_2005

> <r_lp_Energy>
38.0252

> <b_lp_Chiralities_Consistent>
1

> <s_lp_Variant>
BACE_9.smi:1-1

> <chiral flag>
1

> <version>
0

> <r_i_glide_lipo>
-0.710728

> <r_i_glide_hbond>
-0.0540132

> <r_i_glide_metal>
-0

> <r_i_glide_rewards>
-0.0401973

> <r_i_glide_erotb>
0.448381

> <r_i_glide_esite>
-0.0114061

> <chiral flag>
1

> <s_i_glide_gridfile>
second_dock_grid_2

> <i_i_glide_lignum>
18

> <i_i_glide_rotatable_bonds>
9

> <r_i_docking_score>
-1.69327

> <r_i_glide_ligand_efficiency>
-0.0445596

> <r_i_glide_ligand_efficiency_sa>
-0.149808

> <r_i_glide_ligand_efficiency_ln>
-0.365118

> <r_glide_XP_GScore>
-1.70627

> <r_i_glide_gscore>
-1.70627

> <r_i_glide_evdw>
-38.2638

> <r_i_glide_ecoul>
-9.62636

> <r_i_glide_energy>
-47.8901

> <r_i_glide_einternal>
2.57597

> <r_i_glide_emodel>
-65.8549

> <r_glide_XP_HBond>
-0.7

> <i_i_glide_confnum>
1

> <i_i_glide_posenum>
1

> <r_i_glide_eff_state_penalty>
0.013

> <i_glide_XP_PoseRank>
6

$$$$
BACE_9.smi:1
                    3D
 Structure written by MMmdl.
 88 90  0  0  1  0            999 V2000
   20.3493   41.6644   -3.5938 C   0  0  0  0  0  0
   21.3510   42.2566   -4.5999 C   0  0  2  0  0  0
   21.6402   43.7370   -4.2670 C   0  0  0  0  0  0
   22.7885   44.3436   -5.0891 C   0  0  0  0  0  0
   23.1986   45.7437   -4.6011 C   0  0  0  0  0  0
   24.2120   46.4349   -5.5280 C   0  0  0  0  0  0
   25.6354   45.8468   -5.4566 C   0  0  0  0  0  0
   26.5535   46.3203   -6.6013 C   0  0  0  0  0  0
   26.5661   45.3813   -7.8188 C   0  0  0  0  0  0
   25.2642   45.2810   -8.4590 N   0  0  0  0  0  0
   24.9539   44.0831   -9.1106 C   0  0  0  0  0  0
   25.9360   43.3317   -9.7903 C   0  0  0  0  0  0
   25.5978   42.1256  -10.4298 C   0  0  0  0  0  0
   24.2702   41.6479  -10.3673 C   0  0  0  0  0  0
   23.2823   42.3815   -9.6733 C   0  0  0  0  0  0
   23.6268   43.6133   -9.0736 C   0  0  0  0  0  0
   21.8676   41.8803   -9.6208 C   0  0  0  0  0  0
   21.2392   41.6911  -10.6638 O   0  0  0  0  0  0
   21.3062   41.6499   -8.4214 N   0  0  0  0  0  0
   21.9232   41.5604   -7.0884 C   0  0  1  0  0  0
   20.8605   42.0353   -6.0563 C   0  0  0  0  0  0
   22.4630   40.1090   -6.9031 C   0  0  1  0  0  0
   21.4905   38.9607   -7.2801 C   0  0  0  0  0  0
   21.2561   38.9317   -8.7417 N   0  3  0  0  0  0
   20.1053   38.1389   -9.2174 C   0  0  0  0  0  0
   18.9209   39.0106   -9.5918 C   0  0  0  0  0  0
   18.9660   39.7842  -10.7703 C   0  0  0  0  0  0
   17.8597   40.5683  -11.1459 C   0  0  0  0  0  0
   16.7102   40.5928  -10.3345 C   0  0  0  0  0  0
   16.6578   39.8314   -9.1465 C   0  0  0  0  0  0
   17.7663   39.0340   -8.7846 C   0  0  0  0  0  0
   15.4194   39.8791   -8.2651 C   0  0  0  0  0  0
   15.7717   40.3200   -6.8358 C   0  0  0  0  0  0
   14.6574   38.5452   -8.2706 C   0  0  0  0  0  0
   23.6794   39.9572   -7.6133 O   0  0  0  0  0  0
   26.6788   41.3366  -11.1404 C   0  0  0  0  0  0
   27.3881   42.1332  -12.0827 O   0  0  0  0  0  0
   28.6360   41.5635  -12.4386 C   0  0  0  0  0  0
   22.2805   41.7313   -4.4405 H   0  0  0  0  0  0
   22.7662   42.2466   -7.0365 H   0  0  0  0  0  0
   22.6942   39.9685   -5.8465 H   0  0  0  0  0  0
   19.3798   42.1566   -3.6552 H   0  0  0  0  0  0
   20.7119   41.7682   -2.5702 H   0  0  0  0  0  0
   20.1959   40.5982   -3.7695 H   0  0  0  0  0  0
   20.7380   44.3354   -4.3936 H   0  0  0  0  0  0
   21.9013   43.8090   -3.2089 H   0  0  0  0  0  0
   23.6495   43.6782   -5.0521 H   0  0  0  0  0  0
   22.4844   44.4071   -6.1329 H   0  0  0  0  0  0
   22.3079   46.3697   -4.5420 H   0  0  0  0  0  0
   23.5969   45.6915   -3.5868 H   0  0  0  0  0  0
   23.8265   46.4110   -6.5456 H   0  0  0  0  0  0
   24.2673   47.4932   -5.2654 H   0  0  0  0  0  0
   26.0740   46.1425   -4.5035 H   0  0  0  0  0  0
   25.6139   44.7583   -5.4423 H   0  0  0  0  0  0
   26.3017   47.3394   -6.9012 H   0  0  0  0  0  0
   27.5747   46.3703   -6.2206 H   0  0  0  0  0  0
   27.2863   45.7422   -8.5537 H   0  0  0  0  0  0
   26.8992   44.3915   -7.5061 H   0  0  0  0  0  0
   24.5066   45.7591   -7.9932 H   0  0  0  0  0  0
   26.9591   43.6760   -9.8331 H   0  0  0  0  0  0
   24.0120   40.7160  -10.8466 H   0  0  0  0  0  0
   22.8691   44.1942   -8.5651 H   0  0  0  0  0  0
   20.3487   41.3311   -8.4613 H   0  0  0  0  0  0
   20.0257   41.3317   -6.0647 H   0  0  0  0  0  0
   20.4227   42.9681   -6.4116 H   0  0  0  0  0  0
   21.9240   38.0104   -6.9576 H   0  0  0  0  0  0
   20.5165   39.0503   -6.8082 H   0  0  0  0  0  0
   21.1787   39.8763   -9.0805 H   0  0  0  0  0  0
   20.4256   37.5784  -10.0951 H   0  0  0  0  0  0
   19.8102   37.3984   -8.4789 H   0  0  0  0  0  0
   19.8445   39.7733  -11.3956 H   0  0  0  0  0  0
   17.8874   41.1499  -12.0562 H   0  0  0  0  0  0
   15.8675   41.2004  -10.6291 H   0  0  0  0  0  0
   17.7289   38.4427   -7.8815 H   0  0  0  0  0  0
   14.7476   40.6312   -8.6837 H   0  0  0  0  0  0
   16.2644   41.2931   -6.8377 H   0  0  0  0  0  0
   16.4402   39.6084   -6.3479 H   0  0  0  0  0  0
   14.8751   40.4072   -6.2220 H   0  0  0  0  0  0
   14.4345   38.2306   -9.2910 H   0  0  0  0  0  0
   13.7117   38.6369   -7.7353 H   0  0  0  0  0  0
   15.2291   37.7486   -7.7925 H   0  0  0  0  0  0
   23.4985   39.6813   -8.5017 H   0  0  0  0  0  0
   27.3684   40.9544  -10.3844 H   0  0  0  0  0  0
   26.2370   40.4751  -11.6400 H   0  0  0  0  0  0
   29.1461   42.2029  -13.1600 H   0  0  0  0  0  0
   28.5071   40.5804  -12.8941 H   0  0  0  0  0  0
   29.2780   41.4637  -11.5652 H   0  0  0  0  0  0
   22.0969   38.5376   -9.1637 H   0  0  0  0  0  0
  1  2  1  0  0  0
  1 42  1  0  0  0
  1 43  1  0  0  0
  1 44  1  0  0  0
  2 39  1  0  0  0
  2 21  1  0  0  0
  2  3  1  0  0  0
  3  4  1  0  0  0
  3 45  1  0  0  0
  3 46  1  0  0  0
  4  5  1  0  0  0
  4 47  1  0  0  0
  4 48  1  0  0  0
  5  6  1  0  0  0
  5 49  1  0  0  0
  5 50  1  0  0  0
  6  7  1  0  0  0
  6 51  1  0  0  0
  6 52  1  0  0  0
  7  8  1  0  0  0
  7 53  1  0  0  0
  7 54  1  0  0  0
  8  9  1  0  0  0
  8 55  1  0  0  0
  8 56  1  0  0  0
  9 10  1  0  0  0
  9 57  1  0  0  0
  9 58  1  0  0  0
 10 11  1  0  0  0
 10 59  1  0  0  0
 11 16  1  0  0  0
 11 12  2  0  0  0
 12 13  1  0  0  0
 12 60  1  0  0  0
 13 14  2  0  0  0
 13 36  1  0  0  0
 14 15  1  0  0  0
 14 61  1  0  0  0
 15 16  2  0  0  0
 15 17  1  0  0  0
 16 62  1  0  0  0
 17 18  2  0  0  0
 17 19  1  0  0  0
 19 20  1  0  0  0
 19 63  1  0  0  0
 20 40  1  0  0  0
 20 21  1  0  0  0
 20 22  1  0  0  0
 21 64  1  0  0  0
 21 65  1  0  0  0
 22 41  1  0  0  0
 22 23  1  0  0  0
 22 35  1  0  0  0
 23 24  1  0  0  0
 23 66  1  0  0  0
 23 67  1  0  0  0
 24 25  1  0  0  0
 24 68  1  0  0  0
 24 88  1  0  0  0
 25 26  1  0  0  0
 25 69  1  0  0  0
 25 70  1  0  0  0
 26 31  1  0  0  0
 26 27  2  0  0  0
 27 28  1  0  0  0
 27 71  1  0  0  0
 28 29  2  0  0  0
 28 72  1  0  0  0
 29 30  1  0  0  0
 29 73  1  0  0  0
 30 31  2  0  0  0
 30 32  1  0  0  0
 31 74  1  0  0  0
 32 33  1  0  0  0
 32 34  1  0  0  0
 32 75  1  0  0  0
 33 76  1  0  0  0
 33 77  1  0  0  0
 33 78  1  0  0  0
 34 79  1  0  0  0
 34 80  1  0  0  0
 34 81  1  0  0  0
 35 82  1  0  0  0
 36 37  1  0  0  0
 36 83  1  0  0  0
 36 84  1  0  0  0
 37 38  1  0  0  0
 38 85  1  0  0  0
 38 86  1  0  0  0
 38 87  1  0  0  0
M  CHG  1  24   1
M  END
> <s_m_source_file>
BACE_9.smi

> <i_m_source_file_index>
1

> <i_lp_mmshare_version>
42013

> <i_f3d_flags>
0

> <s_epik_input>
W05IXTFbQ0gyXVtDSDJdW0NIMl1bQ0gyXVtDSDJdW0NIMl1bQ0gyXVtDQEBIXShbQ0gzXSlbQ0gyXVtDQEhdKFtOSF1DKD1PKWMoW2NIXTIpW2NIXWMoW2NIXWMxMilbQ0gyXU9bQ0gzXSlbQ0BIXShbT0hdKVtDSDJdW05IXVtDSDJdYzNbY0hdW2NIXVtjSF1jKFtjSF0zKVtDSF0oW0NIM10pW0NIM10=

> <s_epik_cmdline>
J2VwaWtfcHl0aG9uJywgJy1waCcsICc3LjAnLCAnLXRuJywgJzgnLCAnLW1hJywgJzIwMCcsICctaW1hZScsICc8aW5maWxlLm1hZT4nLCAnLW9tYWUnLCAnPG91dGZpbGUubWFlPic=

> <r_epik_Ionization_Penalty>
  0.0171

> <r_epik_Ionization_Penalty_Charging>
  0.0165

> <r_epik_Ionization_Penalty_Neutral>
  0.0006

> <r_epik_State_Penalty>
  0.0130

> <r_epik_Charging_Adjusted_Penalty>
0.0295552

> <i_epik_Tot_Q>
1

> <i_epik_Tot_abs_Q>
1

> <s_lp_Force_Field>
OPLS_2005

> <r_lp_Energy>
38.0252

> <b_lp_Chiralities_Consistent>
1

> <s_lp_Variant>
BACE_9.smi:1-1

> <chiral flag>
1

> <version>
0

> <r_i_glide_lipo>
-0.710728

> <r_i_glide_hbond>
-0.0540132

> <r_i_glide_metal>
-0

> <r_i_glide_rewards>
-0.0401973

> <r_i_glide_erotb>
0.448381

> <r_i_glide_esite>
-0.0114061

> <chiral flag>
1

> <s_i_glide_gridfile>
second_dock_grid_2

> <i_i_glide_lignum>
18

> <i_i_glide_rotatable_bonds>
9

> <r_i_docking_score>
-0.865395

> <r_i_glide_ligand_efficiency>
-0.0227736

> <r_i_glide_ligand_efficiency_sa>
-0.0765641

> <r_i_glide_ligand_efficiency_ln>
-0.186605

> <r_glide_XP_GScore>
-0.878395

> <r_i_glide_gscore>
-0.878395

> <r_i_glide_evdw>
-36.5819

> <r_i_glide_ecoul>
-6.73297

> <r_i_glide_energy>
-43.3149

> <r_i_glide_einternal>
4.69155

> <r_i_glide_emodel>
-60.2593

> <r_glide_XP_HBond>
-0.7

> <i_i_glide_confnum>
1

> <i_i_glide_posenum>
44

> <r_i_glide_eff_state_penalty>
0.013

> <i_glide_XP_PoseRank>
7

$$$$
BACE_9.smi:1
                    3D
 Structure written by MMmdl.
 88 90  0  0  1  0            999 V2000
   24.3052   43.7489  -12.5998 C   0  0  0  0  0  0
   23.4882   43.9570  -11.3160 C   0  0  2  0  0  0
   22.5091   45.1359  -11.5120 C   0  0  0  0  0  0
   21.5043   45.3324  -10.3664 C   0  0  0  0  0  0
   20.4423   46.3984  -10.6861 C   0  0  0  0  0  0
   19.5659   46.7628   -9.4771 C   0  0  0  0  0  0
   18.5478   45.6720   -9.0927 C   0  0  0  0  0  0
   17.8885   45.9036   -7.7179 C   0  0  0  0  0  0
   18.6020   45.1773   -6.5652 C   0  0  0  0  0  0
   19.9639   45.6498   -6.3657 N   0  0  0  0  0  0
   20.9164   44.7305   -5.9075 C   0  0  0  0  0  0
   20.5916   43.6946   -5.0061 C   0  0  0  0  0  0
   21.5835   42.8068   -4.5448 C   0  0  0  0  0  0
   22.9105   42.9435   -4.9985 C   0  0  0  0  0  0
   23.2408   43.9487   -5.9328 C   0  0  0  0  0  0
   22.2447   44.8532   -6.3624 C   0  0  0  0  0  0
   24.6506   44.0852   -6.4253 C   0  0  0  0  0  0
   25.5663   44.3054   -5.6407 O   0  0  0  0  0  0
   24.8917   43.9426   -7.7383 N   0  0  0  0  0  0
   24.0202   43.4297   -8.7986 C   0  0  1  0  0  0
   24.4432   44.1413  -10.1086 C   0  0  0  0  0  0
   24.0866   41.8654   -8.7970 C   0  0  1  0  0  0
   22.7264   41.2143   -8.4673 C   0  0  0  0  0  0
   22.8601   39.7478   -8.3306 N   0  3  0  0  0  0
   21.7273   39.0439   -7.6881 C   0  0  0  0  0  0
   20.4132   39.1426   -8.4493 C   0  0  0  0  0  0
   20.3665   38.9712   -9.8515 C   0  0  0  0  0  0
   19.1357   39.0487  -10.5298 C   0  0  0  0  0  0
   17.9446   39.2680   -9.8130 C   0  0  0  0  0  0
   17.9722   39.4030   -8.4068 C   0  0  0  0  0  0
   19.2135   39.3583   -7.7366 C   0  0  0  0  0  0
   16.6856   39.5860   -7.6030 C   0  0  0  0  0  0
   15.5671   38.6210   -8.0391 C   0  0  0  0  0  0
   16.2100   41.0475   -7.6300 C   0  0  0  0  0  0
   24.5458   41.3492  -10.0345 O   0  0  0  0  0  0
   21.1988   41.7223   -3.5621 C   0  0  0  0  0  0
   20.8829   42.2791   -2.2983 O   0  0  0  0  0  0
   20.0380   41.4469   -1.5275 C   0  0  0  0  0  0
   22.8975   43.0514  -11.1718 H   0  0  0  0  0  0
   22.9945   43.7301   -8.5984 H   0  0  0  0  0  0
   24.8057   41.5384   -8.0452 H   0  0  0  0  0  0
   24.8753   44.6414  -12.8632 H   0  0  0  0  0  0
   23.6600   43.4980  -13.4407 H   0  0  0  0  0  0
   25.0087   42.9236  -12.4821 H   0  0  0  0  0  0
   23.0694   46.0601  -11.6626 H   0  0  0  0  0  0
   21.9547   44.9769  -12.4371 H   0  0  0  0  0  0
   21.0193   44.3824  -10.1424 H   0  0  0  0  0  0
   22.0435   45.6285   -9.4667 H   0  0  0  0  0  0
   20.9500   47.3025  -11.0253 H   0  0  0  0  0  0
   19.8188   46.0694  -11.5178 H   0  0  0  0  0  0
   20.2159   47.0092   -8.6398 H   0  0  0  0  0  0
   19.0182   47.6797   -9.7013 H   0  0  0  0  0  0
   17.7722   45.6445   -9.8594 H   0  0  0  0  0  0
   19.0067   44.6841   -9.1057 H   0  0  0  0  0  0
   17.7993   46.9700   -7.5058 H   0  0  0  0  0  0
   16.8677   45.5211   -7.7571 H   0  0  0  0  0  0
   18.0597   45.3504   -5.6401 H   0  0  0  0  0  0
   18.5874   44.1007   -6.7517 H   0  0  0  0  0  0
   20.2906   46.3258   -7.0408 H   0  0  0  0  0  0
   19.5853   43.5785   -4.6336 H   0  0  0  0  0  0
   23.6735   42.2711   -4.6337 H   0  0  0  0  0  0
   22.5047   45.6435   -7.0524 H   0  0  0  0  0  0
   25.8516   44.0978   -8.0098 H   0  0  0  0  0  0
   25.4480   43.8010  -10.3698 H   0  0  0  0  0  0
   24.5607   45.2101   -9.9231 H   0  0  0  0  0  0
   22.3517   41.6180   -7.5272 H   0  0  0  0  0  0
   21.9886   41.4542   -9.2350 H   0  0  0  0  0  0
   23.0243   39.3482   -9.2439 H   0  0  0  0  0  0
   21.9845   37.9892   -7.5961 H   0  0  0  0  0  0
   21.6036   39.4261   -6.6729 H   0  0  0  0  0  0
   21.2661   38.7830  -10.4167 H   0  0  0  0  0  0
   19.0990   38.9275  -11.6047 H   0  0  0  0  0  0
   17.0069   39.3123  -10.3472 H   0  0  0  0  0  0
   19.2374   39.4668   -6.6611 H   0  0  0  0  0  0
   16.9130   39.3371   -6.5647 H   0  0  0  0  0  0
   15.9192   37.5864   -8.0403 H   0  0  0  0  0  0
   15.1945   38.8496   -9.0371 H   0  0  0  0  0  0
   14.7194   38.6755   -7.3534 H   0  0  0  0  0  0
   16.9787   41.7185   -7.2422 H   0  0  0  0  0  0
   15.3215   41.1790   -7.0092 H   0  0  0  0  0  0
   15.9612   41.3686   -8.6416 H   0  0  0  0  0  0
   24.8790   40.4667   -9.9328 H   0  0  0  0  0  0
   20.3415   41.1891   -3.9814 H   0  0  0  0  0  0
   22.0038   40.9940   -3.4509 H   0  0  0  0  0  0
   19.8781   41.8847   -0.5428 H   0  0  0  0  0  0
   20.4590   40.4500   -1.3939 H   0  0  0  0  0  0
   19.0678   41.3498   -2.0124 H   0  0  0  0  0  0
   23.6791   39.5629   -7.7721 H   0  0  0  0  0  0
  1  2  1  0  0  0
  1 42  1  0  0  0
  1 43  1  0  0  0
  1 44  1  0  0  0
  2 39  1  0  0  0
  2 21  1  0  0  0
  2  3  1  0  0  0
  3  4  1  0  0  0
  3 45  1  0  0  0
  3 46  1  0  0  0
  4  5  1  0  0  0
  4 47  1  0  0  0
  4 48  1  0  0  0
  5  6  1  0  0  0
  5 49  1  0  0  0
  5 50  1  0  0  0
  6  7  1  0  0  0
  6 51  1  0  0  0
  6 52  1  0  0  0
  7  8  1  0  0  0
  7 53  1  0  0  0
  7 54  1  0  0  0
  8  9  1  0  0  0
  8 55  1  0  0  0
  8 56  1  0  0  0
  9 10  1  0  0  0
  9 57  1  0  0  0
  9 58  1  0  0  0
 10 11  1  0  0  0
 10 59  1  0  0  0
 11 16  1  0  0  0
 11 12  2  0  0  0
 12 13  1  0  0  0
 12 60  1  0  0  0
 13 14  2  0  0  0
 13 36  1  0  0  0
 14 15  1  0  0  0
 14 61  1  0  0  0
 15 16  2  0  0  0
 15 17  1  0  0  0
 16 62  1  0  0  0
 17 18  2  0  0  0
 17 19  1  0  0  0
 19 20  1  0  0  0
 19 63  1  0  0  0
 20 40  1  0  0  0
 20 21  1  0  0  0
 20 22  1  0  0  0
 21 64  1  0  0  0
 21 65  1  0  0  0
 22 41  1  0  0  0
 22 23  1  0  0  0
 22 35  1  0  0  0
 23 24  1  0  0  0
 23 66  1  0  0  0
 23 67  1  0  0  0
 24 25  1  0  0  0
 24 68  1  0  0  0
 24 88  1  0  0  0
 25 26  1  0  0  0
 25 69  1  0  0  0
 25 70  1  0  0  0
 26 31  1  0  0  0
 26 27  2  0  0  0
 27 28  1  0  0  0
 27 71  1  0  0  0
 28 29  2  0  0  0
 28 72  1  0  0  0
 29 30  1  0  0  0
 29 73  1  0  0  0
 30 31  2  0  0  0
 30 32  1  0  0  0
 31 74  1  0  0  0
 32 33  1  0  0  0
 32 34  1  0  0  0
 32 75  1  0  0  0
 33 76  1  0  0  0
 33 77  1  0  0  0
 33 78  1  0  0  0
 34 79  1  0  0  0
 34 80  1  0  0  0
 34 81  1  0  0  0
 35 82  1  0  0  0
 36 37  1  0  0  0
 36 83  1  0  0  0
 36 84  1  0  0  0
 37 38  1  0  0  0
 38 85  1  0  0  0
 38 86  1  0  0  0
 38 87  1  0  0  0
M  CHG  1  24   1
M  END
> <s_m_source_file>
BACE_9.smi

> <i_m_source_file_index>
1

> <i_lp_mmshare_version>
42013

> <i_f3d_flags>
0

> <s_epik_input>
W05IXTFbQ0gyXVtDSDJdW0NIMl1bQ0gyXVtDSDJdW0NIMl1bQ0gyXVtDQEBIXShbQ0gzXSlbQ0gyXVtDQEhdKFtOSF1DKD1PKWMoW2NIXTIpW2NIXWMoW2NIXWMxMilbQ0gyXU9bQ0gzXSlbQ0BIXShbT0hdKVtDSDJdW05IXVtDSDJdYzNbY0hdW2NIXVtjSF1jKFtjSF0zKVtDSF0oW0NIM10pW0NIM10=

> <s_epik_cmdline>
J2VwaWtfcHl0aG9uJywgJy1waCcsICc3LjAnLCAnLXRuJywgJzgnLCAnLW1hJywgJzIwMCcsICctaW1hZScsICc8aW5maWxlLm1hZT4nLCAnLW9tYWUnLCAnPG91dGZpbGUubWFlPic=

> <r_epik_Ionization_Penalty>
  0.0171

> <r_epik_Ionization_Penalty_Charging>
  0.0165

> <r_epik_Ionization_Penalty_Neutral>
  0.0006

> <r_epik_State_Penalty>
  0.0130

> <r_epik_Charging_Adjusted_Penalty>
0.0295552

> <i_epik_Tot_Q>
1

> <i_epik_Tot_abs_Q>
1

> <s_lp_Force_Field>
OPLS_2005

> <r_lp_Energy>
38.0252

> <b_lp_Chiralities_Consistent>
1

> <s_lp_Variant>
BACE_9.smi:1-1

> <chiral flag>
1

> <version>
0

> <r_i_glide_lipo>
-0.710728

> <r_i_glide_hbond>
-0.0540132

> <r_i_glide_metal>
-0

> <r_i_glide_rewards>
-0.0401973

> <r_i_glide_erotb>
0.448381

> <r_i_glide_esite>
-0.0114061

> <chiral flag>
1

> <s_i_glide_gridfile>
second_dock_grid_2

> <i_i_glide_lignum>
18

> <i_i_glide_rotatable_bonds>
9

> <r_i_docking_score>
-0.3509

> <r_i_glide_ligand_efficiency>
-0.00923421

> <r_i_glide_ligand_efficiency_sa>
-0.0310452

> <r_i_glide_ligand_efficiency_ln>
-0.0756643

> <r_glide_XP_GScore>
-0.3639

> <r_i_glide_gscore>
-0.3639

> <r_i_glide_evdw>
-42.1909

> <r_i_glide_ecoul>
-5.29197

> <r_i_glide_energy>
-47.4829

> <r_i_glide_einternal>
4.75721

> <r_i_glide_emodel>
-61.6523

> <r_glide_XP_HBond>
-0.7

> <i_i_glide_confnum>
1

> <i_i_glide_posenum>
45

> <r_i_glide_eff_state_penalty>
0.013

> <i_glide_XP_PoseRank>
8

$$$$
BACE_9.smi:1
                    3D
 Structure written by MMmdl.
 88 90  0  0  1  0            999 V2000
   20.7001   43.0071   -6.6159 C   0  0  0  0  0  0
   22.1253   43.4050   -7.0363 C   0  0  2  0  0  0
   22.5867   44.6597   -6.2623 C   0  0  0  0  0  0
   24.0724   44.9991   -6.4626 C   0  0  0  0  0  0
   24.5613   46.1184   -5.5273 C   0  0  0  0  0  0
   25.9879   46.5942   -5.8470 C   0  0  0  0  0  0
   27.0910   45.5943   -5.4460 C   0  0  0  0  0  0
   28.4701   45.9266   -6.0504 C   0  0  0  0  0  0
   28.7519   45.2186   -7.3859 C   0  0  0  0  0  0
   27.8265   45.6174   -8.4344 N   0  0  0  0  0  0
   27.5373   44.6816   -9.4328 C   0  0  0  0  0  0
   28.5097   43.7740   -9.9036 C   0  0  0  0  0  0
   28.1891   42.8373  -10.9026 C   0  0  0  0  0  0
   26.8755   42.7857  -11.4188 C   0  0  0  0  0  0
   25.8883   43.6763  -10.9415 C   0  0  0  0  0  0
   26.2362   44.6411   -9.9700 C   0  0  0  0  0  0
   24.4959   43.6308  -11.5024 C   0  0  0  0  0  0
   24.3091   43.7988  -12.7089 O   0  0  0  0  0  0
   23.4674   43.4099  -10.6657 N   0  0  0  0  0  0
   23.4653   42.9407   -9.2708 C   0  0  1  0  0  0
   22.2182   43.5613   -8.5782 C   0  0  0  0  0  0
   23.5412   41.3831   -9.2857 C   0  0  1  0  0  0
   22.4790   40.6514  -10.1475 C   0  0  0  0  0  0
   22.4335   39.2104   -9.8107 N   0  3  0  0  0  0
   21.2931   38.7518   -8.9932 C   0  0  0  0  0  0
   19.9691   39.2996   -9.4932 C   0  0  0  0  0  0
   19.9225   40.0200  -10.7048 C   0  0  0  0  0  0
   18.6950   40.5014  -11.1961 C   0  0  0  0  0  0
   17.5120   40.2768  -10.4679 C   0  0  0  0  0  0
   17.5480   39.5668   -9.2478 C   0  0  0  0  0  0
   18.7818   39.0724   -8.7694 C   0  0  0  0  0  0
   16.2678   39.3456   -8.4572 C   0  0  0  0  0  0
   16.4359   39.7849   -6.9942 C   0  0  0  0  0  0
   15.7741   37.8942   -8.5555 C   0  0  0  0  0  0
   24.8393   40.9715   -9.6766 O   0  0  0  0  0  0
   29.2531   41.8685  -11.3772 C   0  0  0  0  0  0
   30.1556   42.4754  -12.2952 O   0  0  0  0  0  0
   29.5666   42.6928  -13.5657 C   0  0  0  0  0  0
   22.7687   42.6027   -6.7080 H   0  0  0  0  0  0
   24.3501   43.3201   -8.7634 H   0  0  0  0  0  0
   23.3916   41.0293   -8.2650 H   0  0  0  0  0  0
   19.9747   43.7762   -6.8773 H   0  0  0  0  0  0
   20.6389   42.8431   -5.5391 H   0  0  0  0  0  0
   20.3910   42.0773   -7.0964 H   0  0  0  0  0  0
   21.9713   45.5176   -6.5332 H   0  0  0  0  0  0
   22.4143   44.4918   -5.1970 H   0  0  0  0  0  0
   24.6716   44.1040   -6.3038 H   0  0  0  0  0  0
   24.2317   45.3055   -7.4953 H   0  0  0  0  0  0
   23.8884   46.9714   -5.6190 H   0  0  0  0  0  0
   24.5000   45.7982   -4.4862 H   0  0  0  0  0  0
   26.0446   46.8394   -6.9059 H   0  0  0  0  0  0
   26.1734   47.5339   -5.3231 H   0  0  0  0  0  0
   27.1690   45.5979   -4.3588 H   0  0  0  0  0  0
   26.8186   44.5752   -5.7153 H   0  0  0  0  0  0
   28.5973   47.0062   -6.1504 H   0  0  0  0  0  0
   29.2377   45.6047   -5.3452 H   0  0  0  0  0  0
   29.7663   45.4453   -7.7150 H   0  0  0  0  0  0
   28.6984   44.1397   -7.2392 H   0  0  0  0  0  0
   27.0766   46.2307   -8.1499 H   0  0  0  0  0  0
   29.5144   43.7905   -9.5070 H   0  0  0  0  0  0
   26.6247   42.0589  -12.1762 H   0  0  0  0  0  0
   25.4925   45.3449   -9.6209 H   0  0  0  0  0  0
   22.5597   43.4094  -11.1084 H   0  0  0  0  0  0
   21.3195   43.1566   -9.0478 H   0  0  0  0  0  0
   22.1826   44.6250   -8.8135 H   0  0  0  0  0  0
   21.5012   41.1040   -9.9626 H   0  0  0  0  0  0
   22.6714   40.7180  -11.2144 H   0  0  0  0  0  0
   22.4774   38.6732  -10.6607 H   0  0  0  0  0  0
   21.2668   37.6635   -9.0369 H   0  0  0  0  0  0
   21.4360   39.0074   -7.9467 H   0  0  0  0  0  0
   20.8252   40.1991  -11.2670 H   0  0  0  0  0  0
   18.6559   41.0407  -12.1317 H   0  0  0  0  0  0
   16.5753   40.6533  -10.8511 H   0  0  0  0  0  0
   18.8144   38.5211   -7.8412 H   0  0  0  0  0  0
   15.4948   39.9756   -8.9017 H   0  0  0  0  0  0
   16.7344   40.8322   -6.9330 H   0  0  0  0  0  0
   17.1935   39.1912   -6.4797 H   0  0  0  0  0  0
   15.5007   39.6776   -6.4446 H   0  0  0  0  0  0
   15.6822   37.5861   -9.5979 H   0  0  0  0  0  0
   14.7952   37.7853   -8.0875 H   0  0  0  0  0  0
   16.4537   37.1993   -8.0601 H   0  0  0  0  0  0
   24.8975   40.0261   -9.6464 H   0  0  0  0  0  0
   29.7992   41.5126  -10.5006 H   0  0  0  0  0  0
   28.7815   41.0013  -11.8382 H   0  0  0  0  0  0
   30.2891   43.1577  -14.2374 H   0  0  0  0  0  0
   28.7019   43.3543  -13.4935 H   0  0  0  0  0  0
   29.2513   41.7510  -14.0113 H   0  0  0  0  0  0
   23.2869   39.0057   -9.2909 H   0  0  0  0  0  0
  1  2  1  0  0  0
  1 42  1  0  0  0
  1 43  1  0  0  0
  1 44  1  0  0  0
  2 39  1  0  0  0
  2 21  1  0  0  0
  2  3  1  0  0  0
  3  4  1  0  0  0
  3 45  1  0  0  0
  3 46  1  0  0  0
  4  5  1  0  0  0
  4 47  1  0  0  0
  4 48  1  0  0  0
  5  6  1  0  0  0
  5 49  1  0  0  0
  5 50  1  0  0  0
  6  7  1  0  0  0
  6 51  1  0  0  0
  6 52  1  0  0  0
  7  8  1  0  0  0
  7 53  1  0  0  0
  7 54  1  0  0  0
  8  9  1  0  0  0
  8 55  1  0  0  0
  8 56  1  0  0  0
  9 10  1  0  0  0
  9 57  1  0  0  0
  9 58  1  0  0  0
 10 11  1  0  0  0
 10 59  1  0  0  0
 11 16  1  0  0  0
 11 12  2  0  0  0
 12 13  1  0  0  0
 12 60  1  0  0  0
 13 14  2  0  0  0
 13 36  1  0  0  0
 14 15  1  0  0  0
 14 61  1  0  0  0
 15 16  2  0  0  0
 15 17  1  0  0  0
 16 62  1  0  0  0
 17 18  2  0  0  0
 17 19  1  0  0  0
 19 20  1  0  0  0
 19 63  1  0  0  0
 20 40  1  0  0  0
 20 21  1  0  0  0
 20 22  1  0  0  0
 21 64  1  0  0  0
 21 65  1  0  0  0
 22 41  1  0  0  0
 22 23  1  0  0  0
 22 35  1  0  0  0
 23 24  1  0  0  0
 23 66  1  0  0  0
 23 67  1  0  0  0
 24 25  1  0  0  0
 24 68  1  0  0  0
 24 88  1  0  0  0
 25 26  1  0  0  0
 25 69  1  0  0  0
 25 70  1  0  0  0
 26 31  1  0  0  0
 26 27  2  0  0  0
 27 28  1  0  0  0
 27 71  1  0  0  0
 28 29  2  0  0  0
 28 72  1  0  0  0
 29 30  1  0  0  0
 29 73  1  0  0  0
 30 31  2  0  0  0
 30 32  1  0  0  0
 31 74  1  0  0  0
 32 33  1  0  0  0
 32 34  1  0  0  0
 32 75  1  0  0  0
 33 76  1  0  0  0
 33 77  1  0  0  0
 33 78  1  0  0  0
 34 79  1  0  0  0
 34 80  1  0  0  0
 34 81  1  0  0  0
 35 82  1  0  0  0
 36 37  1  0  0  0
 36 83  1  0  0  0
 36 84  1  0  0  0
 37 38  1  0  0  0
 38 85  1  0  0  0
 38 86  1  0  0  0
 38 87  1  0  0  0
M  CHG  1  24   1
M  END
> <s_m_source_file>
BACE_9.smi

> <i_m_source_file_index>
1

> <i_lp_mmshare_version>
42013

> <i_f3d_flags>
0

> <s_epik_input>
W05IXTFbQ0gyXVtDSDJdW0NIMl1bQ0gyXVtDSDJdW0NIMl1bQ0gyXVtDQEBIXShbQ0gzXSlbQ0gyXVtDQEhdKFtOSF1DKD1PKWMoW2NIXTIpW2NIXWMoW2NIXWMxMilbQ0gyXU9bQ0gzXSlbQ0BIXShbT0hdKVtDSDJdW05IXVtDSDJdYzNbY0hdW2NIXVtjSF1jKFtjSF0zKVtDSF0oW0NIM10pW0NIM10=

> <s_epik_cmdline>
J2VwaWtfcHl0aG9uJywgJy1waCcsICc3LjAnLCAnLXRuJywgJzgnLCAnLW1hJywgJzIwMCcsICctaW1hZScsICc8aW5maWxlLm1hZT4nLCAnLW9tYWUnLCAnPG91dGZpbGUubWFlPic=

> <r_epik_Ionization_Penalty>
  0.0171

> <r_epik_Ionization_Penalty_Charging>
  0.0165

> <r_epik_Ionization_Penalty_Neutral>
  0.0006

> <r_epik_State_Penalty>
  0.0130

> <r_epik_Charging_Adjusted_Penalty>
0.0295552

> <i_epik_Tot_Q>
1

> <i_epik_Tot_abs_Q>
1

> <s_lp_Force_Field>
OPLS_2005

> <r_lp_Energy>
38.0252

> <b_lp_Chiralities_Consistent>
1

> <s_lp_Variant>
BACE_9.smi:1-1

> <chiral flag>
1

> <version>
0

> <r_i_glide_lipo>
-0.710728

> <r_i_glide_hbond>
-0.0540132

> <r_i_glide_metal>
-0

> <r_i_glide_rewards>
-0.0401973

> <r_i_glide_erotb>
0.448381

> <r_i_glide_esite>
-0.0114061

> <chiral flag>
1

> <s_i_glide_gridfile>
second_dock_grid_2

> <i_i_glide_lignum>
18

> <i_i_glide_rotatable_bonds>
9

> <r_i_docking_score>
0.0990213

> <r_i_glide_ligand_efficiency>
0.00260582

> <r_i_glide_ligand_efficiency_sa>
0.00876071

> <r_i_glide_ligand_efficiency_ln>
0.0213519

> <r_glide_XP_GScore>
0.0860213

> <r_i_glide_gscore>
0.0860213

> <r_i_glide_evdw>
-34.9484

> <r_i_glide_ecoul>
-9.00506

> <r_i_glide_energy>
-43.9535

> <r_i_glide_einternal>
3.44917

> <r_i_glide_emodel>
-62.0015

> <r_glide_XP_HBond>
-0.7

> <i_i_glide_confnum>
1

> <i_i_glide_posenum>
41

> <r_i_glide_eff_state_penalty>
0.013

> <i_glide_XP_PoseRank>
9

$$$$
BACE_9.smi:1
                    3D
 Structure written by MMmdl.
 88 90  0  0  1  0            999 V2000
   20.5568   42.5947   -6.1708 C   0  0  0  0  0  0
   21.9008   43.1096   -6.7175 C   0  0  2  0  0  0
   22.3169   44.4017   -5.9818 C   0  0  0  0  0  0
   23.7238   44.9047   -6.3432 C   0  0  0  0  0  0
   24.1749   46.0920   -5.4821 C   0  0  0  0  0  0
   25.5829   46.6010   -5.8395 C   0  0  0  0  0  0
   26.7247   45.6751   -5.3657 C   0  0  0  0  0  0
   28.0989   46.0017   -5.9864 C   0  0  0  0  0  0
   28.3963   45.2213   -7.2798 C   0  0  0  0  0  0
   27.4875   45.5938   -8.3532 N   0  0  0  0  0  0
   27.1554   44.6227   -9.3042 C   0  0  0  0  0  0
   28.1016   43.6980   -9.7972 C   0  0  0  0  0  0
   27.7296   42.7582  -10.7802 C   0  0  0  0  0  0
   26.4015   42.7263  -11.2552 C   0  0  0  0  0  0
   25.4430   43.6239  -10.7418 C   0  0  0  0  0  0
   25.8322   44.5848   -9.7849 C   0  0  0  0  0  0
   24.0340   43.5892  -11.2525 C   0  0  0  0  0  0
   23.8082   43.7648  -12.4461 O   0  0  0  0  0  0
   23.0310   43.3852  -10.3805 N   0  0  0  0  0  0
   23.0920   42.8198   -9.0264 C   0  0  1  0  0  0
   21.8344   43.2882   -8.2566 C   0  0  0  0  0  0
   23.1948   41.2680   -9.0784 C   0  0  1  0  0  0
   22.3427   40.6136  -10.1897 C   0  0  0  0  0  0
   22.0596   39.1715   -9.9754 N   0  3  0  0  0  0
   20.9778   38.8358   -9.0211 C   0  0  0  0  0  0
   19.5567   39.1680   -9.4833 C   0  0  0  0  0  0
   19.2703   39.7820  -10.7258 C   0  0  0  0  0  0
   17.9554   40.1463  -11.0524 C   0  0  0  0  0  0
   16.8944   39.8331  -10.1836 C   0  0  0  0  0  0
   17.1488   39.1520   -8.9739 C   0  0  0  0  0  0
   18.4823   38.8407   -8.6275 C   0  0  0  0  0  0
   16.0212   38.7345   -8.0314 C   0  0  0  0  0  0
   14.6612   38.5459   -8.7226 C   0  0  0  0  0  0
   15.8998   39.6967   -6.8436 C   0  0  0  0  0  0
   24.5589   40.9503   -9.2546 O   0  0  0  0  0  0
   28.7586   41.7771  -11.3115 C   0  0  0  0  0  0
   29.7329   42.3845  -12.1467 O   0  0  0  0  0  0
   29.2447   42.6931  -13.4421 C   0  0  0  0  0  0
   22.6410   42.3468   -6.4738 H   0  0  0  0  0  0
   23.9601   43.2113   -8.5004 H   0  0  0  0  0  0
   22.9072   40.8549   -8.1109 H   0  0  0  0  0  0
   19.7475   43.2992   -6.3713 H   0  0  0  0  0  0
   20.5977   42.4425   -5.0924 H   0  0  0  0  0  0
   20.2837   41.6418   -6.6217 H   0  0  0  0  0  0
   21.5874   45.1909   -6.1721 H   0  0  0  0  0  0
   22.2829   44.2183   -4.9074 H   0  0  0  0  0  0
   24.4293   44.0803   -6.2375 H   0  0  0  0  0  0
   23.7459   45.2059   -7.3904 H   0  0  0  0  0  0
   23.4642   46.9082   -5.6129 H   0  0  0  0  0  0
   24.1346   45.8237   -4.4273 H   0  0  0  0  0  0
   25.6257   46.7650   -6.9135 H   0  0  0  0  0  0
   25.7291   47.5845   -5.3887 H   0  0  0  0  0  0
   26.8024   45.7604   -4.2810 H   0  0  0  0  0  0
   26.4876   44.6280   -5.5543 H   0  0  0  0  0  0
   28.2028   47.0745   -6.1477 H   0  0  0  0  0  0
   28.8704   45.7377   -5.2617 H   0  0  0  0  0  0
   29.4162   45.4282   -7.6056 H   0  0  0  0  0  0
   28.3353   44.1501   -7.0824 H   0  0  0  0  0  0
   26.7480   46.2240   -8.0852 H   0  0  0  0  0  0
   29.1229   43.7165   -9.4430 H   0  0  0  0  0  0
   26.1144   42.0062  -12.0073 H   0  0  0  0  0  0
   25.1080   45.2952   -9.4172 H   0  0  0  0  0  0
   22.1064   43.4875  -10.7691 H   0  0  0  0  0  0
   20.9672   42.7550   -8.6510 H   0  0  0  0  0  0
   21.6332   44.3367   -8.4753 H   0  0  0  0  0  0
   21.4074   41.1616  -10.2700 H   0  0  0  0  0  0
   22.8365   40.7269  -11.1565 H   0  0  0  0  0  0
   21.8033   38.7700  -10.8647 H   0  0  0  0  0  0
   21.0199   37.7614   -8.8430 H   0  0  0  0  0  0
   21.1628   39.3129   -8.0577 H   0  0  0  0  0  0
   20.0372   40.0021  -11.4490 H   0  0  0  0  0  0
   17.7511   40.6341  -11.9944 H   0  0  0  0  0  0
   15.8910   40.1015  -10.4753 H   0  0  0  0  0  0
   18.6744   38.3432   -7.6884 H   0  0  0  0  0  0
   16.2972   37.7534   -7.6406 H   0  0  0  0  0  0
   14.7296   37.8388   -9.5496 H   0  0  0  0  0  0
   14.2533   39.4830   -9.1017 H   0  0  0  0  0  0
   13.9379   38.1519   -8.0132 H   0  0  0  0  0  0
   16.8411   39.7483   -6.3009 H   0  0  0  0  0  0
   15.1378   39.3594   -6.1379 H   0  0  0  0  0  0
   15.6367   40.7076   -7.1586 H   0  0  0  0  0  0
   24.6810   40.0115   -9.3422 H   0  0  0  0  0  0
   29.2864   41.3498  -10.4614 H   0  0  0  0  0  0
   28.2706   40.9486  -11.8280 H   0  0  0  0  0  0
   30.0426   43.1280  -14.0413 H   0  0  0  0  0  0
   28.4316   43.4177  -13.3991 H   0  0  0  0  0  0
   28.8891   41.7982  -13.9550 H   0  0  0  0  0  0
   22.9266   38.7337   -9.6730 H   0  0  0  0  0  0
  1  2  1  0  0  0
  1 42  1  0  0  0
  1 43  1  0  0  0
  1 44  1  0  0  0
  2 39  1  0  0  0
  2 21  1  0  0  0
  2  3  1  0  0  0
  3  4  1  0  0  0
  3 45  1  0  0  0
  3 46  1  0  0  0
  4  5  1  0  0  0
  4 47  1  0  0  0
  4 48  1  0  0  0
  5  6  1  0  0  0
  5 49  1  0  0  0
  5 50  1  0  0  0
  6  7  1  0  0  0
  6 51  1  0  0  0
  6 52  1  0  0  0
  7  8  1  0  0  0
  7 53  1  0  0  0
  7 54  1  0  0  0
  8  9  1  0  0  0
  8 55  1  0  0  0
  8 56  1  0  0  0
  9 10  1  0  0  0
  9 57  1  0  0  0
  9 58  1  0  0  0
 10 11  1  0  0  0
 10 59  1  0  0  0
 11 16  1  0  0  0
 11 12  2  0  0  0
 12 13  1  0  0  0
 12 60  1  0  0  0
 13 14  2  0  0  0
 13 36  1  0  0  0
 14 15  1  0  0  0
 14 61  1  0  0  0
 15 16  2  0  0  0
 15 17  1  0  0  0
 16 62  1  0  0  0
 17 18  2  0  0  0
 17 19  1  0  0  0
 19 20  1  0  0  0
 19 63  1  0  0  0
 20 40  1  0  0  0
 20 21  1  0  0  0
 20 22  1  0  0  0
 21 64  1  0  0  0
 21 65  1  0  0  0
 22 41  1  0  0  0
 22 23  1  0  0  0
 22 35  1  0  0  0
 23 24  1  0  0  0
 23 66  1  0  0  0
 23 67  1  0  0  0
 24 25  1  0  0  0
 24 68  1  0  0  0
 24 88  1  0  0  0
 25 26  1  0  0  0
 25 69  1  0  0  0
 25 70  1  0  0  0
 26 31  1  0  0  0
 26 27  2  0  0  0
 27 28  1  0  0  0
 27 71  1  0  0  0
 28 29  2  0  0  0
 28 72  1  0  0  0
 29 30  1  0  0  0
 29 73  1  0  0  0
 30 31  2  0  0  0
 30 32  1  0  0  0
 31 74  1  0  0  0
 32 33  1  0  0  0
 32 34  1  0  0  0
 32 75  1  0  0  0
 33 76  1  0  0  0
 33 77  1  0  0  0
 33 78  1  0  0  0
 34 79  1  0  0  0
 34 80  1  0  0  0
 34 81  1  0  0  0
 35 82  1  0  0  0
 36 37  1  0  0  0
 36 83  1  0  0  0
 36 84  1  0  0  0
 37 38  1  0  0  0
 38 85  1  0  0  0
 38 86  1  0  0  0
 38 87  1  0  0  0
M  CHG  1  24   1
M  END
> <s_m_source_file>
BACE_9.smi

> <i_m_source_file_index>
1

> <i_lp_mmshare_version>
42013

> <i_f3d_flags>
0

> <s_epik_input>
W05IXTFbQ0gyXVtDSDJdW0NIMl1bQ0gyXVtDSDJdW0NIMl1bQ0gyXVtDQEBIXShbQ0gzXSlbQ0gyXVtDQEhdKFtOSF1DKD1PKWMoW2NIXTIpW2NIXWMoW2NIXWMxMilbQ0gyXU9bQ0gzXSlbQ0BIXShbT0hdKVtDSDJdW05IXVtDSDJdYzNbY0hdW2NIXVtjSF1jKFtjSF0zKVtDSF0oW0NIM10pW0NIM10=

> <s_epik_cmdline>
J2VwaWtfcHl0aG9uJywgJy1waCcsICc3LjAnLCAnLXRuJywgJzgnLCAnLW1hJywgJzIwMCcsICctaW1hZScsICc8aW5maWxlLm1hZT4nLCAnLW9tYWUnLCAnPG91dGZpbGUubWFlPic=

> <r_epik_Ionization_Penalty>
  0.0171

> <r_epik_Ionization_Penalty_Charging>
  0.0165

> <r_epik_Ionization_Penalty_Neutral>
  0.0006

> <r_epik_State_Penalty>
  0.0130

> <r_epik_Charging_Adjusted_Penalty>
0.0295552

> <i_epik_Tot_Q>
1

> <i_epik_Tot_abs_Q>
1

> <s_lp_Force_Field>
OPLS_2005

> <r_lp_Energy>
38.0252

> <b_lp_Chiralities_Consistent>
1

> <s_lp_Variant>
BACE_9.smi:1-1

> <chiral flag>
1

> <version>
0

> <r_i_glide_lipo>
-0.710728

> <r_i_glide_hbond>
-0.0540132

> <r_i_glide_metal>
-0

> <r_i_glide_rewards>
-0.0401973

> <r_i_glide_erotb>
0.448381

> <r_i_glide_esite>
-0.0114061

> <chiral flag>
1

> <s_i_glide_gridfile>
second_dock_grid_2

> <i_i_glide_lignum>
18

> <i_i_glide_rotatable_bonds>
9

> <r_i_docking_score>
0.598384

> <r_i_glide_ligand_efficiency>
0.015747

> <r_i_glide_ligand_efficiency_sa>
0.0529409

> <r_i_glide_ligand_efficiency_ln>
0.129029

> <r_glide_XP_GScore>
0.585384

> <r_i_glide_gscore>
0.585384

> <r_i_glide_evdw>
-37.6258

> <r_i_glide_ecoul>
-8.78036

> <r_i_glide_energy>
-46.4061

> <r_i_glide_einternal>
4.67519

> <r_i_glide_emodel>
-63.3776

> <r_glide_XP_HBond>
-0.7

> <i_i_glide_confnum>
1

> <i_i_glide_posenum>
24

> <r_i_glide_eff_state_penalty>
0.013

> <i_glide_XP_PoseRank>
10

$$$$
