BACE_19.smi:1
                    3D
 Structure written by MMmdl.
 76 77  0  0  1  0            999 V2000
   21.8138   42.2228   -2.8134 C   0  0  0  0  0  0
   21.6634   41.9946   -4.3209 C   0  0  0  0  0  0
   22.1679   40.6118   -4.7701 C   0  0  0  0  0  0
   21.8364   40.2777   -6.2378 C   0  0  0  0  0  0
   22.7186   40.9349   -7.2005 N   0  0  0  0  0  0
   22.5172   42.1412   -7.7548 C   0  0  0  0  0  0
   21.6018   42.8928   -7.4261 O   0  0  0  0  0  0
   23.4679   42.5457   -8.8901 C   0  0  2  0  0  0
   24.2418   43.8118   -8.4840 C   0  0  0  0  0  0
   22.7210   42.7575  -10.2346 C   0  0  0  0  0  0
   22.2512   41.4649  -10.9499 C   0  0  1  0  0  0
   20.9662   40.7920  -10.4068 C   0  0  2  0  0  0
   20.7267   39.3692  -10.9803 C   0  0  0  0  0  0
   19.5718   38.5337  -10.3711 C   0  0  1  0  0  0
   19.6331   38.4098   -8.8192 C   0  0  0  0  0  0
   18.4505   37.7024   -8.1105 C   0  0  0  0  0  0
   17.1611   38.5019   -8.1606 C   0  0  0  0  0  0
   16.0025   37.9548   -8.7533 C   0  0  0  0  0  0
   14.8724   38.7647   -8.9670 C   0  0  0  0  0  0
   14.9054   40.1190   -8.5928 C   0  0  0  0  0  0
   16.0341   40.6553   -7.9439 C   0  0  0  0  0  0
   17.1486   39.8332   -7.7005 C   0  0  0  0  0  0
   16.0361   42.1049   -7.5005 C   0  0  0  0  0  0
   17.3082   43.1280   -8.3561 S   0  0  0  0  0  0
   17.0304   44.5437   -8.0654 O   0  0  0  0  0  0
   18.6389   42.5807   -8.0584 O   0  0  0  0  0  0
   16.9459   42.8340  -10.1476 C   0  0  0  0  0  0
   18.0716   43.2840  -11.1150 C   0  0  2  0  0  0
   19.0820   42.1670  -11.4258 C   0  0  0  0  0  0
   19.1806   41.7506  -12.5807 O   0  0  0  0  0  0
   19.8157   41.7058  -10.3955 N   0  0  0  0  0  0
   18.7862   44.5975  -10.7482 C   0  0  0  0  0  0
   18.2278   39.0060  -10.9234 C   0  0  0  0  0  0
   22.0600   41.7506  -12.3189 O   0  0  0  0  0  0
   24.2034   41.7510   -9.0280 H   0  0  0  0  0  0
   23.0653   40.7398  -10.8969 H   0  0  0  0  0  0
   21.1590   40.6145   -9.3582 H   0  0  0  0  0  0
   19.6871   37.5252  -10.7661 H   0  0  0  0  0  0
   17.5730   43.4737  -12.0666 H   0  0  0  0  0  0
   21.4038   43.1917   -2.5259 H   0  0  0  0  0  0
   22.8604   42.2057   -2.5143 H   0  0  0  0  0  0
   21.2891   41.4572   -2.2420 H   0  0  0  0  0  0
   20.6103   42.1012   -4.5909 H   0  0  0  0  0  0
   22.2006   42.7818   -4.8523 H   0  0  0  0  0  0
   23.2419   40.5225   -4.5941 H   0  0  0  0  0  0
   21.6955   39.8559   -4.1402 H   0  0  0  0  0  0
   21.9472   39.2029   -6.3891 H   0  0  0  0  0  0
   20.7898   40.5026   -6.4550 H   0  0  0  0  0  0
   23.5022   40.3933   -7.5351 H   0  0  0  0  0  0
   24.7487   43.6786   -7.5274 H   0  0  0  0  0  0
   23.5781   44.6724   -8.3915 H   0  0  0  0  0  0
   25.0036   44.0601   -9.2229 H   0  0  0  0  0  0
   21.8872   43.4496  -10.1098 H   0  0  0  0  0  0
   23.4132   43.2677  -10.9042 H   0  0  0  0  0  0
   20.6059   39.4265  -12.0631 H   0  0  0  0  0  0
   21.6478   38.8051  -10.8328 H   0  0  0  0  0  0
   20.5506   37.8783   -8.5648 H   0  0  0  0  0  0
   19.7392   39.3928   -8.3686 H   0  0  0  0  0  0
   18.2946   36.7109   -8.5328 H   0  0  0  0  0  0
   18.6874   37.5624   -7.0560 H   0  0  0  0  0  0
   15.9961   36.9281   -9.0842 H   0  0  0  0  0  0
   13.9887   38.3588   -9.4372 H   0  0  0  0  0  0
   14.0582   40.7490   -8.7972 H   0  0  0  0  0  0
   18.0196   40.2433   -7.2109 H   0  0  0  0  0  0
   15.0577   42.5591   -7.6429 H   0  0  0  0  0  0
   16.2585   42.1497   -6.4399 H   0  0  0  0  0  0
   16.7273   41.7763  -10.2835 H   0  0  0  0  0  0
   16.0224   43.3663  -10.3687 H   0  0  0  0  0  0
   19.5800   42.0863   -9.4815 H   0  0  0  0  0  0
   19.4798   44.8952  -11.5348 H   0  0  0  0  0  0
   19.3636   44.5126   -9.8274 H   0  0  0  0  0  0
   18.0694   45.4089  -10.6210 H   0  0  0  0  0  0
   17.8512   39.8699  -10.3877 H   0  0  0  0  0  0
   17.4878   38.2161  -10.8400 H   0  0  0  0  0  0
   18.3039   39.2780  -11.9741 H   0  0  0  0  0  0
   22.7825   41.3510  -12.7999 H   0  0  0  0  0  0
  1  2  1  0  0  0
  1 40  1  0  0  0
  1 41  1  0  0  0
  1 42  1  0  0  0
  2  3  1  0  0  0
  2 43  1  0  0  0
  2 44  1  0  0  0
  3  4  1  0  0  0
  3 45  1  0  0  0
  3 46  1  0  0  0
  4  5  1  0  0  0
  4 47  1  0  0  0
  4 48  1  0  0  0
  5  6  1  0  0  0
  5 49  1  0  0  0
  6  7  2  0  0  0
  6  8  1  0  0  0
  8 35  1  0  0  0
  8  9  1  0  0  0
  8 10  1  0  0  0
  9 50  1  0  0  0
  9 51  1  0  0  0
  9 52  1  0  0  0
 10 11  1  0  0  0
 10 53  1  0  0  0
 10 54  1  0  0  0
 11 36  1  0  0  0
 11 12  1  0  0  0
 11 34  1  0  0  0
 12 37  1  0  0  0
 12 31  1  0  0  0
 12 13  1  0  0  0
 13 14  1  0  0  0
 13 55  1  0  0  0
 13 56  1  0  0  0
 14 38  1  0  0  0
 14 15  1  0  0  0
 14 33  1  0  0  0
 15 16  1  0  0  0
 15 57  1  0  0  0
 15 58  1  0  0  0
 16 17  1  0  0  0
 16 59  1  0  0  0
 16 60  1  0  0  0
 17 22  1  0  0  0
 17 18  2  0  0  0
 18 19  1  0  0  0
 18 61  1  0  0  0
 19 20  2  0  0  0
 19 62  1  0  0  0
 20 21  1  0  0  0
 20 63  1  0  0  0
 21 22  2  0  0  0
 21 23  1  0  0  0
 22 64  1  0  0  0
 23 24  1  0  0  0
 23 65  1  0  0  0
 23 66  1  0  0  0
 24 25  2  0  0  0
 24 26  2  0  0  0
 24 27  1  0  0  0
 27 28  1  0  0  0
 27 67  1  0  0  0
 27 68  1  0  0  0
 28 39  1  0  0  0
 28 29  1  0  0  0
 28 32  1  0  0  0
 29 30  2  0  0  0
 29 31  1  0  0  0
 31 69  1  0  0  0
 32 70  1  0  0  0
 32 71  1  0  0  0
 32 72  1  0  0  0
 33 73  1  0  0  0
 33 74  1  0  0  0
 33 75  1  0  0  0
 34 76  1  0  0  0
M  END
> <s_m_source_file>
BACE_19.smi

> <i_m_source_file_index>
1

> <i_lp_mmshare_version>
42013

> <i_f3d_flags>
0

> <s_epik_input>
W0NIM11bQ0gyXVtDSDJdW0NIMl1bTkhdQyg9TylbQ0BIXShbQ0gzXSlbQ0gyXVtDQEhdKFtPSF0pW0NASF0oW0NIMl1bQ0BIXShbQ0gzXSlbQ0gyXVtDSDJdMSlbTkhdQyg9TylbQ0BIXShbQ0gzXSlbQ0gyXVMoPU8pKD1PKVtDSDJdYyhbY0hdMilbY0hdW2NIXVtjSF1jMTI=

> <s_epik_cmdline>
J2VwaWtfcHl0aG9uJywgJy1waCcsICc3LjAnLCAnLXRuJywgJzgnLCAnLW1hJywgJzIwMCcsICctaW1hZScsICc8aW5maWxlLm1hZT4nLCAnLW9tYWUnLCAnPG91dGZpbGUubWFlPic=

> <r_lp_tautomer_probability>
1

> <r_epik_Ionization_Penalty>
  0.0000

> <r_epik_Ionization_Penalty_Charging>
  0.0000

> <r_epik_Ionization_Penalty_Neutral>
  0.0000

> <r_epik_State_Penalty>
 -0.0000

> <r_epik_Charging_Adjusted_Penalty>
0

> <i_epik_Tot_Q>
0

> <i_epik_Tot_abs_Q>
0

> <s_lp_Force_Field>
OPLS_2005

> <r_lp_Energy>
20.3216

> <b_lp_Chiralities_Consistent>
1

> <s_lp_Variant>
BACE_19.smi:1-1

> <chiral flag>
1

> <version>
0

> <r_i_glide_lipo>
-1.11123

> <r_i_glide_hbond>
-0.357278

> <r_i_glide_metal>
-0

> <r_i_glide_rewards>
-0.0961787

> <r_i_glide_erotb>
0.582966

> <r_i_glide_esite>
-0.165645

> <chiral flag>
1

> <s_i_glide_gridfile>
second_dock_grid_2

> <i_i_glide_lignum>
36

> <i_i_glide_rotatable_bonds>
9

> <r_i_docking_score>
-4.67181

> <r_i_glide_ligand_efficiency>
-0.137406

> <r_i_glide_ligand_efficiency_sa>
-0.445142

> <r_i_glide_ligand_efficiency_ln>
-1.03213

> <r_glide_XP_GScore>
-4.67181

> <r_i_glide_gscore>
-4.67181

> <r_i_glide_evdw>
-35.184

> <r_i_glide_ecoul>
-11.3483

> <r_i_glide_energy>
-46.5323

> <r_i_glide_einternal>
7.66447

> <r_i_glide_emodel>
-55.4199

> <r_glide_XP_HBond>
-0.585493

> <i_i_glide_confnum>
1

> <i_i_glide_posenum>
1

> <r_i_glide_eff_state_penalty>
-0

> <i_glide_XP_PoseRank>
1

$$$$
BACE_19.smi:1
                    3D
 Structure written by MMmdl.
 76 77  0  0  1  0            999 V2000
   20.6750   40.6558   -3.2786 C   0  0  0  0  0  0
   21.7151   40.3790   -4.3660 C   0  0  0  0  0  0
   21.0863   39.9970   -5.7178 C   0  0  0  0  0  0
   22.1431   39.7511   -6.7998 C   0  0  0  0  0  0
   22.8741   40.9105   -7.3013 N   0  0  0  0  0  0
   22.4604   42.1671   -7.5315 C   0  0  0  0  0  0
   21.4231   42.6558   -7.0950 O   0  0  0  0  0  0
   23.3408   42.9811   -8.4842 C   0  0  2  0  0  0
   23.6927   44.3436   -7.8588 C   0  0  0  0  0  0
   22.6733   43.1574   -9.8733 C   0  0  0  0  0  0
   22.3985   41.8461  -10.6668 C   0  0  1  0  0  0
   21.0696   41.0924  -10.3569 C   0  0  2  0  0  0
   20.8821   39.7558  -11.1341 C   0  0  0  0  0  0
   19.7151   38.8170  -10.7084 C   0  0  1  0  0  0
   19.7125   38.4609   -9.2004 C   0  0  0  0  0  0
   18.5430   37.6226   -8.6340 C   0  0  0  0  0  0
   17.2201   38.3663   -8.5731 C   0  0  0  0  0  0
   16.0654   37.8111   -9.1610 C   0  0  0  0  0  0
   14.8817   38.5649   -9.2187 C   0  0  0  0  0  0
   14.8604   39.8836   -8.7347 C   0  0  0  0  0  0
   15.9888   40.4259   -8.0901 C   0  0  0  0  0  0
   17.1547   39.6449   -7.9778 C   0  0  0  0  0  0
   15.9233   41.8221   -7.4973 C   0  0  0  0  0  0
   17.2164   42.9732   -8.1598 S   0  0  0  0  0  0
   16.9051   44.3405   -7.7106 O   0  0  0  0  0  0
   18.5507   42.4195   -7.8894 O   0  0  0  0  0  0
   16.9388   42.9177   -9.9882 C   0  0  0  0  0  0
   18.0855   43.5328  -10.8351 C   0  0  2  0  0  0
   19.1543   42.5079  -11.2521 C   0  0  0  0  0  0
   19.2599   42.1962  -12.4381 O   0  0  0  0  0  0
   19.9093   41.9845  -10.2702 N   0  0  0  0  0  0
   18.7271   44.8101  -10.2594 C   0  0  0  0  0  0
   18.3772   39.3460  -11.2103 C   0  0  0  0  0  0
   22.4597   42.1500  -12.0405 O   0  0  0  0  0  0
   24.2806   42.4439   -8.6261 H   0  0  0  0  0  0
   23.2310   41.1633  -10.4881 H   0  0  0  0  0  0
   21.1767   40.7719   -9.3329 H   0  0  0  0  0  0
   19.8703   37.8800  -11.2412 H   0  0  0  0  0  0
   17.6167   43.8374  -11.7724 H   0  0  0  0  0  0
   21.1559   40.9386   -2.3432 H   0  0  0  0  0  0
   20.0604   39.7761   -3.0902 H   0  0  0  0  0  0
   20.0203   41.4785   -3.5709 H   0  0  0  0  0  0
   22.3352   41.2671   -4.4924 H   0  0  0  0  0  0
   22.3824   39.5836   -4.0328 H   0  0  0  0  0  0
   20.5102   39.0772   -5.6386 H   0  0  0  0  0  0
   20.3556   40.7405   -6.0320 H   0  0  0  0  0  0
   22.8594   39.0153   -6.4402 H   0  0  0  0  0  0
   21.6957   39.2757   -7.6588 H   0  0  0  0  0  0
   23.7762   40.6874   -7.6923 H   0  0  0  0  0  0
   24.1344   44.2248   -6.8676 H   0  0  0  0  0  0
   22.8121   44.9815   -7.7578 H   0  0  0  0  0  0
   24.4181   44.8795   -8.4708 H   0  0  0  0  0  0
   21.7661   43.7572   -9.7888 H   0  0  0  0  0  0
   23.3578   43.7691  -10.4650 H   0  0  0  0  0  0
   20.8097   39.9608  -12.2029 H   0  0  0  0  0  0
   21.8081   39.1892  -11.0235 H   0  0  0  0  0  0
   20.6310   37.9100   -9.0032 H   0  0  0  0  0  0
   19.7585   39.3714   -8.6142 H   0  0  0  0  0  0
   18.4376   36.6917   -9.1919 H   0  0  0  0  0  0
   18.7825   37.3577   -7.6056 H   0  0  0  0  0  0
   16.0915   36.8186   -9.5837 H   0  0  0  0  0  0
   13.9838   38.1469   -9.6396 H   0  0  0  0  0  0
   13.9569   40.4590   -8.8386 H   0  0  0  0  0  0
   18.0125   40.0454   -7.4617 H   0  0  0  0  0  0
   14.9450   42.2734   -7.6612 H   0  0  0  0  0  0
   16.0598   41.7504   -6.4202 H   0  0  0  0  0  0
   16.7513   41.8851  -10.2724 H   0  0  0  0  0  0
   16.0073   43.4517  -10.1729 H   0  0  0  0  0  0
   19.6487   42.2546   -9.3256 H   0  0  0  0  0  0
   19.4383   45.2427  -10.9632 H   0  0  0  0  0  0
   19.2686   44.6234   -9.3294 H   0  0  0  0  0  0
   17.9727   45.5686  -10.0518 H   0  0  0  0  0  0
   17.9845   40.1158  -10.5569 H   0  0  0  0  0  0
   17.6448   38.5503  -11.2407 H   0  0  0  0  0  0
   18.4632   39.7602  -12.2079 H   0  0  0  0  0  0
   23.0277   41.5098  -12.4710 H   0  0  0  0  0  0
  1  2  1  0  0  0
  1 40  1  0  0  0
  1 41  1  0  0  0
  1 42  1  0  0  0
  2  3  1  0  0  0
  2 43  1  0  0  0
  2 44  1  0  0  0
  3  4  1  0  0  0
  3 45  1  0  0  0
  3 46  1  0  0  0
  4  5  1  0  0  0
  4 47  1  0  0  0
  4 48  1  0  0  0
  5  6  1  0  0  0
  5 49  1  0  0  0
  6  7  2  0  0  0
  6  8  1  0  0  0
  8 35  1  0  0  0
  8  9  1  0  0  0
  8 10  1  0  0  0
  9 50  1  0  0  0
  9 51  1  0  0  0
  9 52  1  0  0  0
 10 11  1  0  0  0
 10 53  1  0  0  0
 10 54  1  0  0  0
 11 36  1  0  0  0
 11 12  1  0  0  0
 11 34  1  0  0  0
 12 37  1  0  0  0
 12 31  1  0  0  0
 12 13  1  0  0  0
 13 14  1  0  0  0
 13 55  1  0  0  0
 13 56  1  0  0  0
 14 38  1  0  0  0
 14 15  1  0  0  0
 14 33  1  0  0  0
 15 16  1  0  0  0
 15 57  1  0  0  0
 15 58  1  0  0  0
 16 17  1  0  0  0
 16 59  1  0  0  0
 16 60  1  0  0  0
 17 22  1  0  0  0
 17 18  2  0  0  0
 18 19  1  0  0  0
 18 61  1  0  0  0
 19 20  2  0  0  0
 19 62  1  0  0  0
 20 21  1  0  0  0
 20 63  1  0  0  0
 21 22  2  0  0  0
 21 23  1  0  0  0
 22 64  1  0  0  0
 23 24  1  0  0  0
 23 65  1  0  0  0
 23 66  1  0  0  0
 24 25  2  0  0  0
 24 26  2  0  0  0
 24 27  1  0  0  0
 27 28  1  0  0  0
 27 67  1  0  0  0
 27 68  1  0  0  0
 28 39  1  0  0  0
 28 29  1  0  0  0
 28 32  1  0  0  0
 29 30  2  0  0  0
 29 31  1  0  0  0
 31 69  1  0  0  0
 32 70  1  0  0  0
 32 71  1  0  0  0
 32 72  1  0  0  0
 33 73  1  0  0  0
 33 74  1  0  0  0
 33 75  1  0  0  0
 34 76  1  0  0  0
M  END
> <s_m_source_file>
BACE_19.smi

> <i_m_source_file_index>
1

> <i_lp_mmshare_version>
42013

> <i_f3d_flags>
0

> <s_epik_input>
W0NIM11bQ0gyXVtDSDJdW0NIMl1bTkhdQyg9TylbQ0BIXShbQ0gzXSlbQ0gyXVtDQEhdKFtPSF0pW0NASF0oW0NIMl1bQ0BIXShbQ0gzXSlbQ0gyXVtDSDJdMSlbTkhdQyg9TylbQ0BIXShbQ0gzXSlbQ0gyXVMoPU8pKD1PKVtDSDJdYyhbY0hdMilbY0hdW2NIXVtjSF1jMTI=

> <s_epik_cmdline>
J2VwaWtfcHl0aG9uJywgJy1waCcsICc3LjAnLCAnLXRuJywgJzgnLCAnLW1hJywgJzIwMCcsICctaW1hZScsICc8aW5maWxlLm1hZT4nLCAnLW9tYWUnLCAnPG91dGZpbGUubWFlPic=

> <r_lp_tautomer_probability>
1

> <r_epik_Ionization_Penalty>
  0.0000

> <r_epik_Ionization_Penalty_Charging>
  0.0000

> <r_epik_Ionization_Penalty_Neutral>
  0.0000

> <r_epik_State_Penalty>
 -0.0000

> <r_epik_Charging_Adjusted_Penalty>
0

> <i_epik_Tot_Q>
0

> <i_epik_Tot_abs_Q>
0

> <s_lp_Force_Field>
OPLS_2005

> <r_lp_Energy>
20.3216

> <b_lp_Chiralities_Consistent>
1

> <s_lp_Variant>
BACE_19.smi:1-1

> <chiral flag>
1

> <version>
0

> <r_i_glide_lipo>
-1.11123

> <r_i_glide_hbond>
-0.357278

> <r_i_glide_metal>
-0

> <r_i_glide_rewards>
-0.0961787

> <r_i_glide_erotb>
0.582966

> <r_i_glide_esite>
-0.165645

> <chiral flag>
1

> <s_i_glide_gridfile>
second_dock_grid_2

> <i_i_glide_lignum>
36

> <i_i_glide_rotatable_bonds>
9

> <r_i_docking_score>
-4.28726

> <r_i_glide_ligand_efficiency>
-0.126096

> <r_i_glide_ligand_efficiency_sa>
-0.408502

> <r_i_glide_ligand_efficiency_ln>
-0.947176

> <r_glide_XP_GScore>
-4.28726

> <r_i_glide_gscore>
-4.28726

> <r_i_glide_evdw>
-35.7747

> <r_i_glide_ecoul>
-10.317

> <r_i_glide_energy>
-46.0917

> <r_i_glide_einternal>
6.85426

> <r_i_glide_emodel>
-56.0168

> <r_glide_XP_HBond>
-0.585493

> <i_i_glide_confnum>
1

> <i_i_glide_posenum>
5

> <r_i_glide_eff_state_penalty>
-0

> <i_glide_XP_PoseRank>
2

$$$$
BACE_19.smi:1
                    3D
 Structure written by MMmdl.
 76 77  0  0  1  0            999 V2000
   23.6927   50.0409   -1.4689 C   0  0  0  0  0  0
   23.2093   51.0224   -2.5415 C   0  0  0  0  0  0
   22.0800   50.4749   -3.4307 C   0  0  0  0  0  0
   22.5197   49.3288   -4.3650 C   0  0  0  0  0  0
   21.4587   48.8605   -5.2584 N   0  0  0  0  0  0
   20.9904   49.5328   -6.3173 C   0  0  0  0  0  0
   21.2601   50.7202   -6.5131 O   0  0  0  0  0  0
   20.1234   48.7780   -7.3469 C   0  0  2  0  0  0
   18.6267   49.0941   -7.1652 C   0  0  0  0  0  0
   20.4977   47.2785   -7.5682 C   0  0  0  0  0  0
   19.5248   46.1972   -7.0285 C   0  0  1  0  0  0
   19.9187   44.7073   -7.2649 C   0  0  2  0  0  0
   21.2502   44.2651   -6.5716 C   0  0  0  0  0  0
   21.6326   42.7571   -6.5624 C   0  0  1  0  0  0
   20.4599   41.8296   -6.1449 C   0  0  0  0  0  0
   20.6684   40.3021   -6.2695 C   0  0  0  0  0  0
   20.5399   39.7794   -7.6975 C   0  0  0  0  0  0
   21.5742   39.0132   -8.2712 C   0  0  0  0  0  0
   21.4925   38.6013   -9.6173 C   0  0  0  0  0  0
   20.3784   38.9630  -10.3985 C   0  0  0  0  0  0
   19.3322   39.7239   -9.8335 C   0  0  0  0  0  0
   19.4025   40.0958   -8.4744 C   0  0  0  0  0  0
   18.1628   40.1739  -10.6968 C   0  0  0  0  0  0
   18.0749   42.0261  -10.8464 S   0  0  0  0  0  0
   17.2727   42.3521  -12.0384 O   0  0  0  0  0  0
   17.6896   42.5912   -9.5450 O   0  0  0  0  0  0
   19.8333   42.5177  -11.1792 C   0  0  0  0  0  0
   20.1133   44.0412  -11.0991 C   0  0  2  0  0  0
   20.5723   44.5259   -9.7138 C   0  0  0  0  0  0
   21.6475   45.1201   -9.6103 O   0  0  0  0  0  0
   19.7662   44.2841   -8.6641 N   0  0  0  0  0  0
   19.0201   44.9539  -11.6830 C   0  0  0  0  0  0
   22.3751   42.3321   -7.8401 C   0  0  0  0  0  0
   19.3344   46.3636   -5.6400 O   0  0  0  0  0  0
   20.3919   49.2607   -8.2890 H   0  0  0  0  0  0
   18.5521   46.3583   -7.4961 H   0  0  0  0  0  0
   19.1171   44.1613   -6.7663 H   0  0  0  0  0  0
   22.3832   42.6552   -5.7769 H   0  0  0  0  0  0
   20.9908   44.1936  -11.7290 H   0  0  0  0  0  0
   24.4529   50.5020   -0.8366 H   0  0  0  0  0  0
   24.1259   49.1406   -1.9050 H   0  0  0  0  0  0
   22.8622   49.7470   -0.8307 H   0  0  0  0  0  0
   22.8474   51.9211   -2.0390 H   0  0  0  0  0  0
   24.0550   51.3439   -3.1521 H   0  0  0  0  0  0
   21.2603   50.1488   -2.7948 H   0  0  0  0  0  0
   21.6811   51.3026   -4.0186 H   0  0  0  0  0  0
   23.3737   49.6444   -4.9675 H   0  0  0  0  0  0
   22.8569   48.4741   -3.7779 H   0  0  0  0  0  0
   21.1574   47.9016   -5.1586 H   0  0  0  0  0  0
   18.4551   50.1691   -7.1695 H   0  0  0  0  0  0
   18.2421   48.7050   -6.2210 H   0  0  0  0  0  0
   18.0310   48.6753   -7.9774 H   0  0  0  0  0  0
   20.5634   47.1506   -8.6480 H   0  0  0  0  0  0
   21.5086   47.0753   -7.2134 H   0  0  0  0  0  0
   22.0818   44.8386   -6.9788 H   0  0  0  0  0  0
   21.1966   44.5666   -5.5263 H   0  0  0  0  0  0
   20.2362   42.0490   -5.1000 H   0  0  0  0  0  0
   19.5523   42.0862   -6.6830 H   0  0  0  0  0  0
   21.6310   40.0155   -5.8434 H   0  0  0  0  0  0
   19.9090   39.7900   -5.6769 H   0  0  0  0  0  0
   22.4469   38.7533   -7.6916 H   0  0  0  0  0  0
   22.2980   38.0232  -10.0437 H   0  0  0  0  0  0
   20.3366   38.6635  -11.4358 H   0  0  0  0  0  0
   18.5942   40.6626   -8.0366 H   0  0  0  0  0  0
   18.2469   39.7546  -11.7007 H   0  0  0  0  0  0
   17.2229   39.8175  -10.2701 H   0  0  0  0  0  0
   20.4738   41.9862  -10.4797 H   0  0  0  0  0  0
   20.0849   42.1344  -12.1674 H   0  0  0  0  0  0
   18.9279   43.7463   -8.8676 H   0  0  0  0  0  0
   19.3394   45.9971  -11.6827 H   0  0  0  0  0  0
   18.0939   44.8992  -11.1110 H   0  0  0  0  0  0
   18.7965   44.6829  -12.7146 H   0  0  0  0  0  0
   21.6912   42.1658   -8.6660 H   0  0  0  0  0  0
   22.9300   41.4081   -7.6818 H   0  0  0  0  0  0
   23.1023   43.0826   -8.1525 H   0  0  0  0  0  0
   20.0691   45.9617   -5.1982 H   0  0  0  0  0  0
  1  2  1  0  0  0
  1 40  1  0  0  0
  1 41  1  0  0  0
  1 42  1  0  0  0
  2  3  1  0  0  0
  2 43  1  0  0  0
  2 44  1  0  0  0
  3  4  1  0  0  0
  3 45  1  0  0  0
  3 46  1  0  0  0
  4  5  1  0  0  0
  4 47  1  0  0  0
  4 48  1  0  0  0
  5  6  1  0  0  0
  5 49  1  0  0  0
  6  7  2  0  0  0
  6  8  1  0  0  0
  8 35  1  0  0  0
  8  9  1  0  0  0
  8 10  1  0  0  0
  9 50  1  0  0  0
  9 51  1  0  0  0
  9 52  1  0  0  0
 10 11  1  0  0  0
 10 53  1  0  0  0
 10 54  1  0  0  0
 11 36  1  0  0  0
 11 12  1  0  0  0
 11 34  1  0  0  0
 12 37  1  0  0  0
 12 31  1  0  0  0
 12 13  1  0  0  0
 13 14  1  0  0  0
 13 55  1  0  0  0
 13 56  1  0  0  0
 14 38  1  0  0  0
 14 15  1  0  0  0
 14 33  1  0  0  0
 15 16  1  0  0  0
 15 57  1  0  0  0
 15 58  1  0  0  0
 16 17  1  0  0  0
 16 59  1  0  0  0
 16 60  1  0  0  0
 17 22  1  0  0  0
 17 18  2  0  0  0
 18 19  1  0  0  0
 18 61  1  0  0  0
 19 20  2  0  0  0
 19 62  1  0  0  0
 20 21  1  0  0  0
 20 63  1  0  0  0
 21 22  2  0  0  0
 21 23  1  0  0  0
 22 64  1  0  0  0
 23 24  1  0  0  0
 23 65  1  0  0  0
 23 66  1  0  0  0
 24 25  2  0  0  0
 24 26  2  0  0  0
 24 27  1  0  0  0
 27 28  1  0  0  0
 27 67  1  0  0  0
 27 68  1  0  0  0
 28 39  1  0  0  0
 28 29  1  0  0  0
 28 32  1  0  0  0
 29 30  2  0  0  0
 29 31  1  0  0  0
 31 69  1  0  0  0
 32 70  1  0  0  0
 32 71  1  0  0  0
 32 72  1  0  0  0
 33 73  1  0  0  0
 33 74  1  0  0  0
 33 75  1  0  0  0
 34 76  1  0  0  0
M  END
> <s_m_source_file>
BACE_19.smi

> <i_m_source_file_index>
1

> <i_lp_mmshare_version>
42013

> <i_f3d_flags>
0

> <s_epik_input>
W0NIM11bQ0gyXVtDSDJdW0NIMl1bTkhdQyg9TylbQ0BIXShbQ0gzXSlbQ0gyXVtDQEhdKFtPSF0pW0NASF0oW0NIMl1bQ0BIXShbQ0gzXSlbQ0gyXVtDSDJdMSlbTkhdQyg9TylbQ0BIXShbQ0gzXSlbQ0gyXVMoPU8pKD1PKVtDSDJdYyhbY0hdMilbY0hdW2NIXVtjSF1jMTI=

> <s_epik_cmdline>
J2VwaWtfcHl0aG9uJywgJy1waCcsICc3LjAnLCAnLXRuJywgJzgnLCAnLW1hJywgJzIwMCcsICctaW1hZScsICc8aW5maWxlLm1hZT4nLCAnLW9tYWUnLCAnPG91dGZpbGUubWFlPic=

> <r_lp_tautomer_probability>
1

> <r_epik_Ionization_Penalty>
  0.0000

> <r_epik_Ionization_Penalty_Charging>
  0.0000

> <r_epik_Ionization_Penalty_Neutral>
  0.0000

> <r_epik_State_Penalty>
 -0.0000

> <r_epik_Charging_Adjusted_Penalty>
0

> <i_epik_Tot_Q>
0

> <i_epik_Tot_abs_Q>
0

> <s_lp_Force_Field>
OPLS_2005

> <r_lp_Energy>
20.3216

> <b_lp_Chiralities_Consistent>
1

> <s_lp_Variant>
BACE_19.smi:1-1

> <chiral flag>
1

> <version>
0

> <r_i_glide_lipo>
-1.11123

> <r_i_glide_hbond>
-0.357278

> <r_i_glide_metal>
-0

> <r_i_glide_rewards>
-0.0961787

> <r_i_glide_erotb>
0.582966

> <r_i_glide_esite>
-0.165645

> <chiral flag>
1

> <s_i_glide_gridfile>
second_dock_grid_2

> <i_i_glide_lignum>
36

> <i_i_glide_rotatable_bonds>
9

> <r_i_docking_score>
-3.95636

> <r_i_glide_ligand_efficiency>
-0.116364

> <r_i_glide_ligand_efficiency_sa>
-0.376973

> <r_i_glide_ligand_efficiency_ln>
-0.874071

> <r_glide_XP_GScore>
-3.95636

> <r_i_glide_gscore>
-3.95636

> <r_i_glide_evdw>
-33.5986

> <r_i_glide_ecoul>
-8.93421

> <r_i_glide_energy>
-42.5328

> <r_i_glide_einternal>
3.66782

> <r_i_glide_emodel>
-55.1914

> <r_glide_XP_HBond>
-0.585493

> <i_i_glide_confnum>
1

> <i_i_glide_posenum>
39

> <r_i_glide_eff_state_penalty>
-0

> <i_glide_XP_PoseRank>
3

$$$$
BACE_19.smi:1
                    3D
 Structure written by MMmdl.
 76 77  0  0  1  0            999 V2000
   29.9212   43.6480   -9.9684 C   0  0  0  0  0  0
   28.4491   43.2378   -9.8615 C   0  0  0  0  0  0
   28.0656   42.1483  -10.8790 C   0  0  0  0  0  0
   26.6712   41.5395  -10.6492 C   0  0  0  0  0  0
   25.5983   42.4915  -10.9183 N   0  0  0  0  0  0
   25.0043   43.2788  -10.0058 C   0  0  0  0  0  0
   25.3717   43.3526   -8.8354 O   0  0  0  0  0  0
   23.7934   44.0925  -10.4888 C   0  0  2  0  0  0
   23.8459   45.5264   -9.9316 C   0  0  0  0  0  0
   22.4637   43.3937  -10.1156 C   0  0  0  0  0  0
   22.2791   42.0010  -10.7576 C   0  0  1  0  0  0
   21.0726   41.1883  -10.2302 C   0  0  2  0  0  0
   21.0329   39.7389  -10.7907 C   0  0  0  0  0  0
   19.9494   38.7748  -10.2438 C   0  0  1  0  0  0
   19.8949   38.7186   -8.6937 C   0  0  0  0  0  0
   18.7573   37.8752   -8.0653 C   0  0  0  0  0  0
   17.3916   38.5233   -8.1874 C   0  0  0  0  0  0
   16.3248   37.8664   -8.8388 C   0  0  0  0  0  0
   15.1152   38.5473   -9.0718 C   0  0  0  0  0  0
   14.9707   39.8851   -8.6566 C   0  0  0  0  0  0
   16.0187   40.5289   -7.9743 C   0  0  0  0  0  0
   17.2119   39.8367   -7.7139 C   0  0  0  0  0  0
   15.8705   41.9643   -7.5092 C   0  0  0  0  0  0
   17.0713   43.1056   -8.3329 S   0  0  0  0  0  0
   16.6362   44.4916   -8.0867 O   0  0  0  0  0  0
   18.4426   42.7173   -7.9755 O   0  0  0  0  0  0
   16.8238   42.7377  -10.1317 C   0  0  0  0  0  0
   17.9213   43.3027  -11.0701 C   0  0  2  0  0  0
   19.0712   42.3150  -11.3301 C   0  0  0  0  0  0
   19.2612   41.9096  -12.4760 O   0  0  0  0  0  0
   19.8137   41.9482  -10.2696 N   0  0  0  0  0  0
   18.4502   44.7045  -10.7108 C   0  0  0  0  0  0
   18.6052   39.0187  -10.9380 C   0  0  0  0  0  0
   22.2195   42.1500  -12.1573 O   0  0  0  0  0  0
   23.8526   44.1712  -11.5761 H   0  0  0  0  0  0
   23.1607   41.3953  -10.5535 H   0  0  0  0  0  0
   21.2745   41.0913   -9.1643 H   0  0  0  0  0  0
   20.2476   37.7780  -10.5627 H   0  0  0  0  0  0
   17.4346   43.4163  -12.0398 H   0  0  0  0  0  0
   30.1601   44.4306   -9.2473 H   0  0  0  0  0  0
   30.1516   44.0279  -10.9640 H   0  0  0  0  0  0
   30.5791   42.8008   -9.7707 H   0  0  0  0  0  0
   28.2422   42.8915   -8.8482 H   0  0  0  0  0  0
   27.8218   44.1191  -10.0113 H   0  0  0  0  0  0
   28.1303   42.5527  -11.8897 H   0  0  0  0  0  0
   28.8044   41.3497  -10.8377 H   0  0  0  0  0  0
   26.5332   40.6899  -11.3191 H   0  0  0  0  0  0
   26.5900   41.1328   -9.6409 H   0  0  0  0  0  0
   25.1993   42.4700  -11.8453 H   0  0  0  0  0  0
   24.7983   46.0065  -10.1560 H   0  0  0  0  0  0
   23.7139   45.5433   -8.8493 H   0  0  0  0  0  0
   23.0598   46.1408  -10.3684 H   0  0  0  0  0  0
   22.4035   43.3010   -9.0320 H   0  0  0  0  0  0
   21.6309   44.0352  -10.4039 H   0  0  0  0  0  0
   20.9677   39.7683  -11.8794 H   0  0  0  0  0  0
   22.0050   39.2857  -10.5872 H   0  0  0  0  0  0
   20.8446   38.3104   -8.3450 H   0  0  0  0  0  0
   19.8480   39.7215   -8.2742 H   0  0  0  0  0  0
   18.7363   36.8823   -8.5100 H   0  0  0  0  0  0
   18.9545   37.7496   -6.9991 H   0  0  0  0  0  0
   16.4416   36.8521   -9.1887 H   0  0  0  0  0  0
   14.3015   38.0547   -9.5826 H   0  0  0  0  0  0
   14.0551   40.4107   -8.8597 H   0  0  0  0  0  0
   18.0121   40.3326   -7.1884 H   0  0  0  0  0  0
   14.8589   42.3323   -7.6665 H   0  0  0  0  0  0
   16.0597   41.9970   -6.4390 H   0  0  0  0  0  0
   16.7464   41.6586  -10.2498 H   0  0  0  0  0  0
   15.8506   43.1431  -10.4008 H   0  0  0  0  0  0
   19.4868   42.2857   -9.3674 H   0  0  0  0  0  0
   19.1249   45.0751  -11.4838 H   0  0  0  0  0  0
   19.0022   44.7100   -9.7711 H   0  0  0  0  0  0
   17.6307   45.4180  -10.6228 H   0  0  0  0  0  0
   18.0712   39.8562  -10.5034 H   0  0  0  0  0  0
   17.9683   38.1454  -10.8480 H   0  0  0  0  0  0
   18.7293   39.2180  -12.0018 H   0  0  0  0  0  0
   22.7172   41.4423  -12.5572 H   0  0  0  0  0  0
  1  2  1  0  0  0
  1 40  1  0  0  0
  1 41  1  0  0  0
  1 42  1  0  0  0
  2  3  1  0  0  0
  2 43  1  0  0  0
  2 44  1  0  0  0
  3  4  1  0  0  0
  3 45  1  0  0  0
  3 46  1  0  0  0
  4  5  1  0  0  0
  4 47  1  0  0  0
  4 48  1  0  0  0
  5  6  1  0  0  0
  5 49  1  0  0  0
  6  7  2  0  0  0
  6  8  1  0  0  0
  8 35  1  0  0  0
  8  9  1  0  0  0
  8 10  1  0  0  0
  9 50  1  0  0  0
  9 51  1  0  0  0
  9 52  1  0  0  0
 10 11  1  0  0  0
 10 53  1  0  0  0
 10 54  1  0  0  0
 11 36  1  0  0  0
 11 12  1  0  0  0
 11 34  1  0  0  0
 12 37  1  0  0  0
 12 31  1  0  0  0
 12 13  1  0  0  0
 13 14  1  0  0  0
 13 55  1  0  0  0
 13 56  1  0  0  0
 14 38  1  0  0  0
 14 15  1  0  0  0
 14 33  1  0  0  0
 15 16  1  0  0  0
 15 57  1  0  0  0
 15 58  1  0  0  0
 16 17  1  0  0  0
 16 59  1  0  0  0
 16 60  1  0  0  0
 17 22  1  0  0  0
 17 18  2  0  0  0
 18 19  1  0  0  0
 18 61  1  0  0  0
 19 20  2  0  0  0
 19 62  1  0  0  0
 20 21  1  0  0  0
 20 63  1  0  0  0
 21 22  2  0  0  0
 21 23  1  0  0  0
 22 64  1  0  0  0
 23 24  1  0  0  0
 23 65  1  0  0  0
 23 66  1  0  0  0
 24 25  2  0  0  0
 24 26  2  0  0  0
 24 27  1  0  0  0
 27 28  1  0  0  0
 27 67  1  0  0  0
 27 68  1  0  0  0
 28 39  1  0  0  0
 28 29  1  0  0  0
 28 32  1  0  0  0
 29 30  2  0  0  0
 29 31  1  0  0  0
 31 69  1  0  0  0
 32 70  1  0  0  0
 32 71  1  0  0  0
 32 72  1  0  0  0
 33 73  1  0  0  0
 33 74  1  0  0  0
 33 75  1  0  0  0
 34 76  1  0  0  0
M  END
> <s_m_source_file>
BACE_19.smi

> <i_m_source_file_index>
1

> <i_lp_mmshare_version>
42013

> <i_f3d_flags>
0

> <s_epik_input>
W0NIM11bQ0gyXVtDSDJdW0NIMl1bTkhdQyg9TylbQ0BIXShbQ0gzXSlbQ0gyXVtDQEhdKFtPSF0pW0NASF0oW0NIMl1bQ0BIXShbQ0gzXSlbQ0gyXVtDSDJdMSlbTkhdQyg9TylbQ0BIXShbQ0gzXSlbQ0gyXVMoPU8pKD1PKVtDSDJdYyhbY0hdMilbY0hdW2NIXVtjSF1jMTI=

> <s_epik_cmdline>
J2VwaWtfcHl0aG9uJywgJy1waCcsICc3LjAnLCAnLXRuJywgJzgnLCAnLW1hJywgJzIwMCcsICctaW1hZScsICc8aW5maWxlLm1hZT4nLCAnLW9tYWUnLCAnPG91dGZpbGUubWFlPic=

> <r_lp_tautomer_probability>
1

> <r_epik_Ionization_Penalty>
  0.0000

> <r_epik_Ionization_Penalty_Charging>
  0.0000

> <r_epik_Ionization_Penalty_Neutral>
  0.0000

> <r_epik_State_Penalty>
 -0.0000

> <r_epik_Charging_Adjusted_Penalty>
0

> <i_epik_Tot_Q>
0

> <i_epik_Tot_abs_Q>
0

> <s_lp_Force_Field>
OPLS_2005

> <r_lp_Energy>
20.3216

> <b_lp_Chiralities_Consistent>
1

> <s_lp_Variant>
BACE_19.smi:1-1

> <chiral flag>
1

> <version>
0

> <r_i_glide_lipo>
-1.11123

> <r_i_glide_hbond>
-0.357278

> <r_i_glide_metal>
-0

> <r_i_glide_rewards>
-0.0961787

> <r_i_glide_erotb>
0.582966

> <r_i_glide_esite>
-0.165645

> <chiral flag>
1

> <s_i_glide_gridfile>
second_dock_grid_2

> <i_i_glide_lignum>
36

> <i_i_glide_rotatable_bonds>
9

> <r_i_docking_score>
-3.81072

> <r_i_glide_ligand_efficiency>
-0.11208

> <r_i_glide_ligand_efficiency_sa>
-0.363096

> <r_i_glide_ligand_efficiency_ln>
-0.841895

> <r_glide_XP_GScore>
-3.81072

> <r_i_glide_gscore>
-3.81072

> <r_i_glide_evdw>
-35.9986

> <r_i_glide_ecoul>
-9.84135

> <r_i_glide_energy>
-45.84

> <r_i_glide_einternal>
5.98137

> <r_i_glide_emodel>
-57.946

> <r_glide_XP_HBond>
-0.585493

> <i_i_glide_confnum>
1

> <i_i_glide_posenum>
3

> <r_i_glide_eff_state_penalty>
-0

> <i_glide_XP_PoseRank>
4

$$$$
BACE_19.smi:1
                    3D
 Structure written by MMmdl.
 76 77  0  0  1  0            999 V2000
   31.6772   43.5492  -10.4254 C   0  0  0  0  0  0
   30.6454   42.4925  -10.8314 C   0  0  0  0  0  0
   30.0037   42.7956  -12.1970 C   0  0  0  0  0  0
   28.9014   41.8004  -12.5989 C   0  0  0  0  0  0
   27.8634   41.6876  -11.5812 N   0  0  0  0  0  0
   26.9074   42.5968  -11.3410 C   0  0  0  0  0  0
   26.7419   43.5810  -12.0628 O   0  0  0  0  0  0
   26.0695   42.3927  -10.0605 C   0  0  2  0  0  0
   25.5603   40.9501   -9.9275 C   0  0  0  0  0  0
   24.9519   43.4469   -9.8700 C   0  0  0  0  0  0
   23.7787   43.4180  -10.8889 C   0  0  1  0  0  0
   22.6048   42.4370  -10.5836 C   0  0  2  0  0  0
   21.4704   42.5389  -11.6399 C   0  0  0  0  0  0
   20.2571   41.5771  -11.5581 C   0  0  1  0  0  0
   20.6791   40.0884  -11.4536 C   0  0  0  0  0  0
   19.5384   39.0640  -11.2606 C   0  0  0  0  0  0
   18.9625   39.0106   -9.8534 C   0  0  0  0  0  0
   17.5651   39.0061   -9.6574 C   0  0  0  0  0  0
   17.0339   39.0346   -8.3547 C   0  0  0  0  0  0
   17.8959   39.0925   -7.2428 C   0  0  0  0  0  0
   19.2942   39.0904   -7.4274 C   0  0  0  0  0  0
   19.8183   38.9945   -8.7312 C   0  0  0  0  0  0
   20.2167   39.1583   -6.2186 C   0  0  0  0  0  0
   21.5306   40.4611   -6.3220 S   0  0  0  0  0  0
   22.1731   40.5540   -5.0041 O   0  0  0  0  0  0
   22.3749   40.2266   -7.5038 O   0  0  0  0  0  0
   20.5640   42.0109   -6.6021 C   0  0  0  0  0  0
   21.4094   43.2614   -6.9682 C   0  0  2  0  0  0
   21.6428   43.4648   -8.4776 C   0  0  0  0  0  0
   21.3893   44.5569   -8.9876 O   0  0  0  0  0  0
   22.1640   42.4444   -9.1791 N   0  0  0  0  0  0
   22.7212   43.4219   -6.1799 C   0  0  0  0  0  0
   19.2218   42.0454  -10.5224 C   0  0  0  0  0  0
   23.2720   44.7337  -11.0266 O   0  0  0  0  0  0
   26.7669   42.5547   -9.2403 H   0  0  0  0  0  0
   24.1761   43.1658  -11.8722 H   0  0  0  0  0  0
   23.0260   41.4460  -10.7066 H   0  0  0  0  0  0
   19.7442   41.6752  -12.5154 H   0  0  0  0  0  0
   20.7875   44.1101   -6.6797 H   0  0  0  0  0  0
   32.0590   43.3517   -9.4249 H   0  0  0  0  0  0
   31.2346   44.5490  -10.4111 H   0  0  0  0  0  0
   32.5218   43.5643  -11.1165 H   0  0  0  0  0  0
   31.1155   41.5109  -10.8577 H   0  0  0  0  0  0
   29.8793   42.4501  -10.0574 H   0  0  0  0  0  0
   29.5870   43.8018  -12.1848 H   0  0  0  0  0  0
   30.7736   42.7993  -12.9681 H   0  0  0  0  0  0
   28.4614   42.0997  -13.5493 H   0  0  0  0  0  0
   29.3302   40.8102  -12.7567 H   0  0  0  0  0  0
   27.9079   40.8693  -10.9855 H   0  0  0  0  0  0
   26.3839   40.2555   -9.7460 H   0  0  0  0  0  0
   25.0483   40.6112  -10.8290 H   0  0  0  0  0  0
   24.8657   40.8455   -9.0921 H   0  0  0  0  0  0
   24.5790   43.3988   -8.8481 H   0  0  0  0  0  0
   25.4302   44.4287   -9.9262 H   0  0  0  0  0  0
   21.0903   43.5624  -11.6762 H   0  0  0  0  0  0
   21.9518   42.3698  -12.6032 H   0  0  0  0  0  0
   21.1922   39.8396  -12.3823 H   0  0  0  0  0  0
   21.4293   39.9482  -10.6804 H   0  0  0  0  0  0
   18.7443   39.2701  -11.9779 H   0  0  0  0  0  0
   19.9133   38.0690  -11.4889 H   0  0  0  0  0  0
   16.8964   38.9924  -10.5044 H   0  0  0  0  0  0
   15.9653   39.0273   -8.2004 H   0  0  0  0  0  0
   17.4691   39.1298   -6.2497 H   0  0  0  0  0  0
   20.8838   38.9339   -8.8747 H   0  0  0  0  0  0
   19.6334   39.3516   -5.3190 H   0  0  0  0  0  0
   20.7092   38.1958   -6.1095 H   0  0  0  0  0  0
   19.7984   41.8132   -7.3495 H   0  0  0  0  0  0
   20.0256   42.1991   -5.6736 H   0  0  0  0  0  0
   22.3225   41.5830   -8.6636 H   0  0  0  0  0  0
   23.1903   44.3851   -6.3846 H   0  0  0  0  0  0
   23.4473   42.6483   -6.4325 H   0  0  0  0  0  0
   22.5390   43.3716   -5.1061 H   0  0  0  0  0  0
   19.5192   41.7754   -9.5146 H   0  0  0  0  0  0
   18.2466   41.5968  -10.7090 H   0  0  0  0  0  0
   19.0836   43.1262  -10.5520 H   0  0  0  0  0  0
   22.6744   44.8803  -10.3017 H   0  0  0  0  0  0
  1  2  1  0  0  0
  1 40  1  0  0  0
  1 41  1  0  0  0
  1 42  1  0  0  0
  2  3  1  0  0  0
  2 43  1  0  0  0
  2 44  1  0  0  0
  3  4  1  0  0  0
  3 45  1  0  0  0
  3 46  1  0  0  0
  4  5  1  0  0  0
  4 47  1  0  0  0
  4 48  1  0  0  0
  5  6  1  0  0  0
  5 49  1  0  0  0
  6  7  2  0  0  0
  6  8  1  0  0  0
  8 35  1  0  0  0
  8  9  1  0  0  0
  8 10  1  0  0  0
  9 50  1  0  0  0
  9 51  1  0  0  0
  9 52  1  0  0  0
 10 11  1  0  0  0
 10 53  1  0  0  0
 10 54  1  0  0  0
 11 36  1  0  0  0
 11 12  1  0  0  0
 11 34  1  0  0  0
 12 37  1  0  0  0
 12 31  1  0  0  0
 12 13  1  0  0  0
 13 14  1  0  0  0
 13 55  1  0  0  0
 13 56  1  0  0  0
 14 38  1  0  0  0
 14 15  1  0  0  0
 14 33  1  0  0  0
 15 16  1  0  0  0
 15 57  1  0  0  0
 15 58  1  0  0  0
 16 17  1  0  0  0
 16 59  1  0  0  0
 16 60  1  0  0  0
 17 22  1  0  0  0
 17 18  2  0  0  0
 18 19  1  0  0  0
 18 61  1  0  0  0
 19 20  2  0  0  0
 19 62  1  0  0  0
 20 21  1  0  0  0
 20 63  1  0  0  0
 21 22  2  0  0  0
 21 23  1  0  0  0
 22 64  1  0  0  0
 23 24  1  0  0  0
 23 65  1  0  0  0
 23 66  1  0  0  0
 24 25  2  0  0  0
 24 26  2  0  0  0
 24 27  1  0  0  0
 27 28  1  0  0  0
 27 67  1  0  0  0
 27 68  1  0  0  0
 28 39  1  0  0  0
 28 29  1  0  0  0
 28 32  1  0  0  0
 29 30  2  0  0  0
 29 31  1  0  0  0
 31 69  1  0  0  0
 32 70  1  0  0  0
 32 71  1  0  0  0
 32 72  1  0  0  0
 33 73  1  0  0  0
 33 74  1  0  0  0
 33 75  1  0  0  0
 34 76  1  0  0  0
M  END
> <s_m_source_file>
BACE_19.smi

> <i_m_source_file_index>
1

> <i_lp_mmshare_version>
42013

> <i_f3d_flags>
0

> <s_epik_input>
W0NIM11bQ0gyXVtDSDJdW0NIMl1bTkhdQyg9TylbQ0BIXShbQ0gzXSlbQ0gyXVtDQEhdKFtPSF0pW0NASF0oW0NIMl1bQ0BIXShbQ0gzXSlbQ0gyXVtDSDJdMSlbTkhdQyg9TylbQ0BIXShbQ0gzXSlbQ0gyXVMoPU8pKD1PKVtDSDJdYyhbY0hdMilbY0hdW2NIXVtjSF1jMTI=

> <s_epik_cmdline>
J2VwaWtfcHl0aG9uJywgJy1waCcsICc3LjAnLCAnLXRuJywgJzgnLCAnLW1hJywgJzIwMCcsICctaW1hZScsICc8aW5maWxlLm1hZT4nLCAnLW9tYWUnLCAnPG91dGZpbGUubWFlPic=

> <r_lp_tautomer_probability>
1

> <r_epik_Ionization_Penalty>
  0.0000

> <r_epik_Ionization_Penalty_Charging>
  0.0000

> <r_epik_Ionization_Penalty_Neutral>
  0.0000

> <r_epik_State_Penalty>
 -0.0000

> <r_epik_Charging_Adjusted_Penalty>
0

> <i_epik_Tot_Q>
0

> <i_epik_Tot_abs_Q>
0

> <s_lp_Force_Field>
OPLS_2005

> <r_lp_Energy>
20.3216

> <b_lp_Chiralities_Consistent>
1

> <s_lp_Variant>
BACE_19.smi:1-1

> <chiral flag>
1

> <version>
0

> <r_i_glide_lipo>
-1.11123

> <r_i_glide_hbond>
-0.357278

> <r_i_glide_metal>
-0

> <r_i_glide_rewards>
-0.0961787

> <r_i_glide_erotb>
0.582966

> <r_i_glide_esite>
-0.165645

> <chiral flag>
1

> <s_i_glide_gridfile>
second_dock_grid_2

> <i_i_glide_lignum>
36

> <i_i_glide_rotatable_bonds>
9

> <r_i_docking_score>
-3.70463

> <r_i_glide_ligand_efficiency>
-0.10896

> <r_i_glide_ligand_efficiency_sa>
-0.352987

> <r_i_glide_ligand_efficiency_ln>
-0.818457

> <r_glide_XP_GScore>
-3.70463

> <r_i_glide_gscore>
-3.70463

> <r_i_glide_evdw>
-38.0772

> <r_i_glide_ecoul>
-4.9344

> <r_i_glide_energy>
-43.0116

> <r_i_glide_einternal>
6.84367

> <r_i_glide_emodel>
-55.4444

> <r_glide_XP_HBond>
-0.585493

> <i_i_glide_confnum>
1

> <i_i_glide_posenum>
10

> <r_i_glide_eff_state_penalty>
-0

> <i_glide_XP_PoseRank>
5

$$$$
BACE_19.smi:1
                    3D
 Structure written by MMmdl.
 76 77  0  0  1  0            999 V2000
   24.8082   51.3453   -2.0022 C   0  0  0  0  0  0
   23.3494   51.0032   -1.6650 C   0  0  0  0  0  0
   22.5603   50.5065   -2.8880 C   0  0  0  0  0  0
   23.1742   49.2873   -3.5992 C   0  0  0  0  0  0
   22.3014   48.7297   -4.6209 N   0  0  0  0  0  0
   21.7985   49.3751   -5.6799 C   0  0  0  0  0  0
   22.0580   50.5503   -5.9327 O   0  0  0  0  0  0
   20.8317   48.5638   -6.5500 C   0  0  2  0  0  0
   19.3888   49.0804   -6.3840 C   0  0  0  0  0  0
   21.0133   47.0305   -6.3851 C   0  0  0  0  0  0
   19.7829   46.1460   -6.7279 C   0  0  1  0  0  0
   20.1074   44.6344   -6.9412 C   0  0  2  0  0  0
   21.3732   44.1327   -6.1950 C   0  0  0  0  0  0
   21.6801   42.6092   -6.2339 C   0  0  1  0  0  0
   20.4450   41.7298   -5.8805 C   0  0  0  0  0  0
   20.6037   40.1945   -5.9948 C   0  0  0  0  0  0
   20.5950   39.6790   -7.4298 C   0  0  0  0  0  0
   21.6301   38.8335   -7.8785 C   0  0  0  0  0  0
   21.6739   38.4312   -9.2270 C   0  0  0  0  0  0
   20.6998   38.8924  -10.1294 C   0  0  0  0  0  0
   19.6540   39.7344   -9.6990 C   0  0  0  0  0  0
   19.5834   40.0778   -8.3313 C   0  0  0  0  0  0
   18.6227   40.2341  -10.7119 C   0  0  0  0  0  0
   18.3575   42.0754  -10.6559 S   0  0  0  0  0  0
   17.4770   42.4538  -11.7724 O   0  0  0  0  0  0
   17.9872   42.4882   -9.2949 O   0  0  0  0  0  0
   20.0572   42.7254  -11.0027 C   0  0  0  0  0  0
   20.2322   44.2486  -10.7996 C   0  0  2  0  0  0
   20.7124   44.6477   -9.3940 C   0  0  0  0  0  0
   21.6841   45.3920   -9.2752 O   0  0  0  0  0  0
   20.0005   44.2053   -8.3469 N   0  0  0  0  0  0
   19.0496   45.1253  -11.2448 C   0  0  0  0  0  0
   22.4167   42.2117   -7.5244 C   0  0  0  0  0  0
   18.8012   46.2833   -5.7230 O   0  0  0  0  0  0
   21.1224   48.7852   -7.5795 H   0  0  0  0  0  0
   19.3055   46.5390   -7.6250 H   0  0  0  0  0  0
   19.2824   44.1132   -6.4684 H   0  0  0  0  0  0
   22.4101   42.4417   -5.4408 H   0  0  0  0  0  0
   21.0604   44.5275  -11.4496 H   0  0  0  0  0  0
   25.3422   51.6759   -1.1105 H   0  0  0  0  0  0
   24.8646   52.1496   -2.7353 H   0  0  0  0  0  0
   25.3385   50.4817   -2.4040 H   0  0  0  0  0  0
   23.3317   50.2489   -0.8771 H   0  0  0  0  0  0
   22.8686   51.8924   -1.2599 H   0  0  0  0  0  0
   21.5451   50.2545   -2.5782 H   0  0  0  0  0  0
   22.4758   51.3167   -3.6081 H   0  0  0  0  0  0
   24.1094   49.5612   -4.0832 H   0  0  0  0  0  0
   23.4149   48.5131   -2.8707 H   0  0  0  0  0  0
   22.0564   47.7485   -4.5367 H   0  0  0  0  0  0
   19.3369   50.1636   -6.4856 H   0  0  0  0  0  0
   18.9753   48.8502   -5.4042 H   0  0  0  0  0  0
   18.7352   48.6613   -7.1474 H   0  0  0  0  0  0
   21.8880   46.7231   -6.9548 H   0  0  0  0  0  0
   21.3067   46.8334   -5.3538 H   0  0  0  0  0  0
   22.2474   44.6873   -6.5368 H   0  0  0  0  0  0
   21.2586   44.4167   -5.1478 H   0  0  0  0  0  0
   20.1744   41.9578   -4.8484 H   0  0  0  0  0  0
   19.5775   42.0185   -6.4655 H   0  0  0  0  0  0
   21.5130   39.8775   -5.4825 H   0  0  0  0  0  0
   19.7764   39.7097   -5.4755 H   0  0  0  0  0  0
   22.4022   38.5072   -7.1988 H   0  0  0  0  0  0
   22.4665   37.7806   -9.5697 H   0  0  0  0  0  0
   20.7407   38.5660  -11.1584 H   0  0  0  0  0  0
   18.7642   40.6768   -7.9673 H   0  0  0  0  0  0
   18.9362   39.9867  -11.7255 H   0  0  0  0  0  0
   17.6692   39.7365  -10.5647 H   0  0  0  0  0  0
   20.7665   42.1686  -10.3978 H   0  0  0  0  0  0
   20.2851   42.4821  -12.0376 H   0  0  0  0  0  0
   19.2261   43.5803   -8.5589 H   0  0  0  0  0  0
   19.2856   46.1831  -11.1193 H   0  0  0  0  0  0
   18.1473   44.9267  -10.6667 H   0  0  0  0  0  0
   18.8166   44.9708  -12.2991 H   0  0  0  0  0  0
   21.7361   42.1079   -8.3648 H   0  0  0  0  0  0
   22.9330   41.2612   -7.3989 H   0  0  0  0  0  0
   23.1754   42.9469   -7.7965 H   0  0  0  0  0  0
   18.0096   45.8565   -6.0371 H   0  0  0  0  0  0
  1  2  1  0  0  0
  1 40  1  0  0  0
  1 41  1  0  0  0
  1 42  1  0  0  0
  2  3  1  0  0  0
  2 43  1  0  0  0
  2 44  1  0  0  0
  3  4  1  0  0  0
  3 45  1  0  0  0
  3 46  1  0  0  0
  4  5  1  0  0  0
  4 47  1  0  0  0
  4 48  1  0  0  0
  5  6  1  0  0  0
  5 49  1  0  0  0
  6  7  2  0  0  0
  6  8  1  0  0  0
  8 35  1  0  0  0
  8  9  1  0  0  0
  8 10  1  0  0  0
  9 50  1  0  0  0
  9 51  1  0  0  0
  9 52  1  0  0  0
 10 11  1  0  0  0
 10 53  1  0  0  0
 10 54  1  0  0  0
 11 36  1  0  0  0
 11 12  1  0  0  0
 11 34  1  0  0  0
 12 37  1  0  0  0
 12 31  1  0  0  0
 12 13  1  0  0  0
 13 14  1  0  0  0
 13 55  1  0  0  0
 13 56  1  0  0  0
 14 38  1  0  0  0
 14 15  1  0  0  0
 14 33  1  0  0  0
 15 16  1  0  0  0
 15 57  1  0  0  0
 15 58  1  0  0  0
 16 17  1  0  0  0
 16 59  1  0  0  0
 16 60  1  0  0  0
 17 22  1  0  0  0
 17 18  2  0  0  0
 18 19  1  0  0  0
 18 61  1  0  0  0
 19 20  2  0  0  0
 19 62  1  0  0  0
 20 21  1  0  0  0
 20 63  1  0  0  0
 21 22  2  0  0  0
 21 23  1  0  0  0
 22 64  1  0  0  0
 23 24  1  0  0  0
 23 65  1  0  0  0
 23 66  1  0  0  0
 24 25  2  0  0  0
 24 26  2  0  0  0
 24 27  1  0  0  0
 27 28  1  0  0  0
 27 67  1  0  0  0
 27 68  1  0  0  0
 28 39  1  0  0  0
 28 29  1  0  0  0
 28 32  1  0  0  0
 29 30  2  0  0  0
 29 31  1  0  0  0
 31 69  1  0  0  0
 32 70  1  0  0  0
 32 71  1  0  0  0
 32 72  1  0  0  0
 33 73  1  0  0  0
 33 74  1  0  0  0
 33 75  1  0  0  0
 34 76  1  0  0  0
M  END
> <s_m_source_file>
BACE_19.smi

> <i_m_source_file_index>
1

> <i_lp_mmshare_version>
42013

> <i_f3d_flags>
0

> <s_epik_input>
W0NIM11bQ0gyXVtDSDJdW0NIMl1bTkhdQyg9TylbQ0BIXShbQ0gzXSlbQ0gyXVtDQEhdKFtPSF0pW0NASF0oW0NIMl1bQ0BIXShbQ0gzXSlbQ0gyXVtDSDJdMSlbTkhdQyg9TylbQ0BIXShbQ0gzXSlbQ0gyXVMoPU8pKD1PKVtDSDJdYyhbY0hdMilbY0hdW2NIXVtjSF1jMTI=

> <s_epik_cmdline>
J2VwaWtfcHl0aG9uJywgJy1waCcsICc3LjAnLCAnLXRuJywgJzgnLCAnLW1hJywgJzIwMCcsICctaW1hZScsICc8aW5maWxlLm1hZT4nLCAnLW9tYWUnLCAnPG91dGZpbGUubWFlPic=

> <r_lp_tautomer_probability>
1

> <r_epik_Ionization_Penalty>
  0.0000

> <r_epik_Ionization_Penalty_Charging>
  0.0000

> <r_epik_Ionization_Penalty_Neutral>
  0.0000

> <r_epik_State_Penalty>
 -0.0000

> <r_epik_Charging_Adjusted_Penalty>
0

> <i_epik_Tot_Q>
0

> <i_epik_Tot_abs_Q>
0

> <s_lp_Force_Field>
OPLS_2005

> <r_lp_Energy>
20.3216

> <b_lp_Chiralities_Consistent>
1

> <s_lp_Variant>
BACE_19.smi:1-1

> <chiral flag>
1

> <version>
0

> <r_i_glide_lipo>
-1.11123

> <r_i_glide_hbond>
-0.357278

> <r_i_glide_metal>
-0

> <r_i_glide_rewards>
-0.0961787

> <r_i_glide_erotb>
0.582966

> <r_i_glide_esite>
-0.165645

> <chiral flag>
1

> <s_i_glide_gridfile>
second_dock_grid_2

> <i_i_glide_lignum>
36

> <i_i_glide_rotatable_bonds>
9

> <r_i_docking_score>
-3.55021

> <r_i_glide_ligand_efficiency>
-0.104418

> <r_i_glide_ligand_efficiency_sa>
-0.338274

> <r_i_glide_ligand_efficiency_ln>
-0.784341

> <r_glide_XP_GScore>
-3.55021

> <r_i_glide_gscore>
-3.55021

> <r_i_glide_evdw>
-33.1957

> <r_i_glide_ecoul>
-8.8252

> <r_i_glide_energy>
-42.0209

> <r_i_glide_einternal>
10.8777

> <r_i_glide_emodel>
-54.0324

> <r_glide_XP_HBond>
-0.585493

> <i_i_glide_confnum>
1

> <i_i_glide_posenum>
34

> <r_i_glide_eff_state_penalty>
-0

> <i_glide_XP_PoseRank>
6

$$$$
BACE_19.smi:1
                    3D
 Structure written by MMmdl.
 76 77  0  0  1  0            999 V2000
   21.7242   40.7931   -3.4041 C   0  0  0  0  0  0
   20.9777   41.1958   -4.6845 C   0  0  0  0  0  0
   21.9298   41.5069   -5.8514 C   0  0  0  0  0  0
   21.9336   40.4576   -6.9774 C   0  0  0  0  0  0
   22.8982   40.7554   -8.0249 N   0  0  0  0  0  0
   23.5063   41.9280   -8.2399 C   0  0  0  0  0  0
   23.3535   42.9051   -7.5090 O   0  0  0  0  0  0
   24.3855   41.9961   -9.4939 C   0  0  2  0  0  0
   25.2972   43.2384   -9.4503 C   0  0  0  0  0  0
   23.5788   41.8078  -10.8073 C   0  0  0  0  0  0
   22.1622   42.4445  -10.8479 C   0  0  1  0  0  0
   21.0080   41.4926  -10.4033 C   0  0  2  0  0  0
   20.9088   40.1727  -11.2150 C   0  0  0  0  0  0
   19.8835   39.1056  -10.7389 C   0  0  1  0  0  0
   19.9753   38.8107   -9.2130 C   0  0  0  0  0  0
   18.9285   37.8454   -8.6066 C   0  0  0  0  0  0
   17.5464   38.4655   -8.4318 C   0  0  0  0  0  0
   16.4110   37.8063   -8.9454 C   0  0  0  0  0  0
   15.1465   38.4203   -8.8666 C   0  0  0  0  0  0
   15.0213   39.6998   -8.2982 C   0  0  0  0  0  0
   16.1441   40.3732   -7.7748 C   0  0  0  0  0  0
   17.3955   39.7198   -7.8002 C   0  0  0  0  0  0
   15.9752   41.7729   -7.1819 C   0  0  0  0  0  0
   17.1911   43.0141   -7.8487 S   0  0  0  0  0  0
   16.8293   44.3442   -7.3340 O   0  0  0  0  0  0
   18.5641   42.5300   -7.6478 O   0  0  0  0  0  0
   16.8353   42.9717   -9.6663 C   0  0  0  0  0  0
   17.8467   43.7365  -10.5518 C   0  0  2  0  0  0
   19.0031   42.8720  -11.0816 C   0  0  0  0  0  0
   19.2600   42.8761  -12.2842 O   0  0  0  0  0  0
   19.7276   42.1879  -10.1836 N   0  0  0  0  0  0
   18.3719   45.0634   -9.9781 C   0  0  0  0  0  0
   18.4685   39.4056  -11.2618 C   0  0  0  0  0  0
   22.1420   43.6151  -10.0595 O   0  0  0  0  0  0
   25.0441   41.1272   -9.4263 H   0  0  0  0  0  0
   21.9639   42.7984  -11.8591 H   0  0  0  0  0  0
   21.2866   41.1819   -9.4024 H   0  0  0  0  0  0
   20.1712   38.1831  -11.2451 H   0  0  0  0  0  0
   17.2898   44.0084  -11.4474 H   0  0  0  0  0  0
   21.0197   40.5621   -2.6041 H   0  0  0  0  0  0
   22.3665   41.6001   -3.0525 H   0  0  0  0  0  0
   22.3440   39.9106   -3.5637 H   0  0  0  0  0  0
   20.2913   40.3956   -4.9651 H   0  0  0  0  0  0
   20.3680   42.0723   -4.4703 H   0  0  0  0  0  0
   21.6649   42.4753   -6.2784 H   0  0  0  0  0  0
   22.9425   41.6008   -5.4670 H   0  0  0  0  0  0
   22.1773   39.4746   -6.5796 H   0  0  0  0  0  0
   20.9391   40.3787   -7.4165 H   0  0  0  0  0  0
   23.1515   39.9982   -8.6513 H   0  0  0  0  0  0
   25.8121   43.3239   -8.4943 H   0  0  0  0  0  0
   24.7422   44.1656   -9.5769 H   0  0  0  0  0  0
   26.0671   43.1831  -10.2183 H   0  0  0  0  0  0
   24.1882   42.1542  -11.6397 H   0  0  0  0  0  0
   23.4848   40.7383  -10.9965 H   0  0  0  0  0  0
   20.7346   40.3986  -12.2673 H   0  0  0  0  0  0
   21.8968   39.7102  -11.1921 H   0  0  0  0  0  0
   20.9629   38.3853   -9.0279 H   0  0  0  0  0  0
   19.9552   39.7287   -8.6341 H   0  0  0  0  0  0
   18.8653   36.9405   -9.2124 H   0  0  0  0  0  0
   19.2643   37.5282   -7.6188 H   0  0  0  0  0  0
   16.5069   36.8405   -9.4173 H   0  0  0  0  0  0
   14.2757   37.9129   -9.2583 H   0  0  0  0  0  0
   14.0427   40.1529   -8.2351 H   0  0  0  0  0  0
   18.2589   40.1910   -7.3590 H   0  0  0  0  0  0
   14.9778   42.1565   -7.3938 H   0  0  0  0  0  0
   16.0600   41.7433   -6.1000 H   0  0  0  0  0  0
   16.7555   41.9338   -9.9751 H   0  0  0  0  0  0
   15.8487   43.4064   -9.8069 H   0  0  0  0  0  0
   19.4157   42.2415   -9.2165 H   0  0  0  0  0  0
   19.0300   45.5587  -10.6936 H   0  0  0  0  0  0
   18.9438   44.9198   -9.0616 H   0  0  0  0  0  0
   17.5547   45.7529   -9.7623 H   0  0  0  0  0  0
   17.9693   40.1668  -10.6686 H   0  0  0  0  0  0
   17.8488   38.5104  -11.2385 H   0  0  0  0  0  0
   18.4871   39.7470  -12.2978 H   0  0  0  0  0  0
   22.4524   43.3793   -9.1904 H   0  0  0  0  0  0
  1  2  1  0  0  0
  1 40  1  0  0  0
  1 41  1  0  0  0
  1 42  1  0  0  0
  2  3  1  0  0  0
  2 43  1  0  0  0
  2 44  1  0  0  0
  3  4  1  0  0  0
  3 45  1  0  0  0
  3 46  1  0  0  0
  4  5  1  0  0  0
  4 47  1  0  0  0
  4 48  1  0  0  0
  5  6  1  0  0  0
  5 49  1  0  0  0
  6  7  2  0  0  0
  6  8  1  0  0  0
  8 35  1  0  0  0
  8  9  1  0  0  0
  8 10  1  0  0  0
  9 50  1  0  0  0
  9 51  1  0  0  0
  9 52  1  0  0  0
 10 11  1  0  0  0
 10 53  1  0  0  0
 10 54  1  0  0  0
 11 36  1  0  0  0
 11 12  1  0  0  0
 11 34  1  0  0  0
 12 37  1  0  0  0
 12 31  1  0  0  0
 12 13  1  0  0  0
 13 14  1  0  0  0
 13 55  1  0  0  0
 13 56  1  0  0  0
 14 38  1  0  0  0
 14 15  1  0  0  0
 14 33  1  0  0  0
 15 16  1  0  0  0
 15 57  1  0  0  0
 15 58  1  0  0  0
 16 17  1  0  0  0
 16 59  1  0  0  0
 16 60  1  0  0  0
 17 22  1  0  0  0
 17 18  2  0  0  0
 18 19  1  0  0  0
 18 61  1  0  0  0
 19 20  2  0  0  0
 19 62  1  0  0  0
 20 21  1  0  0  0
 20 63  1  0  0  0
 21 22  2  0  0  0
 21 23  1  0  0  0
 22 64  1  0  0  0
 23 24  1  0  0  0
 23 65  1  0  0  0
 23 66  1  0  0  0
 24 25  2  0  0  0
 24 26  2  0  0  0
 24 27  1  0  0  0
 27 28  1  0  0  0
 27 67  1  0  0  0
 27 68  1  0  0  0
 28 39  1  0  0  0
 28 29  1  0  0  0
 28 32  1  0  0  0
 29 30  2  0  0  0
 29 31  1  0  0  0
 31 69  1  0  0  0
 32 70  1  0  0  0
 32 71  1  0  0  0
 32 72  1  0  0  0
 33 73  1  0  0  0
 33 74  1  0  0  0
 33 75  1  0  0  0
 34 76  1  0  0  0
M  END
> <s_m_source_file>
BACE_19.smi

> <i_m_source_file_index>
1

> <i_lp_mmshare_version>
42013

> <i_f3d_flags>
0

> <s_epik_input>
W0NIM11bQ0gyXVtDSDJdW0NIMl1bTkhdQyg9TylbQ0BIXShbQ0gzXSlbQ0gyXVtDQEhdKFtPSF0pW0NASF0oW0NIMl1bQ0BIXShbQ0gzXSlbQ0gyXVtDSDJdMSlbTkhdQyg9TylbQ0BIXShbQ0gzXSlbQ0gyXVMoPU8pKD1PKVtDSDJdYyhbY0hdMilbY0hdW2NIXVtjSF1jMTI=

> <s_epik_cmdline>
J2VwaWtfcHl0aG9uJywgJy1waCcsICc3LjAnLCAnLXRuJywgJzgnLCAnLW1hJywgJzIwMCcsICctaW1hZScsICc8aW5maWxlLm1hZT4nLCAnLW9tYWUnLCAnPG91dGZpbGUubWFlPic=

> <r_lp_tautomer_probability>
1

> <r_epik_Ionization_Penalty>
  0.0000

> <r_epik_Ionization_Penalty_Charging>
  0.0000

> <r_epik_Ionization_Penalty_Neutral>
  0.0000

> <r_epik_State_Penalty>
 -0.0000

> <r_epik_Charging_Adjusted_Penalty>
0

> <i_epik_Tot_Q>
0

> <i_epik_Tot_abs_Q>
0

> <s_lp_Force_Field>
OPLS_2005

> <r_lp_Energy>
20.3216

> <b_lp_Chiralities_Consistent>
1

> <s_lp_Variant>
BACE_19.smi:1-1

> <chiral flag>
1

> <version>
0

> <r_i_glide_lipo>
-1.11123

> <r_i_glide_hbond>
-0.357278

> <r_i_glide_metal>
-0

> <r_i_glide_rewards>
-0.0961787

> <r_i_glide_erotb>
0.582966

> <r_i_glide_esite>
-0.165645

> <chiral flag>
1

> <s_i_glide_gridfile>
second_dock_grid_2

> <i_i_glide_lignum>
36

> <i_i_glide_rotatable_bonds>
9

> <r_i_docking_score>
-3.12805

> <r_i_glide_ligand_efficiency>
-0.0920016

> <r_i_glide_ligand_efficiency_sa>
-0.298049

> <r_i_glide_ligand_efficiency_ln>
-0.691075

> <r_glide_XP_GScore>
-3.12805

> <r_i_glide_gscore>
-3.12805

> <r_i_glide_evdw>
-32.5614

> <r_i_glide_ecoul>
-7.21965

> <r_i_glide_energy>
-39.781

> <r_i_glide_einternal>
2.75525

> <r_i_glide_emodel>
-55.492

> <r_glide_XP_HBond>
-0.585493

> <i_i_glide_confnum>
1

> <i_i_glide_posenum>
44

> <r_i_glide_eff_state_penalty>
-0

> <i_glide_XP_PoseRank>
7

$$$$
BACE_19.smi:1
                    3D
 Structure written by MMmdl.
 76 77  0  0  1  0            999 V2000
   27.3990   43.7608  -12.8413 C   0  0  0  0  0  0
   28.3424   42.7483  -12.1778 C   0  0  0  0  0  0
   27.9386   42.3337  -10.7510 C   0  0  0  0  0  0
   26.7122   41.4027  -10.6467 C   0  0  0  0  0  0
   25.4444   42.0303  -11.0018 N   0  0  0  0  0  0
   24.8311   43.0334  -10.3603 C   0  0  0  0  0  0
   25.2988   43.5876   -9.3657 O   0  0  0  0  0  0
   23.4747   43.4697  -10.9348 C   0  0  2  0  0  0
   23.6668   44.6262  -11.9319 C   0  0  0  0  0  0
   22.4712   43.8445   -9.8157 C   0  0  0  0  0  0
   20.9852   43.6696  -10.2090 C   0  0  1  0  0  0
   20.3692   42.3060   -9.7765 C   0  0  2  0  0  0
   21.1138   41.0603  -10.3429 C   0  0  0  0  0  0
   20.5884   39.6483   -9.9654 C   0  0  1  0  0  0
   20.2952   39.4987   -8.4473 C   0  0  0  0  0  0
   19.5804   38.2082   -7.9906 C   0  0  0  0  0  0
   18.0738   38.2470   -8.1983 C   0  0  0  0  0  0
   17.4394   37.2532   -8.9709 C   0  0  0  0  0  0
   16.0602   37.3407   -9.2402 C   0  0  0  0  0  0
   15.3083   38.4225   -8.7430 C   0  0  0  0  0  0
   15.9332   39.4141   -7.9591 C   0  0  0  0  0  0
   17.3052   39.3024   -7.6584 C   0  0  0  0  0  0
   15.1539   40.6444   -7.5273 C   0  0  0  0  0  0
   15.7734   42.1491   -8.4267 S   0  0  0  0  0  0
   14.7042   43.1611   -8.4447 O   0  0  0  0  0  0
   17.1004   42.5135   -7.9042 O   0  0  0  0  0  0
   16.0213   41.5432  -10.1637 C   0  0  0  0  0  0
   16.7334   42.5345  -11.1237 C   0  0  2  0  0  0
   18.2681   42.4139  -11.1771 C   0  0  0  0  0  0
   18.8397   42.4706  -12.2669 O   0  0  0  0  0  0
   18.9192   42.2721  -10.0121 N   0  0  0  0  0  0
   16.2930   44.0027  -11.0065 C   0  0  0  0  0  0
   19.4664   39.1723  -10.9054 C   0  0  0  0  0  0
   20.2621   44.7044   -9.5621 O   0  0  0  0  0  0
   23.0769   42.6196  -11.4906 H   0  0  0  0  0  0
   20.8735   43.8207  -11.2840 H   0  0  0  0  0  0
   20.4753   42.2730   -8.6925 H   0  0  0  0  0  0
   21.4145   38.9669  -10.1779 H   0  0  0  0  0  0
   16.4359   42.2054  -12.1159 H   0  0  0  0  0  0
   27.8553   44.1785  -13.7379 H   0  0  0  0  0  0
   27.1667   44.5898  -12.1689 H   0  0  0  0  0  0
   26.4611   43.2930  -13.1422 H   0  0  0  0  0  0
   28.4500   41.8670  -12.8117 H   0  0  0  0  0  0
   29.3343   43.1999  -12.1258 H   0  0  0  0  0  0
   28.7863   41.7995  -10.3219 H   0  0  0  0  0  0
   27.8109   43.2157  -10.1242 H   0  0  0  0  0  0
   26.8555   40.5493  -11.3080 H   0  0  0  0  0  0
   26.6301   40.9963   -9.6400 H   0  0  0  0  0  0
   24.9593   41.6269  -11.7962 H   0  0  0  0  0  0
   24.3354   44.3413  -12.7445 H   0  0  0  0  0  0
   24.0900   45.5084  -11.4483 H   0  0  0  0  0  0
   22.7202   44.9193  -12.3856 H   0  0  0  0  0  0
   22.6662   43.2781   -8.9041 H   0  0  0  0  0  0
   22.6626   44.8836   -9.5398 H   0  0  0  0  0  0
   21.1789   41.1408  -11.4287 H   0  0  0  0  0  0
   22.1449   41.1068   -9.9925 H   0  0  0  0  0  0
   21.2553   39.5452   -7.9324 H   0  0  0  0  0  0
   19.7352   40.3489   -8.0677 H   0  0  0  0  0  0
   20.0135   37.3504   -8.5028 H   0  0  0  0  0  0
   19.7530   38.0581   -6.9247 H   0  0  0  0  0  0
   18.0119   36.4353   -9.3814 H   0  0  0  0  0  0
   15.5846   36.5843   -9.8469 H   0  0  0  0  0  0
   14.2561   38.4948   -8.9806 H   0  0  0  0  0  0
   17.7772   40.0643   -7.0550 H   0  0  0  0  0  0
   14.0879   40.5133   -7.7430 H   0  0  0  0  0  0
   15.2519   40.8147   -6.4521 H   0  0  0  0  0  0
   16.5785   40.6110  -10.1308 H   0  0  0  0  0  0
   15.0320   41.2881  -10.5412 H   0  0  0  0  0  0
   18.3386   42.2534   -9.1783 H   0  0  0  0  0  0
   16.7387   44.6117  -11.7943 H   0  0  0  0  0  0
   16.5951   44.4382  -10.0532 H   0  0  0  0  0  0
   15.2107   44.0950  -11.0901 H   0  0  0  0  0  0
   18.5091   39.6224  -10.6614 H   0  0  0  0  0  0
   19.3400   38.0917  -10.8513 H   0  0  0  0  0  0
   19.6888   39.4075  -11.9463 H   0  0  0  0  0  0
   20.2520   44.5268   -8.6342 H   0  0  0  0  0  0
  1  2  1  0  0  0
  1 40  1  0  0  0
  1 41  1  0  0  0
  1 42  1  0  0  0
  2  3  1  0  0  0
  2 43  1  0  0  0
  2 44  1  0  0  0
  3  4  1  0  0  0
  3 45  1  0  0  0
  3 46  1  0  0  0
  4  5  1  0  0  0
  4 47  1  0  0  0
  4 48  1  0  0  0
  5  6  1  0  0  0
  5 49  1  0  0  0
  6  7  2  0  0  0
  6  8  1  0  0  0
  8 35  1  0  0  0
  8  9  1  0  0  0
  8 10  1  0  0  0
  9 50  1  0  0  0
  9 51  1  0  0  0
  9 52  1  0  0  0
 10 11  1  0  0  0
 10 53  1  0  0  0
 10 54  1  0  0  0
 11 36  1  0  0  0
 11 12  1  0  0  0
 11 34  1  0  0  0
 12 37  1  0  0  0
 12 31  1  0  0  0
 12 13  1  0  0  0
 13 14  1  0  0  0
 13 55  1  0  0  0
 13 56  1  0  0  0
 14 38  1  0  0  0
 14 15  1  0  0  0
 14 33  1  0  0  0
 15 16  1  0  0  0
 15 57  1  0  0  0
 15 58  1  0  0  0
 16 17  1  0  0  0
 16 59  1  0  0  0
 16 60  1  0  0  0
 17 22  1  0  0  0
 17 18  2  0  0  0
 18 19  1  0  0  0
 18 61  1  0  0  0
 19 20  2  0  0  0
 19 62  1  0  0  0
 20 21  1  0  0  0
 20 63  1  0  0  0
 21 22  2  0  0  0
 21 23  1  0  0  0
 22 64  1  0  0  0
 23 24  1  0  0  0
 23 65  1  0  0  0
 23 66  1  0  0  0
 24 25  2  0  0  0
 24 26  2  0  0  0
 24 27  1  0  0  0
 27 28  1  0  0  0
 27 67  1  0  0  0
 27 68  1  0  0  0
 28 39  1  0  0  0
 28 29  1  0  0  0
 28 32  1  0  0  0
 29 30  2  0  0  0
 29 31  1  0  0  0
 31 69  1  0  0  0
 32 70  1  0  0  0
 32 71  1  0  0  0
 32 72  1  0  0  0
 33 73  1  0  0  0
 33 74  1  0  0  0
 33 75  1  0  0  0
 34 76  1  0  0  0
M  END
> <s_m_source_file>
BACE_19.smi

> <i_m_source_file_index>
1

> <i_lp_mmshare_version>
42013

> <i_f3d_flags>
0

> <s_epik_input>
W0NIM11bQ0gyXVtDSDJdW0NIMl1bTkhdQyg9TylbQ0BIXShbQ0gzXSlbQ0gyXVtDQEhdKFtPSF0pW0NASF0oW0NIMl1bQ0BIXShbQ0gzXSlbQ0gyXVtDSDJdMSlbTkhdQyg9TylbQ0BIXShbQ0gzXSlbQ0gyXVMoPU8pKD1PKVtDSDJdYyhbY0hdMilbY0hdW2NIXVtjSF1jMTI=

> <s_epik_cmdline>
J2VwaWtfcHl0aG9uJywgJy1waCcsICc3LjAnLCAnLXRuJywgJzgnLCAnLW1hJywgJzIwMCcsICctaW1hZScsICc8aW5maWxlLm1hZT4nLCAnLW9tYWUnLCAnPG91dGZpbGUubWFlPic=

> <r_lp_tautomer_probability>
1

> <r_epik_Ionization_Penalty>
  0.0000

> <r_epik_Ionization_Penalty_Charging>
  0.0000

> <r_epik_Ionization_Penalty_Neutral>
  0.0000

> <r_epik_State_Penalty>
 -0.0000

> <r_epik_Charging_Adjusted_Penalty>
0

> <i_epik_Tot_Q>
0

> <i_epik_Tot_abs_Q>
0

> <s_lp_Force_Field>
OPLS_2005

> <r_lp_Energy>
20.3216

> <b_lp_Chiralities_Consistent>
1

> <s_lp_Variant>
BACE_19.smi:1-1

> <chiral flag>
1

> <version>
0

> <r_i_glide_lipo>
-1.11123

> <r_i_glide_hbond>
-0.357278

> <r_i_glide_metal>
-0

> <r_i_glide_rewards>
-0.0961787

> <r_i_glide_erotb>
0.582966

> <r_i_glide_esite>
-0.165645

> <chiral flag>
1

> <s_i_glide_gridfile>
second_dock_grid_2

> <i_i_glide_lignum>
36

> <i_i_glide_rotatable_bonds>
9

> <r_i_docking_score>
-3.04692

> <r_i_glide_ligand_efficiency>
-0.0896154

> <r_i_glide_ligand_efficiency_sa>
-0.290319

> <r_i_glide_ligand_efficiency_ln>
-0.673151

> <r_glide_XP_GScore>
-3.04692

> <r_i_glide_gscore>
-3.04692

> <r_i_glide_evdw>
-38.7235

> <r_i_glide_ecoul>
-6.45526

> <r_i_glide_energy>
-45.1788

> <r_i_glide_einternal>
7.3074

> <r_i_glide_emodel>
-57.8445

> <r_glide_XP_HBond>
-0.585493

> <i_i_glide_confnum>
1

> <i_i_glide_posenum>
29

> <r_i_glide_eff_state_penalty>
-0

> <i_glide_XP_PoseRank>
8

$$$$
BACE_19.smi:1
                    3D
 Structure written by MMmdl.
 76 77  0  0  1  0            999 V2000
   22.0984   42.5522   -3.1788 C   0  0  0  0  0  0
   22.9284   41.6914   -4.1375 C   0  0  0  0  0  0
   22.1729   40.4513   -4.6467 C   0  0  0  0  0  0
   21.5108   40.6349   -6.0211 C   0  0  0  0  0  0
   22.5064   40.7438   -7.0888 N   0  0  0  0  0  0
   22.8605   41.8831   -7.7068 C   0  0  0  0  0  0
   22.3499   42.9706   -7.4378 O   0  0  0  0  0  0
   23.9767   41.7873   -8.7656 C   0  0  2  0  0  0
   24.8471   43.0604   -8.7528 C   0  0  0  0  0  0
   23.5287   41.4101  -10.2124 C   0  0  0  0  0  0
   22.1368   41.8381  -10.7597 C   0  0  1  0  0  0
   20.9094   41.0379  -10.2250 C   0  0  2  0  0  0
   21.0001   39.5137  -10.5344 C   0  0  0  0  0  0
   19.8689   38.5914  -10.0208 C   0  0  1  0  0  0
   19.6380   38.6966   -8.4919 C   0  0  0  0  0  0
   18.4296   37.9280   -7.9058 C   0  0  0  0  0  0
   17.0854   38.5521   -8.2445 C   0  0  0  0  0  0
   16.0739   37.7698   -8.8374 C   0  0  0  0  0  0
   14.8600   38.3647   -9.2234 C   0  0  0  0  0  0
   14.6636   39.7463   -9.0569 C   0  0  0  0  0  0
   15.6702   40.5367   -8.4644 C   0  0  0  0  0  0
   16.8603   39.9272   -8.0198 C   0  0  0  0  0  0
   15.4653   42.0303   -8.2952 C   0  0  0  0  0  0
   16.7159   43.0304   -9.2310 S   0  0  0  0  0  0
   16.2047   44.4060   -9.3376 O   0  0  0  0  0  0
   18.0451   42.8028   -8.6465 O   0  0  0  0  0  0
   16.6951   42.2815  -10.9313 C   0  0  0  0  0  0
   17.8419   42.7382  -11.8831 C   0  0  2  0  0  0
   19.1274   41.8887  -11.8084 C   0  0  0  0  0  0
   19.6485   41.4643  -12.8404 O   0  0  0  0  0  0
   19.6369   41.6666  -10.5906 N   0  0  0  0  0  0
   18.1704   44.2401  -11.8335 C   0  0  0  0  0  0
   18.6107   38.7308  -10.8765 C   0  0  0  0  0  0
   21.9729   43.2332  -10.5847 O   0  0  0  0  0  0
   24.6383   40.9839   -8.4395 H   0  0  0  0  0  0
   22.1696   41.6800  -11.8389 H   0  0  0  0  0  0
   20.8845   41.1428   -9.1505 H   0  0  0  0  0  0
   20.2168   37.5755  -10.2004 H   0  0  0  0  0  0
   17.4651   42.5509  -12.8884 H   0  0  0  0  0  0
   22.6721   43.4124   -2.8340 H   0  0  0  0  0  0
   21.7927   41.9842   -2.3000 H   0  0  0  0  0  0
   21.1983   42.9277   -3.6651 H   0  0  0  0  0  0
   23.2729   42.3115   -4.9606 H   0  0  0  0  0  0
   23.8355   41.3601   -3.6399 H   0  0  0  0  0  0
   22.8600   39.6077   -4.7021 H   0  0  0  0  0  0
   21.4187   40.1541   -3.9163 H   0  0  0  0  0  0
   20.8931   39.7601   -6.2189 H   0  0  0  0  0  0
   20.8256   41.4856   -6.0111 H   0  0  0  0  0  0
   22.9662   39.8914   -7.3715 H   0  0  0  0  0  0
   25.1642   43.3182   -7.7413 H   0  0  0  0  0  0
   24.3111   43.9164   -9.1620 H   0  0  0  0  0  0
   25.7507   42.9214   -9.3465 H   0  0  0  0  0  0
   24.2727   41.8177  -10.8975 H   0  0  0  0  0  0
   23.6547   40.3371  -10.3416 H   0  0  0  0  0  0
   21.1235   39.3706  -11.6081 H   0  0  0  0  0  0
   21.9158   39.1249  -10.0945 H   0  0  0  0  0  0
   20.5381   38.3170   -8.0079 H   0  0  0  0  0  0
   19.5644   39.7366   -8.1869 H   0  0  0  0  0  0
   18.4524   36.8933   -8.2440 H   0  0  0  0  0  0
   18.5067   37.8985   -6.8185 H   0  0  0  0  0  0
   16.2236   36.7123   -8.9889 H   0  0  0  0  0  0
   14.0690   37.7607   -9.6399 H   0  0  0  0  0  0
   13.7256   40.1856   -9.3660 H   0  0  0  0  0  0
   17.6152   40.5274   -7.5343 H   0  0  0  0  0  0
   14.4676   42.3229   -8.6187 H   0  0  0  0  0  0
   15.5554   42.2788   -7.2400 H   0  0  0  0  0  0
   16.6922   41.2013  -10.8308 H   0  0  0  0  0  0
   15.7271   42.5393  -11.3547 H   0  0  0  0  0  0
   19.1277   42.0770   -9.8114 H   0  0  0  0  0  0
   18.8769   44.5136  -12.6177 H   0  0  0  0  0  0
   18.6191   44.5257  -10.8807 H   0  0  0  0  0  0
   17.2753   44.8441  -11.9780 H   0  0  0  0  0  0
   17.9858   39.5454  -10.5354 H   0  0  0  0  0  0
   18.0176   37.8202  -10.8396 H   0  0  0  0  0  0
   18.8543   38.9364  -11.9173 H   0  0  0  0  0  0
   22.7325   43.6690  -10.9388 H   0  0  0  0  0  0
  1  2  1  0  0  0
  1 40  1  0  0  0
  1 41  1  0  0  0
  1 42  1  0  0  0
  2  3  1  0  0  0
  2 43  1  0  0  0
  2 44  1  0  0  0
  3  4  1  0  0  0
  3 45  1  0  0  0
  3 46  1  0  0  0
  4  5  1  0  0  0
  4 47  1  0  0  0
  4 48  1  0  0  0
  5  6  1  0  0  0
  5 49  1  0  0  0
  6  7  2  0  0  0
  6  8  1  0  0  0
  8 35  1  0  0  0
  8  9  1  0  0  0
  8 10  1  0  0  0
  9 50  1  0  0  0
  9 51  1  0  0  0
  9 52  1  0  0  0
 10 11  1  0  0  0
 10 53  1  0  0  0
 10 54  1  0  0  0
 11 36  1  0  0  0
 11 12  1  0  0  0
 11 34  1  0  0  0
 12 37  1  0  0  0
 12 31  1  0  0  0
 12 13  1  0  0  0
 13 14  1  0  0  0
 13 55  1  0  0  0
 13 56  1  0  0  0
 14 38  1  0  0  0
 14 15  1  0  0  0
 14 33  1  0  0  0
 15 16  1  0  0  0
 15 57  1  0  0  0
 15 58  1  0  0  0
 16 17  1  0  0  0
 16 59  1  0  0  0
 16 60  1  0  0  0
 17 22  1  0  0  0
 17 18  2  0  0  0
 18 19  1  0  0  0
 18 61  1  0  0  0
 19 20  2  0  0  0
 19 62  1  0  0  0
 20 21  1  0  0  0
 20 63  1  0  0  0
 21 22  2  0  0  0
 21 23  1  0  0  0
 22 64  1  0  0  0
 23 24  1  0  0  0
 23 65  1  0  0  0
 23 66  1  0  0  0
 24 25  2  0  0  0
 24 26  2  0  0  0
 24 27  1  0  0  0
 27 28  1  0  0  0
 27 67  1  0  0  0
 27 68  1  0  0  0
 28 39  1  0  0  0
 28 29  1  0  0  0
 28 32  1  0  0  0
 29 30  2  0  0  0
 29 31  1  0  0  0
 31 69  1  0  0  0
 32 70  1  0  0  0
 32 71  1  0  0  0
 32 72  1  0  0  0
 33 73  1  0  0  0
 33 74  1  0  0  0
 33 75  1  0  0  0
 34 76  1  0  0  0
M  END
> <s_m_source_file>
BACE_19.smi

> <i_m_source_file_index>
1

> <i_lp_mmshare_version>
42013

> <i_f3d_flags>
0

> <s_epik_input>
W0NIM11bQ0gyXVtDSDJdW0NIMl1bTkhdQyg9TylbQ0BIXShbQ0gzXSlbQ0gyXVtDQEhdKFtPSF0pW0NASF0oW0NIMl1bQ0BIXShbQ0gzXSlbQ0gyXVtDSDJdMSlbTkhdQyg9TylbQ0BIXShbQ0gzXSlbQ0gyXVMoPU8pKD1PKVtDSDJdYyhbY0hdMilbY0hdW2NIXVtjSF1jMTI=

> <s_epik_cmdline>
J2VwaWtfcHl0aG9uJywgJy1waCcsICc3LjAnLCAnLXRuJywgJzgnLCAnLW1hJywgJzIwMCcsICctaW1hZScsICc8aW5maWxlLm1hZT4nLCAnLW9tYWUnLCAnPG91dGZpbGUubWFlPic=

> <r_lp_tautomer_probability>
1

> <r_epik_Ionization_Penalty>
  0.0000

> <r_epik_Ionization_Penalty_Charging>
  0.0000

> <r_epik_Ionization_Penalty_Neutral>
  0.0000

> <r_epik_State_Penalty>
 -0.0000

> <r_epik_Charging_Adjusted_Penalty>
0

> <i_epik_Tot_Q>
0

> <i_epik_Tot_abs_Q>
0

> <s_lp_Force_Field>
OPLS_2005

> <r_lp_Energy>
20.3216

> <b_lp_Chiralities_Consistent>
1

> <s_lp_Variant>
BACE_19.smi:1-1

> <chiral flag>
1

> <version>
0

> <r_i_glide_lipo>
-1.11123

> <r_i_glide_hbond>
-0.357278

> <r_i_glide_metal>
-0

> <r_i_glide_rewards>
-0.0961787

> <r_i_glide_erotb>
0.582966

> <r_i_glide_esite>
-0.165645

> <chiral flag>
1

> <s_i_glide_gridfile>
second_dock_grid_2

> <i_i_glide_lignum>
36

> <i_i_glide_rotatable_bonds>
9

> <r_i_docking_score>
-2.84772

> <r_i_glide_ligand_efficiency>
-0.0837564

> <r_i_glide_ligand_efficiency_sa>
-0.271338

> <r_i_glide_ligand_efficiency_ln>
-0.629141

> <r_glide_XP_GScore>
-2.84772

> <r_i_glide_gscore>
-2.84772

> <r_i_glide_evdw>
-41.3952

> <r_i_glide_ecoul>
-3.69497

> <r_i_glide_energy>
-45.0902

> <r_i_glide_einternal>
2.71101

> <r_i_glide_emodel>
-59.4246

> <r_glide_XP_HBond>
-0.585493

> <i_i_glide_confnum>
1

> <i_i_glide_posenum>
32

> <r_i_glide_eff_state_penalty>
-0

> <i_glide_XP_PoseRank>
9

$$$$
BACE_19.smi:1
                    3D
 Structure written by MMmdl.
 76 77  0  0  1  0            999 V2000
   20.9537   40.8680   -3.4291 C   0  0  0  0  0  0
   20.9253   41.6064   -4.7748 C   0  0  0  0  0  0
   20.8458   40.6658   -5.9909 C   0  0  0  0  0  0
   22.1715   39.9219   -6.2770 C   0  0  0  0  0  0
   22.8669   40.2979   -7.5148 N   0  0  0  0  0  0
   23.1767   41.5401   -7.9281 C   0  0  0  0  0  0
   22.7515   42.5602   -7.3879 O   0  0  0  0  0  0
   24.1360   41.6576   -9.1236 C   0  0  2  0  0  0
   24.9948   42.9358   -9.0175 C   0  0  0  0  0  0
   23.4812   41.5257  -10.5284 C   0  0  0  0  0  0
   22.0484   42.0706  -10.7967 C   0  0  1  0  0  0
   20.8649   41.1966  -10.2871 C   0  0  2  0  0  0
   20.8554   39.7412  -10.8498 C   0  0  0  0  0  0
   19.7787   38.7562  -10.3241 C   0  0  1  0  0  0
   19.7538   38.6530   -8.7746 C   0  0  0  0  0  0
   18.6068   37.8499   -8.1165 C   0  0  0  0  0  0
   17.2590   38.5391   -8.2144 C   0  0  0  0  0  0
   16.1671   37.8920   -8.8326 C   0  0  0  0  0  0
   14.9669   38.5917   -9.0469 C   0  0  0  0  0  0
   14.8597   39.9369   -8.6516 C   0  0  0  0  0  0
   15.9323   40.5770   -8.0002 C   0  0  0  0  0  0
   17.1182   39.8637   -7.7548 C   0  0  0  0  0  0
   15.8117   42.0222   -7.5618 C   0  0  0  0  0  0
   16.9554   43.1461   -8.4853 S   0  0  0  0  0  0
   16.4878   44.5304   -8.3054 O   0  0  0  0  0  0
   18.3427   42.8071   -8.1313 O   0  0  0  0  0  0
   16.6772   42.6794  -10.2609 C   0  0  0  0  0  0
   17.7188   43.2409  -11.2678 C   0  0  2  0  0  0
   18.9315   42.3221  -11.4945 C   0  0  0  0  0  0
   19.2598   42.0206  -12.6412 O   0  0  0  0  0  0
   19.5878   41.9067  -10.4009 N   0  0  0  0  0  0
   18.1702   44.6903  -11.0125 C   0  0  0  0  0  0
   18.4222   39.0227  -10.9760 C   0  0  0  0  0  0
   21.9560   43.3911  -10.2898 O   0  0  0  0  0  0
   24.8421   40.8306   -9.0296 H   0  0  0  0  0  0
   21.9417   42.1514  -11.8793 H   0  0  0  0  0  0
   20.9749   41.1189   -9.2158 H   0  0  0  0  0  0
   20.0643   37.7698  -10.6882 H   0  0  0  0  0  0
   17.2077   43.2517  -12.2309 H   0  0  0  0  0  0
   20.9922   41.5764   -2.5999 H   0  0  0  0  0  0
   21.8229   40.2162   -3.3438 H   0  0  0  0  0  0
   20.0608   40.2551   -3.2974 H   0  0  0  0  0  0
   20.0590   42.2659   -4.7908 H   0  0  0  0  0  0
   21.7970   42.2573   -4.8594 H   0  0  0  0  0  0
   20.0505   39.9391   -5.8165 H   0  0  0  0  0  0
   20.5226   41.2388   -6.8591 H   0  0  0  0  0  0
   22.8577   40.0421   -5.4414 H   0  0  0  0  0  0
   21.9718   38.8518   -6.3360 H   0  0  0  0  0  0
   23.2462   39.5355   -8.0593 H   0  0  0  0  0  0
   25.3933   43.0688   -8.0118 H   0  0  0  0  0  0
   24.4194   43.8300   -9.2609 H   0  0  0  0  0  0
   25.8460   42.8940   -9.6990 H   0  0  0  0  0  0
   24.1436   42.0333  -11.2296 H   0  0  0  0  0  0
   23.5481   40.4856  -10.8401 H   0  0  0  0  0  0
   20.8200   39.7769  -11.9394 H   0  0  0  0  0  0
   21.8100   39.2750  -10.6141 H   0  0  0  0  0  0
   20.6995   38.2117   -8.4603 H   0  0  0  0  0  0
   19.7406   39.6462   -8.3389 H   0  0  0  0  0  0
   18.5466   36.8484   -8.5404 H   0  0  0  0  0  0
   18.8228   37.7384   -7.0538 H   0  0  0  0  0  0
   16.2585   36.8698   -9.1668 H   0  0  0  0  0  0
   14.1285   38.1072   -9.5239 H   0  0  0  0  0  0
   13.9407   40.4667   -8.8414 H   0  0  0  0  0  0
   17.9364   40.3549   -7.2483 H   0  0  0  0  0  0
   14.7920   42.3827   -7.6764 H   0  0  0  0  0  0
   16.0592   42.0914   -6.5017 H   0  0  0  0  0  0
   16.6318   41.5954  -10.3263 H   0  0  0  0  0  0
   15.6813   43.0354  -10.5169 H   0  0  0  0  0  0
   19.1982   42.2183   -9.5135 H   0  0  0  0  0  0
   18.8072   45.0506  -11.8221 H   0  0  0  0  0  0
   18.7427   44.7824  -10.0896 H   0  0  0  0  0  0
   17.3159   45.3635  -10.9442 H   0  0  0  0  0  0
   17.9102   39.8563  -10.5104 H   0  0  0  0  0  0
   17.7827   38.1509  -10.8647 H   0  0  0  0  0  0
   18.5175   39.2410  -12.0397 H   0  0  0  0  0  0
   22.0589   43.3560   -9.3479 H   0  0  0  0  0  0
  1  2  1  0  0  0
  1 40  1  0  0  0
  1 41  1  0  0  0
  1 42  1  0  0  0
  2  3  1  0  0  0
  2 43  1  0  0  0
  2 44  1  0  0  0
  3  4  1  0  0  0
  3 45  1  0  0  0
  3 46  1  0  0  0
  4  5  1  0  0  0
  4 47  1  0  0  0
  4 48  1  0  0  0
  5  6  1  0  0  0
  5 49  1  0  0  0
  6  7  2  0  0  0
  6  8  1  0  0  0
  8 35  1  0  0  0
  8  9  1  0  0  0
  8 10  1  0  0  0
  9 50  1  0  0  0
  9 51  1  0  0  0
  9 52  1  0  0  0
 10 11  1  0  0  0
 10 53  1  0  0  0
 10 54  1  0  0  0
 11 36  1  0  0  0
 11 12  1  0  0  0
 11 34  1  0  0  0
 12 37  1  0  0  0
 12 31  1  0  0  0
 12 13  1  0  0  0
 13 14  1  0  0  0
 13 55  1  0  0  0
 13 56  1  0  0  0
 14 38  1  0  0  0
 14 15  1  0  0  0
 14 33  1  0  0  0
 15 16  1  0  0  0
 15 57  1  0  0  0
 15 58  1  0  0  0
 16 17  1  0  0  0
 16 59  1  0  0  0
 16 60  1  0  0  0
 17 22  1  0  0  0
 17 18  2  0  0  0
 18 19  1  0  0  0
 18 61  1  0  0  0
 19 20  2  0  0  0
 19 62  1  0  0  0
 20 21  1  0  0  0
 20 63  1  0  0  0
 21 22  2  0  0  0
 21 23  1  0  0  0
 22 64  1  0  0  0
 23 24  1  0  0  0
 23 65  1  0  0  0
 23 66  1  0  0  0
 24 25  2  0  0  0
 24 26  2  0  0  0
 24 27  1  0  0  0
 27 28  1  0  0  0
 27 67  1  0  0  0
 27 68  1  0  0  0
 28 39  1  0  0  0
 28 29  1  0  0  0
 28 32  1  0  0  0
 29 30  2  0  0  0
 29 31  1  0  0  0
 31 69  1  0  0  0
 32 70  1  0  0  0
 32 71  1  0  0  0
 32 72  1  0  0  0
 33 73  1  0  0  0
 33 74  1  0  0  0
 33 75  1  0  0  0
 34 76  1  0  0  0
M  END
> <s_m_source_file>
BACE_19.smi

> <i_m_source_file_index>
1

> <i_lp_mmshare_version>
42013

> <i_f3d_flags>
0

> <s_epik_input>
W0NIM11bQ0gyXVtDSDJdW0NIMl1bTkhdQyg9TylbQ0BIXShbQ0gzXSlbQ0gyXVtDQEhdKFtPSF0pW0NASF0oW0NIMl1bQ0BIXShbQ0gzXSlbQ0gyXVtDSDJdMSlbTkhdQyg9TylbQ0BIXShbQ0gzXSlbQ0gyXVMoPU8pKD1PKVtDSDJdYyhbY0hdMilbY0hdW2NIXVtjSF1jMTI=

> <s_epik_cmdline>
J2VwaWtfcHl0aG9uJywgJy1waCcsICc3LjAnLCAnLXRuJywgJzgnLCAnLW1hJywgJzIwMCcsICctaW1hZScsICc8aW5maWxlLm1hZT4nLCAnLW9tYWUnLCAnPG91dGZpbGUubWFlPic=

> <r_lp_tautomer_probability>
1

> <r_epik_Ionization_Penalty>
  0.0000

> <r_epik_Ionization_Penalty_Charging>
  0.0000

> <r_epik_Ionization_Penalty_Neutral>
  0.0000

> <r_epik_State_Penalty>
 -0.0000

> <r_epik_Charging_Adjusted_Penalty>
0

> <i_epik_Tot_Q>
0

> <i_epik_Tot_abs_Q>
0

> <s_lp_Force_Field>
OPLS_2005

> <r_lp_Energy>
20.3216

> <b_lp_Chiralities_Consistent>
1

> <s_lp_Variant>
BACE_19.smi:1-1

> <chiral flag>
1

> <version>
0

> <r_i_glide_lipo>
-1.11123

> <r_i_glide_hbond>
-0.357278

> <r_i_glide_metal>
-0

> <r_i_glide_rewards>
-0.0961787

> <r_i_glide_erotb>
0.582966

> <r_i_glide_esite>
-0.165645

> <chiral flag>
1

> <s_i_glide_gridfile>
second_dock_grid_2

> <i_i_glide_lignum>
36

> <i_i_glide_rotatable_bonds>
9

> <r_i_docking_score>
-2.31789

> <r_i_glide_ligand_efficiency>
-0.0681732

> <r_i_glide_ligand_efficiency_sa>
-0.220855

> <r_i_glide_ligand_efficiency_ln>
-0.512087

> <r_glide_XP_GScore>
-2.31789

> <r_i_glide_gscore>
-2.31789

> <r_i_glide_evdw>
-39.2814

> <r_i_glide_ecoul>
-6.32581

> <r_i_glide_energy>
-45.6072

> <r_i_glide_einternal>
8.367

> <r_i_glide_emodel>
-55.6969

> <r_glide_XP_HBond>
-0.585493

> <i_i_glide_confnum>
1

> <i_i_glide_posenum>
30

> <r_i_glide_eff_state_penalty>
-0

> <i_glide_XP_PoseRank>
10

$$$$
