BACE_15.smi:1
                    3D
 Structure written by MMmdl.
 82 85  0  0  1  0            999 V2000
   26.6777   49.1924   -2.4107 C   0  0  0  0  0  0
   25.4156   49.8283   -1.7954 C   0  0  0  0  0  0
   25.0894   49.2004   -0.4336 C   0  0  0  0  0  0
   24.1996   49.7870   -2.7171 C   0  0  0  0  0  0
   23.1707   50.7489   -2.6158 C   0  0  0  0  0  0
   22.0603   50.6962   -3.4780 C   0  0  0  0  0  0
   21.9582   49.6718   -4.4383 C   0  0  0  0  0  0
   22.9789   48.7067   -4.5612 C   0  0  0  0  0  0
   24.1019   48.7779   -3.6994 C   0  0  0  0  0  0
   22.8355   47.6231   -5.6262 C   0  0  0  0  0  0
   21.7845   47.8868   -6.6078 N   0  0  0  0  0  0
   20.9791   46.7258   -6.9692 C   0  0  0  0  0  0
   20.2241   46.1484   -5.7484 C   0  0  2  0  0  0
   20.3804   44.6111   -5.5825 C   0  0  2  0  0  0
   21.8366   44.0961   -5.7097 C   0  0  0  0  0  0
   21.9729   42.6101   -5.4324 C   0  0  0  0  0  0
   21.7747   42.1231   -4.1251 C   0  0  0  0  0  0
   21.8623   40.7437   -3.8699 C   0  0  0  0  0  0
   22.1376   39.8506   -4.9225 C   0  0  0  0  0  0
   22.3427   40.3207   -6.2365 C   0  0  0  0  0  0
   22.2761   41.7158   -6.4799 C   0  0  0  0  0  0
   22.5811   39.3595   -7.1952 O   0  0  0  0  0  0
   22.8120   39.7285   -8.5508 C   0  0  0  0  0  0
   22.3550   38.5488   -9.4184 C   0  0  0  0  0  0
   20.8203   38.4484   -9.4786 C   0  0  0  0  0  0
   20.2054   39.3194  -10.5864 C   0  0  0  0  0  0
   18.8071   39.4697  -10.3746 O   0  0  0  0  0  0
   18.3421   40.4689   -9.5442 C   0  0  0  0  0  0
   16.9716   40.4355   -9.2366 C   0  0  0  0  0  0
   16.3835   41.3885   -8.3826 C   0  0  0  0  0  0
   17.1821   42.4254   -7.8494 C   0  0  0  0  0  0
   18.5553   42.5025   -8.1776 C   0  0  0  0  0  0
   19.1273   41.5180   -9.0112 C   0  0  0  0  0  0
   19.4187   43.6269   -7.6902 C   0  0  0  0  0  0
   20.1489   44.2370   -8.4724 O   0  0  0  0  0  0
   19.4081   43.8295   -6.3628 N   0  0  0  0  0  0
   14.8939   41.3109   -8.0782 C   0  0  0  0  0  0
   14.4603   40.0092   -7.6968 O   0  0  0  0  0  0
   15.3828   39.2701   -6.9103 C   0  0  0  0  0  0
   18.8665   46.4773   -5.9514 O   0  0  0  0  0  0
   20.5708   46.6445   -4.8409 H   0  0  0  0  0  0
   20.0702   44.3865   -4.5625 H   0  0  0  0  0  0
   26.8940   49.5996   -3.3977 H   0  0  0  0  0  0
   26.5812   48.1114   -2.5136 H   0  0  0  0  0  0
   27.5511   49.3734   -1.7839 H   0  0  0  0  0  0
   25.6461   50.8795   -1.6226 H   0  0  0  0  0  0
   24.2585   49.7134    0.0498 H   0  0  0  0  0  0
   25.9435   49.2525    0.2409 H   0  0  0  0  0  0
   24.8174   48.1497   -0.5391 H   0  0  0  0  0  0
   23.2167   51.5377   -1.8810 H   0  0  0  0  0  0
   21.2822   51.4414   -3.3934 H   0  0  0  0  0  0
   21.0954   49.6359   -5.0885 H   0  0  0  0  0  0
   24.9068   48.0614   -3.7800 H   0  0  0  0  0  0
   23.7957   47.4926   -6.1240 H   0  0  0  0  0  0
   22.6350   46.6828   -5.1131 H   0  0  0  0  0  0
   22.1873   48.2868   -7.4588 H   0  0  0  0  0  0
   20.2575   47.0014   -7.7387 H   0  0  0  0  0  0
   21.6130   45.9583   -7.4144 H   0  0  0  0  0  0
   22.2342   44.3192   -6.6995 H   0  0  0  0  0  0
   22.4802   44.6209   -5.0055 H   0  0  0  0  0  0
   21.5424   42.8020   -3.3165 H   0  0  0  0  0  0
   21.7009   40.3668   -2.8706 H   0  0  0  0  0  0
   22.1868   38.7896   -4.7215 H   0  0  0  0  0  0
   22.4319   42.1274   -7.4650 H   0  0  0  0  0  0
   22.2680   40.6147   -8.8680 H   0  0  0  0  0  0
   23.8757   39.9222   -8.6888 H   0  0  0  0  0  0
   22.7592   38.6426  -10.4260 H   0  0  0  0  0  0
   22.7702   37.6271   -9.0085 H   0  0  0  0  0  0
   20.5239   37.4143   -9.6484 H   0  0  0  0  0  0
   20.4005   38.7170   -8.5088 H   0  0  0  0  0  0
   20.7199   40.2695  -10.7141 H   0  0  0  0  0  0
   20.3322   38.8084  -11.5401 H   0  0  0  0  0  0
   16.3633   39.6591   -9.6735 H   0  0  0  0  0  0
   16.7320   43.1751   -7.2137 H   0  0  0  0  0  0
   20.1793   41.6027   -9.2280 H   0  0  0  0  0  0
   18.7686   43.2599   -5.8281 H   0  0  0  0  0  0
   14.6740   41.9777   -7.2423 H   0  0  0  0  0  0
   14.3154   41.6913   -8.9235 H   0  0  0  0  0  0
   15.0455   38.2367   -6.8404 H   0  0  0  0  0  0
   15.4476   39.6521   -5.8946 H   0  0  0  0  0  0
   16.3812   39.2616   -7.3533 H   0  0  0  0  0  0
   18.5821   46.0504   -6.7528 H   0  0  0  0  0  0
  1  2  1  0  0  0
  1 43  1  0  0  0
  1 44  1  0  0  0
  1 45  1  0  0  0
  2  3  1  0  0  0
  2  4  1  0  0  0
  2 46  1  0  0  0
  3 47  1  0  0  0
  3 48  1  0  0  0
  3 49  1  0  0  0
  4  9  1  0  0  0
  4  5  2  0  0  0
  5  6  1  0  0  0
  5 50  1  0  0  0
  6  7  2  0  0  0
  6 51  1  0  0  0
  7  8  1  0  0  0
  7 52  1  0  0  0
  8  9  2  0  0  0
  8 10  1  0  0  0
  9 53  1  0  0  0
 10 11  1  0  0  0
 10 54  1  0  0  0
 10 55  1  0  0  0
 11 12  1  0  0  0
 11 56  1  0  0  0
 12 13  1  0  0  0
 12 57  1  0  0  0
 12 58  1  0  0  0
 13 41  1  0  0  0
 13 14  1  0  0  0
 13 40  1  0  0  0
 14 42  1  0  0  0
 14 36  1  0  0  0
 14 15  1  0  0  0
 15 16  1  0  0  0
 15 59  1  0  0  0
 15 60  1  0  0  0
 16 21  1  0  0  0
 16 17  2  0  0  0
 17 18  1  0  0  0
 17 61  1  0  0  0
 18 19  2  0  0  0
 18 62  1  0  0  0
 19 20  1  0  0  0
 19 63  1  0  0  0
 20 21  2  0  0  0
 20 22  1  0  0  0
 21 64  1  0  0  0
 22 23  1  0  0  0
 23 24  1  0  0  0
 23 65  1  0  0  0
 23 66  1  0  0  0
 24 25  1  0  0  0
 24 67  1  0  0  0
 24 68  1  0  0  0
 25 26  1  0  0  0
 25 69  1  0  0  0
 25 70  1  0  0  0
 26 27  1  0  0  0
 26 71  1  0  0  0
 26 72  1  0  0  0
 27 28  1  0  0  0
 28 33  1  0  0  0
 28 29  2  0  0  0
 29 30  1  0  0  0
 29 73  1  0  0  0
 30 31  2  0  0  0
 30 37  1  0  0  0
 31 32  1  0  0  0
 31 74  1  0  0  0
 32 33  2  0  0  0
 32 34  1  0  0  0
 33 75  1  0  0  0
 34 35  2  0  0  0
 34 36  1  0  0  0
 36 76  1  0  0  0
 37 38  1  0  0  0
 37 77  1  0  0  0
 37 78  1  0  0  0
 38 39  1  0  0  0
 39 79  1  0  0  0
 39 80  1  0  0  0
 39 81  1  0  0  0
 40 82  1  0  0  0
M  END
> <s_m_source_file>
BACE_15.smi

> <i_m_source_file_index>
1

> <i_lp_mmshare_version>
42013

> <i_f3d_flags>
0

> <s_epik_input>
W0NIM11bQ0hdKFtDSDNdKWMxW2NIXVtjSF1bY0hdYyhbY0hdMSlbQ0gyXVtOSF1bQ0gyXVtDQEBIXShbT0hdKVtDQEhdKFtDSDJdMilbTkhdQyg9TyljKFtjSF0zKVtjSF1jKFtDSDJdT1tDSDNdKVtjSF1jM09bQ0gyXVtDSDJdW0NIMl1bQ0gyXU9jKFtjSF00KVtjSF1bY0hdW2NIXWMyNA==

> <s_epik_cmdline>
J2VwaWtfcHl0aG9uJywgJy1waCcsICc3LjAnLCAnLXRuJywgJzgnLCAnLW1hJywgJzIwMCcsICctaW1hZScsICc8aW5maWxlLm1hZT4nLCAnLW9tYWUnLCAnPG91dGZpbGUubWFlPic=

> <r_lp_tautomer_probability>
1

> <r_epik_Ionization_Penalty>
  2.0439

> <r_epik_Ionization_Penalty_Charging>
  0.0000

> <r_epik_Ionization_Penalty_Neutral>
  2.0439

> <r_epik_State_Penalty>
  2.1759

> <r_epik_Charging_Adjusted_Penalty>
2.17586

> <i_epik_Tot_Q>
0

> <i_epik_Tot_abs_Q>
0

> <s_lp_Force_Field>
OPLS_2005

> <r_lp_Energy>
41.685

> <b_lp_Chiralities_Consistent>
1

> <s_lp_Variant>
BACE_15.smi:1-2

> <chiral flag>
1

> <version>
0

> <r_i_glide_lipo>
-1.28438

> <r_i_glide_hbond>
-0.32

> <r_i_glide_metal>
-0

> <r_i_glide_rewards>
0

> <r_i_glide_erotb>
0.415786

> <r_i_glide_esite>
-0.00194306

> <chiral flag>
1

> <s_i_glide_gridfile>
second_dock_grid_2

> <i_i_glide_lignum>
31

> <i_i_glide_rotatable_bonds>
9

> <r_i_docking_score>
-2.32817

> <r_i_glide_ligand_efficiency>
-0.0582042

> <r_i_glide_ligand_efficiency_sa>
-0.199056

> <r_i_glide_ligand_efficiency_ln>
-0.49653

> <r_glide_XP_GScore>
-4.50407

> <r_i_glide_gscore>
-4.50407

> <r_i_glide_evdw>
-42.2061

> <r_i_glide_ecoul>
-5.2177

> <r_i_glide_energy>
-47.4238

> <r_i_glide_einternal>
2.84608

> <r_i_glide_emodel>
-72.3757

> <r_glide_XP_HBond>
-0.701921

> <i_i_glide_confnum>
1

> <i_i_glide_posenum>
2

> <r_i_glide_eff_state_penalty>
2.1759

> <i_glide_XP_PoseRank>
1

$$$$
BACE_15.smi:1
                    3D
 Structure written by MMmdl.
 82 85  0  0  1  0            999 V2000
   16.6620   36.3219   -9.3078 C   0  0  0  0  0  0
   16.6686   37.7914   -8.8794 C   0  0  0  0  0  0
   16.2764   38.7456  -10.0155 C   0  0  0  0  0  0
   18.0046   38.1799   -8.2690 C   0  0  0  0  0  0
   18.0447   38.5756   -6.9202 C   0  0  0  0  0  0
   19.2605   38.9521   -6.3344 C   0  0  0  0  0  0
   20.4495   38.9427   -7.0837 C   0  0  0  0  0  0
   20.4243   38.5546   -8.4379 C   0  0  0  0  0  0
   19.2003   38.1631   -9.0259 C   0  0  0  0  0  0
   21.7055   38.6131   -9.2494 C   0  0  0  0  0  0
   21.7990   39.8617   -9.9994 N   0  0  0  0  0  0
   21.2327   39.7875  -11.3434 C   0  0  0  0  0  0
   20.7280   41.1459  -11.8644 C   0  0  2  0  0  0
   19.4157   41.6241  -11.1726 C   0  0  2  0  0  0
   18.6055   42.6771  -11.9884 C   0  0  0  0  0  0
   17.4294   43.2786  -11.2267 C   0  0  0  0  0  0
   16.3131   42.4739  -10.9234 C   0  0  0  0  0  0
   15.2605   42.9927  -10.1496 C   0  0  0  0  0  0
   15.3244   44.3152   -9.6740 C   0  0  0  0  0  0
   16.4269   45.1430   -9.9742 C   0  0  0  0  0  0
   17.4708   44.6179  -10.7787 C   0  0  0  0  0  0
   16.4033   46.4140   -9.4366 O   0  0  0  0  0  0
   17.5454   47.2607   -9.5399 C   0  0  0  0  0  0
   17.5765   48.1701   -8.2998 C   0  0  0  0  0  0
   17.8549   47.3958   -6.9937 C   0  0  0  0  0  0
   19.3298   47.4199   -6.5559 C   0  0  0  0  0  0
   19.6114   46.3625   -5.6410 O   0  0  0  0  0  0
   19.9584   45.1235   -6.1483 C   0  0  0  0  0  0
   20.3730   44.1467   -5.2271 C   0  0  0  0  0  0
   20.7514   42.8523   -5.6397 C   0  0  0  0  0  0
   20.7059   42.5266   -7.0123 C   0  0  0  0  0  0
   20.3012   43.4918   -7.9579 C   0  0  0  0  0  0
   19.9365   44.7816   -7.5222 C   0  0  0  0  0  0
   20.3010   43.1912   -9.4251 C   0  0  0  0  0  0
   20.7908   43.9927  -10.2216 O   0  0  0  0  0  0
   19.6629   42.0684   -9.7934 N   0  0  0  0  0  0
   21.2397   41.8115   -4.6395 C   0  0  0  0  0  0
   21.2950   42.2585   -3.2876 O   0  0  0  0  0  0
   20.0659   42.1179   -2.5874 C   0  0  0  0  0  0
   20.4957   40.9273  -13.2400 O   0  0  0  0  0  0
   21.5123   41.8996  -11.7860 H   0  0  0  0  0  0
   18.7639   40.7557  -11.0721 H   0  0  0  0  0  0
   16.8456   35.6737   -8.4513 H   0  0  0  0  0  0
   17.4439   36.1345  -10.0399 H   0  0  0  0  0  0
   15.7055   36.0395   -9.7479 H   0  0  0  0  0  0
   15.9073   37.8910   -8.1042 H   0  0  0  0  0  0
   16.2157   39.7682   -9.6439 H   0  0  0  0  0  0
   15.2996   38.4900  -10.4251 H   0  0  0  0  0  0
   17.0017   38.7318  -10.8308 H   0  0  0  0  0  0
   17.1411   38.5886   -6.3253 H   0  0  0  0  0  0
   19.2599   39.2709   -5.3037 H   0  0  0  0  0  0
   21.3765   39.2487   -6.6207 H   0  0  0  0  0  0
   19.1698   37.8638  -10.0621 H   0  0  0  0  0  0
   22.5468   38.5428   -8.5602 H   0  0  0  0  0  0
   21.7872   37.7492   -9.9075 H   0  0  0  0  0  0
   22.7687   40.1647  -10.0440 H   0  0  0  0  0  0
   22.0011   39.4038  -12.0145 H   0  0  0  0  0  0
   20.4109   39.0720  -11.3874 H   0  0  0  0  0  0
   19.2613   43.4823  -12.3180 H   0  0  0  0  0  0
   18.2201   42.2190  -12.8986 H   0  0  0  0  0  0
   16.2735   41.4497  -11.2624 H   0  0  0  0  0  0
   14.4175   42.3653   -9.8992 H   0  0  0  0  0  0
   14.5261   44.6965   -9.0569 H   0  0  0  0  0  0
   18.3335   45.2125  -11.0396 H   0  0  0  0  0  0
   18.4899   46.7271   -9.5951 H   0  0  0  0  0  0
   17.4566   47.8569  -10.4466 H   0  0  0  0  0  0
   18.3199   48.9563   -8.4300 H   0  0  0  0  0  0
   16.6201   48.6833   -8.2232 H   0  0  0  0  0  0
   17.2596   47.8193   -6.1848 H   0  0  0  0  0  0
   17.5127   46.3670   -7.1058 H   0  0  0  0  0  0
   20.0158   47.4169   -7.4041 H   0  0  0  0  0  0
   19.5277   48.3626   -6.0435 H   0  0  0  0  0  0
   20.4103   44.4115   -4.1837 H   0  0  0  0  0  0
   21.0140   41.5464   -7.3434 H   0  0  0  0  0  0
   19.6367   45.4939   -8.2695 H   0  0  0  0  0  0
   19.2928   41.4802   -9.0588 H   0  0  0  0  0  0
   20.6332   40.9096   -4.7203 H   0  0  0  0  0  0
   22.2530   41.5273   -4.9300 H   0  0  0  0  0  0
   20.1774   42.5124   -1.5774 H   0  0  0  0  0  0
   19.7720   41.0686   -2.5096 H   0  0  0  0  0  0
   19.2598   42.6673   -3.0739 H   0  0  0  0  0  0
   21.3074   40.6073  -13.6096 H   0  0  0  0  0  0
  1  2  1  0  0  0
  1 43  1  0  0  0
  1 44  1  0  0  0
  1 45  1  0  0  0
  2  3  1  0  0  0
  2  4  1  0  0  0
  2 46  1  0  0  0
  3 47  1  0  0  0
  3 48  1  0  0  0
  3 49  1  0  0  0
  4  9  1  0  0  0
  4  5  2  0  0  0
  5  6  1  0  0  0
  5 50  1  0  0  0
  6  7  2  0  0  0
  6 51  1  0  0  0
  7  8  1  0  0  0
  7 52  1  0  0  0
  8  9  2  0  0  0
  8 10  1  0  0  0
  9 53  1  0  0  0
 10 11  1  0  0  0
 10 54  1  0  0  0
 10 55  1  0  0  0
 11 12  1  0  0  0
 11 56  1  0  0  0
 12 13  1  0  0  0
 12 57  1  0  0  0
 12 58  1  0  0  0
 13 41  1  0  0  0
 13 14  1  0  0  0
 13 40  1  0  0  0
 14 42  1  0  0  0
 14 36  1  0  0  0
 14 15  1  0  0  0
 15 16  1  0  0  0
 15 59  1  0  0  0
 15 60  1  0  0  0
 16 21  1  0  0  0
 16 17  2  0  0  0
 17 18  1  0  0  0
 17 61  1  0  0  0
 18 19  2  0  0  0
 18 62  1  0  0  0
 19 20  1  0  0  0
 19 63  1  0  0  0
 20 21  2  0  0  0
 20 22  1  0  0  0
 21 64  1  0  0  0
 22 23  1  0  0  0
 23 24  1  0  0  0
 23 65  1  0  0  0
 23 66  1  0  0  0
 24 25  1  0  0  0
 24 67  1  0  0  0
 24 68  1  0  0  0
 25 26  1  0  0  0
 25 69  1  0  0  0
 25 70  1  0  0  0
 26 27  1  0  0  0
 26 71  1  0  0  0
 26 72  1  0  0  0
 27 28  1  0  0  0
 28 33  1  0  0  0
 28 29  2  0  0  0
 29 30  1  0  0  0
 29 73  1  0  0  0
 30 31  2  0  0  0
 30 37  1  0  0  0
 31 32  1  0  0  0
 31 74  1  0  0  0
 32 33  2  0  0  0
 32 34  1  0  0  0
 33 75  1  0  0  0
 34 35  2  0  0  0
 34 36  1  0  0  0
 36 76  1  0  0  0
 37 38  1  0  0  0
 37 77  1  0  0  0
 37 78  1  0  0  0
 38 39  1  0  0  0
 39 79  1  0  0  0
 39 80  1  0  0  0
 39 81  1  0  0  0
 40 82  1  0  0  0
M  END
> <s_m_source_file>
BACE_15.smi

> <i_m_source_file_index>
1

> <i_lp_mmshare_version>
42013

> <i_f3d_flags>
0

> <s_epik_input>
W0NIM11bQ0hdKFtDSDNdKWMxW2NIXVtjSF1bY0hdYyhbY0hdMSlbQ0gyXVtOSF1bQ0gyXVtDQEBIXShbT0hdKVtDQEhdKFtDSDJdMilbTkhdQyg9TyljKFtjSF0zKVtjSF1jKFtDSDJdT1tDSDNdKVtjSF1jM09bQ0gyXVtDSDJdW0NIMl1bQ0gyXU9jKFtjSF00KVtjSF1bY0hdW2NIXWMyNA==

> <s_epik_cmdline>
J2VwaWtfcHl0aG9uJywgJy1waCcsICc3LjAnLCAnLXRuJywgJzgnLCAnLW1hJywgJzIwMCcsICctaW1hZScsICc8aW5maWxlLm1hZT4nLCAnLW9tYWUnLCAnPG91dGZpbGUubWFlPic=

> <r_lp_tautomer_probability>
1

> <r_epik_Ionization_Penalty>
  2.0439

> <r_epik_Ionization_Penalty_Charging>
  0.0000

> <r_epik_Ionization_Penalty_Neutral>
  2.0439

> <r_epik_State_Penalty>
  2.1759

> <r_epik_Charging_Adjusted_Penalty>
2.17586

> <i_epik_Tot_Q>
0

> <i_epik_Tot_abs_Q>
0

> <s_lp_Force_Field>
OPLS_2005

> <r_lp_Energy>
41.685

> <b_lp_Chiralities_Consistent>
1

> <s_lp_Variant>
BACE_15.smi:1-2

> <chiral flag>
1

> <version>
0

> <r_i_glide_lipo>
-1.28438

> <r_i_glide_hbond>
-0.32

> <r_i_glide_metal>
-0

> <r_i_glide_rewards>
0

> <r_i_glide_erotb>
0.415786

> <r_i_glide_esite>
-0.00194306

> <chiral flag>
1

> <s_i_glide_gridfile>
second_dock_grid_2

> <i_i_glide_lignum>
31

> <i_i_glide_rotatable_bonds>
9

> <r_i_docking_score>
-2.09652

> <r_i_glide_ligand_efficiency>
-0.052413

> <r_i_glide_ligand_efficiency_sa>
-0.17925

> <r_i_glide_ligand_efficiency_ln>
-0.447126

> <r_glide_XP_GScore>
-4.27242

> <r_i_glide_gscore>
-4.27242

> <r_i_glide_evdw>
-45.8407

> <r_i_glide_ecoul>
-5.27652

> <r_i_glide_energy>
-51.1172

> <r_i_glide_einternal>
0.913142

> <r_i_glide_emodel>
-74.6702

> <r_glide_XP_HBond>
-0.701921

> <i_i_glide_confnum>
1

> <i_i_glide_posenum>
5

> <r_i_glide_eff_state_penalty>
2.1759

> <i_glide_XP_PoseRank>
2

$$$$
BACE_15.smi:1
                    3D
 Structure written by MMmdl.
 82 85  0  0  1  0            999 V2000
   16.6672   36.2623   -9.2581 C   0  0  0  0  0  0
   16.6456   37.7216   -8.8017 C   0  0  0  0  0  0
   16.1351   38.6792   -9.8850 C   0  0  0  0  0  0
   18.0044   38.1602   -8.2781 C   0  0  0  0  0  0
   18.1054   38.6012   -6.9471 C   0  0  0  0  0  0
   19.3481   39.0047   -6.4387 C   0  0  0  0  0  0
   20.4999   38.9579   -7.2369 C   0  0  0  0  0  0
   20.4113   38.5575   -8.5787 C   0  0  0  0  0  0
   19.1610   38.1438   -9.0967 C   0  0  0  0  0  0
   21.6678   38.6131   -9.4291 C   0  0  0  0  0  0
   21.7477   39.8379  -10.2134 N   0  0  0  0  0  0
   21.0191   39.7829  -11.4763 C   0  0  0  0  0  0
   20.4913   41.1589  -11.9120 C   0  0  2  0  0  0
   19.2997   41.6521  -11.0352 C   0  0  2  0  0  0
   18.4084   42.7490  -11.6900 C   0  0  0  0  0  0
   17.3257   43.2750  -10.7545 C   0  0  0  0  0  0
   16.2213   42.4583  -10.4415 C   0  0  0  0  0  0
   15.2742   42.8863   -9.4948 C   0  0  0  0  0  0
   15.4289   44.1327   -8.8596 C   0  0  0  0  0  0
   16.5105   44.9799   -9.1788 C   0  0  0  0  0  0
   17.4491   44.5472  -10.1523 C   0  0  0  0  0  0
   16.5787   46.1679   -8.4815 O   0  0  0  0  0  0
   17.6188   47.1022   -8.7563 C   0  0  0  0  0  0
   17.8212   47.9674   -7.5021 C   0  0  0  0  0  0
   18.4618   47.1787   -6.3438 C   0  0  0  0  0  0
   19.9977   47.2727   -6.3194 C   0  0  0  0  0  0
   20.5560   46.2278   -5.5290 O   0  0  0  0  0  0
   20.7339   44.9753   -6.0798 C   0  0  0  0  0  0
   21.1929   43.9484   -5.2300 C   0  0  0  0  0  0
   21.4255   42.6455   -5.7119 C   0  0  0  0  0  0
   21.1993   42.3642   -7.0769 C   0  0  0  0  0  0
   20.7254   43.3730   -7.9413 C   0  0  0  0  0  0
   20.5035   44.6692   -7.4405 C   0  0  0  0  0  0
   20.5016   43.1161   -9.3983 C   0  0  0  0  0  0
   20.9165   43.9130  -10.2399 O   0  0  0  0  0  0
   19.7479   42.0451   -9.6935 N   0  0  0  0  0  0
   21.9823   41.5737   -4.7824 C   0  0  0  0  0  0
   21.6992   41.7801   -3.4034 O   0  0  0  0  0  0
   20.3507   41.5155   -3.0495 C   0  0  0  0  0  0
   20.0599   40.9546  -13.2368 O   0  0  0  0  0  0
   21.2981   41.8925  -11.9416 H   0  0  0  0  0  0
   18.6448   40.7955  -10.8680 H   0  0  0  0  0  0
   16.9297   35.6034   -8.4302 H   0  0  0  0  0  0
   17.4078   36.1277  -10.0399 H   0  0  0  0  0  0
   15.6937   35.9532   -9.6415 H   0  0  0  0  0  0
   15.9317   37.7649   -7.9778 H   0  0  0  0  0  0
   16.0247   39.6821   -9.4736 H   0  0  0  0  0  0
   15.1582   38.3714  -10.2563 H   0  0  0  0  0  0
   16.8189   38.7386  -10.7309 H   0  0  0  0  0  0
   17.2327   38.6301   -6.3092 H   0  0  0  0  0  0
   19.4117   39.3493   -5.4178 H   0  0  0  0  0  0
   21.4527   39.2523   -6.8268 H   0  0  0  0  0  0
   19.0809   37.8107  -10.1193 H   0  0  0  0  0  0
   22.5326   38.5544   -8.7673 H   0  0  0  0  0  0
   21.7295   37.7495  -10.0713 H   0  0  0  0  0  0
   22.7193   40.0896  -10.3743 H   0  0  0  0  0  0
   21.6641   39.3680  -12.2495 H   0  0  0  0  0  0
   20.1758   39.0986  -11.4110 H   0  0  0  0  0  0
   19.0237   43.5789  -12.0386 H   0  0  0  0  0  0
   17.9207   42.3509  -12.5790 H   0  0  0  0  0  0
   16.1177   41.4876  -10.9020 H   0  0  0  0  0  0
   14.4443   42.2453   -9.2328 H   0  0  0  0  0  0
   14.7180   44.4359   -8.1054 H   0  0  0  0  0  0
   18.3002   45.1489  -10.4261 H   0  0  0  0  0  0
   18.5705   46.6398   -9.0036 H   0  0  0  0  0  0
   17.3218   47.7200   -9.6042 H   0  0  0  0  0  0
   18.4369   48.8347   -7.7424 H   0  0  0  0  0  0
   16.8601   48.3697   -7.1869 H   0  0  0  0  0  0
   18.0787   47.5479   -5.3923 H   0  0  0  0  0  0
   18.1471   46.1358   -6.3995 H   0  0  0  0  0  0
   20.4345   47.3136   -7.3168 H   0  0  0  0  0  0
   20.2797   48.2198   -5.8589 H   0  0  0  0  0  0
   21.3804   44.1554   -4.1878 H   0  0  0  0  0  0
   21.4166   41.3846   -7.4709 H   0  0  0  0  0  0
   20.1590   45.4134   -8.1369 H   0  0  0  0  0  0
   19.4559   41.4551   -8.9266 H   0  0  0  0  0  0
   21.6407   40.5868   -5.0826 H   0  0  0  0  0  0
   23.0654   41.5735   -4.8945 H   0  0  0  0  0  0
   20.2209   41.6475   -1.9757 H   0  0  0  0  0  0
   20.0672   40.4916   -3.2950 H   0  0  0  0  0  0
   19.6644   42.1982   -3.5508 H   0  0  0  0  0  0
   19.4478   40.2319  -13.2365 H   0  0  0  0  0  0
  1  2  1  0  0  0
  1 43  1  0  0  0
  1 44  1  0  0  0
  1 45  1  0  0  0
  2  3  1  0  0  0
  2  4  1  0  0  0
  2 46  1  0  0  0
  3 47  1  0  0  0
  3 48  1  0  0  0
  3 49  1  0  0  0
  4  9  1  0  0  0
  4  5  2  0  0  0
  5  6  1  0  0  0
  5 50  1  0  0  0
  6  7  2  0  0  0
  6 51  1  0  0  0
  7  8  1  0  0  0
  7 52  1  0  0  0
  8  9  2  0  0  0
  8 10  1  0  0  0
  9 53  1  0  0  0
 10 11  1  0  0  0
 10 54  1  0  0  0
 10 55  1  0  0  0
 11 12  1  0  0  0
 11 56  1  0  0  0
 12 13  1  0  0  0
 12 57  1  0  0  0
 12 58  1  0  0  0
 13 41  1  0  0  0
 13 14  1  0  0  0
 13 40  1  0  0  0
 14 42  1  0  0  0
 14 36  1  0  0  0
 14 15  1  0  0  0
 15 16  1  0  0  0
 15 59  1  0  0  0
 15 60  1  0  0  0
 16 21  1  0  0  0
 16 17  2  0  0  0
 17 18  1  0  0  0
 17 61  1  0  0  0
 18 19  2  0  0  0
 18 62  1  0  0  0
 19 20  1  0  0  0
 19 63  1  0  0  0
 20 21  2  0  0  0
 20 22  1  0  0  0
 21 64  1  0  0  0
 22 23  1  0  0  0
 23 24  1  0  0  0
 23 65  1  0  0  0
 23 66  1  0  0  0
 24 25  1  0  0  0
 24 67  1  0  0  0
 24 68  1  0  0  0
 25 26  1  0  0  0
 25 69  1  0  0  0
 25 70  1  0  0  0
 26 27  1  0  0  0
 26 71  1  0  0  0
 26 72  1  0  0  0
 27 28  1  0  0  0
 28 33  1  0  0  0
 28 29  2  0  0  0
 29 30  1  0  0  0
 29 73  1  0  0  0
 30 31  2  0  0  0
 30 37  1  0  0  0
 31 32  1  0  0  0
 31 74  1  0  0  0
 32 33  2  0  0  0
 32 34  1  0  0  0
 33 75  1  0  0  0
 34 35  2  0  0  0
 34 36  1  0  0  0
 36 76  1  0  0  0
 37 38  1  0  0  0
 37 77  1  0  0  0
 37 78  1  0  0  0
 38 39  1  0  0  0
 39 79  1  0  0  0
 39 80  1  0  0  0
 39 81  1  0  0  0
 40 82  1  0  0  0
M  END
> <s_m_source_file>
BACE_15.smi

> <i_m_source_file_index>
1

> <i_lp_mmshare_version>
42013

> <i_f3d_flags>
0

> <s_epik_input>
W0NIM11bQ0hdKFtDSDNdKWMxW2NIXVtjSF1bY0hdYyhbY0hdMSlbQ0gyXVtOSF1bQ0gyXVtDQEBIXShbT0hdKVtDQEhdKFtDSDJdMilbTkhdQyg9TyljKFtjSF0zKVtjSF1jKFtDSDJdT1tDSDNdKVtjSF1jM09bQ0gyXVtDSDJdW0NIMl1bQ0gyXU9jKFtjSF00KVtjSF1bY0hdW2NIXWMyNA==

> <s_epik_cmdline>
J2VwaWtfcHl0aG9uJywgJy1waCcsICc3LjAnLCAnLXRuJywgJzgnLCAnLW1hJywgJzIwMCcsICctaW1hZScsICc8aW5maWxlLm1hZT4nLCAnLW9tYWUnLCAnPG91dGZpbGUubWFlPic=

> <r_lp_tautomer_probability>
1

> <r_epik_Ionization_Penalty>
  2.0439

> <r_epik_Ionization_Penalty_Charging>
  0.0000

> <r_epik_Ionization_Penalty_Neutral>
  2.0439

> <r_epik_State_Penalty>
  2.1759

> <r_epik_Charging_Adjusted_Penalty>
2.17586

> <i_epik_Tot_Q>
0

> <i_epik_Tot_abs_Q>
0

> <s_lp_Force_Field>
OPLS_2005

> <r_lp_Energy>
41.685

> <b_lp_Chiralities_Consistent>
1

> <s_lp_Variant>
BACE_15.smi:1-2

> <chiral flag>
1

> <version>
0

> <r_i_glide_lipo>
-1.28438

> <r_i_glide_hbond>
-0.32

> <r_i_glide_metal>
-0

> <r_i_glide_rewards>
0

> <r_i_glide_erotb>
0.415786

> <r_i_glide_esite>
-0.00194306

> <chiral flag>
1

> <s_i_glide_gridfile>
second_dock_grid_2

> <i_i_glide_lignum>
31

> <i_i_glide_rotatable_bonds>
9

> <r_i_docking_score>
-1.92874

> <r_i_glide_ligand_efficiency>
-0.0482186

> <r_i_glide_ligand_efficiency_sa>
-0.164905

> <r_i_glide_ligand_efficiency_ln>
-0.411344

> <r_glide_XP_GScore>
-4.10464

> <r_i_glide_gscore>
-4.10464

> <r_i_glide_evdw>
-46.5056

> <r_i_glide_ecoul>
-4.93095

> <r_i_glide_energy>
-51.4365

> <r_i_glide_einternal>
1.19912

> <r_i_glide_emodel>
-71.6461

> <r_glide_XP_HBond>
-0.701921

> <i_i_glide_confnum>
1

> <i_i_glide_posenum>
8

> <r_i_glide_eff_state_penalty>
2.1759

> <i_glide_XP_PoseRank>
3

$$$$
BACE_16.smi:1
                    3D
 Structure written by MMmdl.
 85 88  0  0  1  0            999 V2000
   21.5614   38.6204   -9.4848 C   0  0  0  0  0  0
   20.6414   39.1184   -8.3533 C   0  0  0  0  0  0
   21.2792   38.8186   -6.9875 C   0  0  0  0  0  0
   19.1884   38.6323   -8.4480 C   0  0  0  0  0  0
   18.7243   37.8412   -9.5233 C   0  0  0  0  0  0
   17.3594   37.5086   -9.6260 C   0  0  0  0  0  0
   16.4304   37.9805   -8.6873 C   0  0  0  0  0  0
   16.8764   38.7600   -7.6067 C   0  0  0  0  0  0
   18.2523   39.0466   -7.4715 C   0  0  0  0  0  0
   15.8666   39.2837   -6.5936 C   0  0  0  0  0  0
   15.2606   40.5840   -6.9680 N   0  3  0  0  0  0
   16.1985   41.6180   -7.4750 C   0  0  0  0  0  0
   16.1030   41.7260   -9.0137 C   0  0  2  0  0  0
   17.0943   42.6810   -9.7285 C   0  0  2  0  0  0
   18.5914   42.3040   -9.5393 C   0  0  0  0  0  0
   19.3963   43.1764   -8.5772 C   0  0  0  0  0  0
   19.6220   42.7703   -7.2458 C   0  0  0  0  0  0
   20.3385   43.5965   -6.3634 C   0  0  0  0  0  0
   20.8588   44.8249   -6.8084 C   0  0  0  0  0  0
   20.6816   45.2314   -8.1541 C   0  0  0  0  0  0
   19.9493   44.3979   -9.0236 C   0  0  0  0  0  0
   21.1846   46.3988   -8.6927 O   0  0  0  0  0  0
   21.8132   47.3476   -7.8372 C   0  0  0  0  0  0
   20.7556   48.1840   -7.1025 C   0  0  0  0  0  0
   20.0865   49.2119   -8.0285 C   0  0  0  0  0  0
   18.7487   49.7307   -7.4736 C   0  0  0  0  0  0
   17.7429   48.7201   -7.4963 O   0  0  0  0  0  0
   17.3123   48.2751   -8.7289 C   0  0  0  0  0  0
   16.9193   46.9281   -8.8288 C   0  0  0  0  0  0
   16.5283   46.3816  -10.0713 C   0  0  0  0  0  0
   16.4918   47.2103  -11.2138 C   0  0  0  0  0  0
   16.8598   48.5737  -11.1283 C   0  0  0  0  0  0
   17.2643   49.0931   -9.8828 C   0  0  0  0  0  0
   16.8246   49.4623  -12.1832 O   0  0  0  0  0  0
   16.6956   48.9711  -13.5121 C   0  0  0  0  0  0
   15.2311   48.9572  -13.9607 C   0  0  0  0  0  0
   14.3237   48.5433  -13.2405 O   0  0  0  0  0  0
   14.9361   49.4310  -15.3764 C   0  0  0  0  0  0
   16.1593   44.9349  -10.2005 C   0  0  0  0  0  0
   15.3562   44.5659  -11.0563 O   0  0  0  0  0  0
   16.8614   44.0920   -9.4266 N   0  0  0  0  0  0
   14.7792   42.0544   -9.3765 O   0  0  0  0  0  0
   16.2773   40.7361   -9.4318 H   0  0  0  0  0  0
   16.9075   42.5308  -10.7924 H   0  0  0  0  0  0
   21.1891   38.9145  -10.4662 H   0  0  0  0  0  0
   21.6686   37.5358   -9.4697 H   0  0  0  0  0  0
   22.5598   39.0433   -9.3868 H   0  0  0  0  0  0
   20.6015   40.2029   -8.4474 H   0  0  0  0  0  0
   20.7295   39.2568   -6.1546 H   0  0  0  0  0  0
   22.2967   39.2060   -6.9424 H   0  0  0  0  0  0
   21.3345   37.7483   -6.8247 H   0  0  0  0  0  0
   19.3877   37.4897  -10.2980 H   0  0  0  0  0  0
   17.0050   36.9025  -10.4393 H   0  0  0  0  0  0
   15.3819   37.7382   -8.7878 H   0  0  0  0  0  0
   18.5763   39.6445   -6.6346 H   0  0  0  0  0  0
   15.0719   38.5531   -6.4483 H   0  0  0  0  0  0
   16.3650   39.3876   -5.6401 H   0  0  0  0  0  0
   14.5784   40.4256   -7.6964 H   0  0  0  0  0  0
   16.0601   42.5484   -6.9356 H   0  0  0  0  0  0
   17.2154   41.3565   -7.2279 H   0  0  0  0  0  0
   18.6936   41.2570   -9.2708 H   0  0  0  0  0  0
   19.0846   42.3785  -10.5097 H   0  0  0  0  0  0
   19.2611   41.8179   -6.8875 H   0  0  0  0  0  0
   20.5021   43.2818   -5.3414 H   0  0  0  0  0  0
   21.4029   45.4237   -6.0944 H   0  0  0  0  0  0
   19.8012   44.7163  -10.0455 H   0  0  0  0  0  0
   22.5140   46.8767   -7.1499 H   0  0  0  0  0  0
   22.4255   48.0057   -8.4540 H   0  0  0  0  0  0
   20.0073   47.5243   -6.6622 H   0  0  0  0  0  0
   21.2232   48.7127   -6.2709 H   0  0  0  0  0  0
   20.7669   50.0513   -8.1730 H   0  0  0  0  0  0
   19.9344   48.7810   -9.0178 H   0  0  0  0  0  0
   18.8950   50.0247   -6.4398 H   0  0  0  0  0  0
   18.4226   50.6368   -7.9830 H   0  0  0  0  0  0
   16.9535   46.3126   -7.9409 H   0  0  0  0  0  0
   16.1707   46.7829  -12.1511 H   0  0  0  0  0  0
   17.5352   50.1353   -9.8383 H   0  0  0  0  0  0
   17.2494   49.6421  -14.1664 H   0  0  0  0  0  0
   17.1440   47.9857  -13.6352 H   0  0  0  0  0  0
   15.8080   49.3005  -16.0221 H   0  0  0  0  0  0
   14.6629   50.4891  -15.3655 H   0  0  0  0  0  0
   14.0996   48.8697  -15.7987 H   0  0  0  0  0  0
   17.5068   44.5079   -8.7699 H   0  0  0  0  0  0
   14.5987   42.9381   -9.0771 H   0  0  0  0  0  0
   14.7564   40.9493   -6.1593 H   0  0  0  0  0  0
  1  2  1  0  0  0
  1 45  1  0  0  0
  1 46  1  0  0  0
  1 47  1  0  0  0
  2  3  1  0  0  0
  2  4  1  0  0  0
  2 48  1  0  0  0
  3 49  1  0  0  0
  3 50  1  0  0  0
  3 51  1  0  0  0
  4  9  1  0  0  0
  4  5  2  0  0  0
  5  6  1  0  0  0
  5 52  1  0  0  0
  6  7  2  0  0  0
  6 53  1  0  0  0
  7  8  1  0  0  0
  7 54  1  0  0  0
  8  9  2  0  0  0
  8 10  1  0  0  0
  9 55  1  0  0  0
 10 11  1  0  0  0
 10 56  1  0  0  0
 10 57  1  0  0  0
 11 12  1  0  0  0
 11 58  1  0  0  0
 11 85  1  0  0  0
 12 13  1  0  0  0
 12 59  1  0  0  0
 12 60  1  0  0  0
 13 43  1  0  0  0
 13 14  1  0  0  0
 13 42  1  0  0  0
 14 44  1  0  0  0
 14 41  1  0  0  0
 14 15  1  0  0  0
 15 16  1  0  0  0
 15 61  1  0  0  0
 15 62  1  0  0  0
 16 21  1  0  0  0
 16 17  2  0  0  0
 17 18  1  0  0  0
 17 63  1  0  0  0
 18 19  2  0  0  0
 18 64  1  0  0  0
 19 20  1  0  0  0
 19 65  1  0  0  0
 20 21  2  0  0  0
 20 22  1  0  0  0
 21 66  1  0  0  0
 22 23  1  0  0  0
 23 24  1  0  0  0
 23 67  1  0  0  0
 23 68  1  0  0  0
 24 25  1  0  0  0
 24 69  1  0  0  0
 24 70  1  0  0  0
 25 26  1  0  0  0
 25 71  1  0  0  0
 25 72  1  0  0  0
 26 27  1  0  0  0
 26 73  1  0  0  0
 26 74  1  0  0  0
 27 28  1  0  0  0
 28 33  1  0  0  0
 28 29  2  0  0  0
 29 30  1  0  0  0
 29 75  1  0  0  0
 30 31  2  0  0  0
 30 39  1  0  0  0
 31 32  1  0  0  0
 31 76  1  0  0  0
 32 33  2  0  0  0
 32 34  1  0  0  0
 33 77  1  0  0  0
 34 35  1  0  0  0
 35 36  1  0  0  0
 35 78  1  0  0  0
 35 79  1  0  0  0
 36 37  2  0  0  0
 36 38  1  0  0  0
 38 80  1  0  0  0
 38 81  1  0  0  0
 38 82  1  0  0  0
 39 40  2  0  0  0
 39 41  1  0  0  0
 41 83  1  0  0  0
 42 84  1  0  0  0
M  CHG  1  11   1
M  END
> <s_m_source_file>
BACE_16.smi

> <i_m_source_file_index>
1

> <i_lp_mmshare_version>
42013

> <i_f3d_flags>
0

> <s_epik_input>
W0NIM11bQ0hdKFtDSDNdKWMxW2NIXVtjSF1bY0hdYyhbY0hdMSlbQ0gyXVtOSF1bQ0gyXVtDQEBIXShbT0hdKVtDQEhdKFtDSDJdMilbTkhdQyg9TyljKFtjSF1jKFtjSF0zKU9bQ0gyXUMoPU8pW0NIM10pW2NIXWMzT1tDSDJdW0NIMl1bQ0gyXVtDSDJdT2MoW2NIXTQpW2NIXVtjSF1bY0hdYzI0

> <s_epik_cmdline>
J2VwaWtfcHl0aG9uJywgJy1waCcsICc3LjAnLCAnLXRuJywgJzgnLCAnLW1hJywgJzIwMCcsICctaW1hZScsICc8aW5maWxlLm1hZT4nLCAnLW9tYWUnLCAnPG91dGZpbGUubWFlPic=

> <r_lp_tautomer_probability>
1

> <r_epik_Ionization_Penalty>
  0.0191

> <r_epik_Ionization_Penalty_Charging>
  0.0191

> <r_epik_Ionization_Penalty_Neutral>
  0.0000

> <r_epik_State_Penalty>
  0.0153

> <r_epik_Charging_Adjusted_Penalty>
0.0343718

> <i_epik_Tot_Q>
1

> <i_epik_Tot_abs_Q>
1

> <s_lp_Force_Field>
OPLS_2005

> <r_lp_Energy>
32.7148

> <b_lp_Chiralities_Consistent>
1

> <s_lp_Variant>
BACE_16.smi:1-1

> <chiral flag>
1

> <version>
0

> <r_i_glide_lipo>
-0.508

> <r_i_glide_hbond>
0

> <r_i_glide_metal>
-0

> <r_i_glide_rewards>
0

> <r_i_glide_erotb>
0.345483

> <r_i_glide_esite>
-0.0693266

> <chiral flag>
1

> <s_i_glide_gridfile>
second_dock_grid_2

> <i_i_glide_lignum>
32

> <i_i_glide_rotatable_bonds>
10

> <r_i_docking_score>
-6.37595

> <r_i_glide_ligand_efficiency>
-0.151808

> <r_i_glide_ligand_efficiency_sa>
-0.52769

> <r_i_glide_ligand_efficiency_ln>
-1.3458

> <r_glide_XP_GScore>
-6.39125

> <r_i_glide_gscore>
-6.39125

> <r_i_glide_evdw>
-34.665

> <r_i_glide_ecoul>
-13.1992

> <r_i_glide_energy>
-47.8642

> <r_i_glide_einternal>
13.1083

> <r_i_glide_emodel>
-72.9722

> <r_glide_XP_HBond>
-0.7

> <i_i_glide_confnum>
1

> <i_i_glide_posenum>
2

> <r_i_glide_eff_state_penalty>
0.0153

> <i_glide_XP_PoseRank>
1

$$$$
BACE_16.smi:1
                    3D
 Structure written by MMmdl.
 85 88  0  0  1  0            999 V2000
   30.4997   41.6024  -11.1755 C   0  0  0  0  0  0
   29.4638   42.4730  -11.9016 C   0  0  0  0  0  0
   30.1161   43.7153  -12.5272 C   0  0  0  0  0  0
   28.2995   42.8616  -10.9977 C   0  0  0  0  0  0
   28.5233   43.5701   -9.7959 C   0  0  0  0  0  0
   27.4380   43.9709   -8.9938 C   0  0  0  0  0  0
   26.1210   43.6720   -9.3897 C   0  0  0  0  0  0
   25.8873   42.9609  -10.5852 C   0  0  0  0  0  0
   26.9778   42.5513  -11.3808 C   0  0  0  0  0  0
   24.4710   42.6622  -11.0312 C   0  0  0  0  0  0
   23.9576   41.4275  -10.4025 N   0  3  0  0  0  0
   23.0404   41.6803   -9.2692 C   0  0  0  0  0  0
   22.5320   40.3836   -8.6001 C   0  0  2  0  0  0
   21.5036   40.6042   -7.4505 C   0  0  2  0  0  0
   20.8870   39.2780   -6.9286 C   0  0  0  0  0  0
   19.6773   38.8056   -7.7274 C   0  0  0  0  0  0
   19.8566   38.0387   -8.8928 C   0  0  0  0  0  0
   18.7395   37.6191   -9.6342 C   0  0  0  0  0  0
   17.4450   38.0115   -9.2564 C   0  0  0  0  0  0
   17.2477   38.8209   -8.1127 C   0  0  0  0  0  0
   18.3703   39.1682   -7.3337 C   0  0  0  0  0  0
   16.0227   39.3185   -7.7166 O   0  0  0  0  0  0
   14.9065   39.1911   -8.5946 C   0  0  0  0  0  0
   15.0163   40.1460   -9.8045 C   0  0  0  0  0  0
   14.7218   41.6119   -9.4458 C   0  0  0  0  0  0
   15.0588   42.6068  -10.5697 C   0  0  0  0  0  0
   16.4669   42.7522  -10.7232 O   0  0  0  0  0  0
   17.1369   43.4077   -9.7146 C   0  0  0  0  0  0
   18.3396   42.8419   -9.2592 C   0  0  0  0  0  0
   19.0693   43.4366   -8.2042 C   0  0  0  0  0  0
   18.6104   44.6469   -7.6450 C   0  0  0  0  0  0
   17.4306   45.2585   -8.1274 C   0  0  0  0  0  0
   16.6878   44.6187   -9.1400 C   0  0  0  0  0  0
   16.9480   46.4558   -7.6532 O   0  0  0  0  0  0
   17.8779   47.4033   -7.1399 C   0  0  0  0  0  0
   17.6596   48.7389   -7.8479 C   0  0  0  0  0  0
   17.7478   49.8033   -7.2403 O   0  0  0  0  0  0
   17.2647   48.7126   -9.3198 C   0  0  0  0  0  0
   20.3433   42.8189   -7.7087 C   0  0  0  0  0  0
   21.2332   43.4994   -7.1988 O   0  0  0  0  0  0
   20.4187   41.4921   -7.8603 N   0  0  0  0  0  0
   23.6602   39.7489   -8.0399 O   0  0  0  0  0  0
   22.0991   39.7338   -9.3610 H   0  0  0  0  0  0
   22.0371   41.0677   -6.6177 H   0  0  0  0  0  0
   30.0600   40.6642  -10.8391 H   0  0  0  0  0  0
   30.9279   42.1143  -10.3125 H   0  0  0  0  0  0
   31.3223   41.3503  -11.8449 H   0  0  0  0  0  0
   29.0653   41.8727  -12.7207 H   0  0  0  0  0  0
   29.3876   44.3032  -13.0849 H   0  0  0  0  0  0
   30.9079   43.4337  -13.2206 H   0  0  0  0  0  0
   30.5576   44.3621  -11.7691 H   0  0  0  0  0  0
   29.5279   43.8248   -9.4922 H   0  0  0  0  0  0
   27.6169   44.5171   -8.0783 H   0  0  0  0  0  0
   25.2952   43.9958   -8.7731 H   0  0  0  0  0  0
   26.7989   42.0149  -12.3015 H   0  0  0  0  0  0
   23.8259   43.5171  -10.8205 H   0  0  0  0  0  0
   24.4589   42.5501  -12.1142 H   0  0  0  0  0  0
   23.4739   40.8980  -11.1171 H   0  0  0  0  0  0
   23.5291   42.3156   -8.5285 H   0  0  0  0  0  0
   22.2023   42.2461   -9.6736 H   0  0  0  0  0  0
   21.6325   38.4832   -6.8830 H   0  0  0  0  0  0
   20.5643   39.4254   -5.8958 H   0  0  0  0  0  0
   20.8470   37.7397   -9.2027 H   0  0  0  0  0  0
   18.8653   36.9919  -10.5028 H   0  0  0  0  0  0
   16.6236   37.6870   -9.8756 H   0  0  0  0  0  0
   18.2210   39.7504   -6.4398 H   0  0  0  0  0  0
   14.7709   38.1569   -8.9089 H   0  0  0  0  0  0
   14.0094   39.4250   -8.0229 H   0  0  0  0  0  0
   16.0011   40.0718  -10.2626 H   0  0  0  0  0  0
   14.3080   39.8264  -10.5681 H   0  0  0  0  0  0
   13.6601   41.6978   -9.2392 H   0  0  0  0  0  0
   15.2324   41.8899   -8.5228 H   0  0  0  0  0  0
   14.6507   42.2414  -11.5117 H   0  0  0  0  0  0
   14.5693   43.5628  -10.3935 H   0  0  0  0  0  0
   18.6747   41.9243   -9.7216 H   0  0  0  0  0  0
   19.1751   45.0929   -6.8397 H   0  0  0  0  0  0
   15.7862   45.0947   -9.4930 H   0  0  0  0  0  0
   17.7292   47.5206   -6.0657 H   0  0  0  0  0  0
   18.9169   47.1233   -7.3068 H   0  0  0  0  0  0
   16.3388   48.1531   -9.4577 H   0  0  0  0  0  0
   18.0487   48.2382   -9.9113 H   0  0  0  0  0  0
   17.1139   49.7258   -9.6936 H   0  0  0  0  0  0
   19.5964   41.0292   -8.2218 H   0  0  0  0  0  0
   24.0470   39.1539   -8.6783 H   0  0  0  0  0  0
   24.7441   40.8790  -10.0791 H   0  0  0  0  0  0
  1  2  1  0  0  0
  1 45  1  0  0  0
  1 46  1  0  0  0
  1 47  1  0  0  0
  2  3  1  0  0  0
  2  4  1  0  0  0
  2 48  1  0  0  0
  3 49  1  0  0  0
  3 50  1  0  0  0
  3 51  1  0  0  0
  4  9  1  0  0  0
  4  5  2  0  0  0
  5  6  1  0  0  0
  5 52  1  0  0  0
  6  7  2  0  0  0
  6 53  1  0  0  0
  7  8  1  0  0  0
  7 54  1  0  0  0
  8  9  2  0  0  0
  8 10  1  0  0  0
  9 55  1  0  0  0
 10 11  1  0  0  0
 10 56  1  0  0  0
 10 57  1  0  0  0
 11 12  1  0  0  0
 11 58  1  0  0  0
 11 85  1  0  0  0
 12 13  1  0  0  0
 12 59  1  0  0  0
 12 60  1  0  0  0
 13 43  1  0  0  0
 13 14  1  0  0  0
 13 42  1  0  0  0
 14 44  1  0  0  0
 14 41  1  0  0  0
 14 15  1  0  0  0
 15 16  1  0  0  0
 15 61  1  0  0  0
 15 62  1  0  0  0
 16 21  1  0  0  0
 16 17  2  0  0  0
 17 18  1  0  0  0
 17 63  1  0  0  0
 18 19  2  0  0  0
 18 64  1  0  0  0
 19 20  1  0  0  0
 19 65  1  0  0  0
 20 21  2  0  0  0
 20 22  1  0  0  0
 21 66  1  0  0  0
 22 23  1  0  0  0
 23 24  1  0  0  0
 23 67  1  0  0  0
 23 68  1  0  0  0
 24 25  1  0  0  0
 24 69  1  0  0  0
 24 70  1  0  0  0
 25 26  1  0  0  0
 25 71  1  0  0  0
 25 72  1  0  0  0
 26 27  1  0  0  0
 26 73  1  0  0  0
 26 74  1  0  0  0
 27 28  1  0  0  0
 28 33  1  0  0  0
 28 29  2  0  0  0
 29 30  1  0  0  0
 29 75  1  0  0  0
 30 31  2  0  0  0
 30 39  1  0  0  0
 31 32  1  0  0  0
 31 76  1  0  0  0
 32 33  2  0  0  0
 32 34  1  0  0  0
 33 77  1  0  0  0
 34 35  1  0  0  0
 35 36  1  0  0  0
 35 78  1  0  0  0
 35 79  1  0  0  0
 36 37  2  0  0  0
 36 38  1  0  0  0
 38 80  1  0  0  0
 38 81  1  0  0  0
 38 82  1  0  0  0
 39 40  2  0  0  0
 39 41  1  0  0  0
 41 83  1  0  0  0
 42 84  1  0  0  0
M  CHG  1  11   1
M  END
> <s_m_source_file>
BACE_16.smi

> <i_m_source_file_index>
1

> <i_lp_mmshare_version>
42013

> <i_f3d_flags>
0

> <s_epik_input>
W0NIM11bQ0hdKFtDSDNdKWMxW2NIXVtjSF1bY0hdYyhbY0hdMSlbQ0gyXVtOSF1bQ0gyXVtDQEBIXShbT0hdKVtDQEhdKFtDSDJdMilbTkhdQyg9TyljKFtjSF1jKFtjSF0zKU9bQ0gyXUMoPU8pW0NIM10pW2NIXWMzT1tDSDJdW0NIMl1bQ0gyXVtDSDJdT2MoW2NIXTQpW2NIXVtjSF1bY0hdYzI0

> <s_epik_cmdline>
J2VwaWtfcHl0aG9uJywgJy1waCcsICc3LjAnLCAnLXRuJywgJzgnLCAnLW1hJywgJzIwMCcsICctaW1hZScsICc8aW5maWxlLm1hZT4nLCAnLW9tYWUnLCAnPG91dGZpbGUubWFlPic=

> <r_lp_tautomer_probability>
1

> <r_epik_Ionization_Penalty>
  0.0191

> <r_epik_Ionization_Penalty_Charging>
  0.0191

> <r_epik_Ionization_Penalty_Neutral>
  0.0000

> <r_epik_State_Penalty>
  0.0153

> <r_epik_Charging_Adjusted_Penalty>
0.0343718

> <i_epik_Tot_Q>
1

> <i_epik_Tot_abs_Q>
1

> <s_lp_Force_Field>
OPLS_2005

> <r_lp_Energy>
32.7148

> <b_lp_Chiralities_Consistent>
1

> <s_lp_Variant>
BACE_16.smi:1-1

> <chiral flag>
1

> <version>
0

> <r_i_glide_lipo>
-0.508

> <r_i_glide_hbond>
0

> <r_i_glide_metal>
-0

> <r_i_glide_rewards>
0

> <r_i_glide_erotb>
0.345483

> <r_i_glide_esite>
-0.0693266

> <chiral flag>
1

> <s_i_glide_gridfile>
second_dock_grid_2

> <i_i_glide_lignum>
32

> <i_i_glide_rotatable_bonds>
10

> <r_i_docking_score>
-3.97262

> <r_i_glide_ligand_efficiency>
-0.0945861

> <r_i_glide_ligand_efficiency_sa>
-0.328784

> <r_i_glide_ligand_efficiency_ln>
-0.838517

> <r_glide_XP_GScore>
-3.98792

> <r_i_glide_gscore>
-3.98792

> <r_i_glide_evdw>
-43.7121

> <r_i_glide_ecoul>
-11.8115

> <r_i_glide_energy>
-55.5236

> <r_i_glide_einternal>
7.39522

> <r_i_glide_emodel>
-73.5928

> <r_glide_XP_HBond>
-0.7

> <i_i_glide_confnum>
1

> <i_i_glide_posenum>
10

> <r_i_glide_eff_state_penalty>
0.0153

> <i_glide_XP_PoseRank>
2

$$$$
BACE_16.smi:1
                    3D
 Structure written by MMmdl.
 85 88  0  0  1  0            999 V2000
   30.6956   41.6146  -11.2328 C   0  0  0  0  0  0
   29.6300   42.4429  -11.9633 C   0  0  0  0  0  0
   30.2441   43.6771  -12.6412 C   0  0  0  0  0  0
   28.4760   42.8372  -11.0499 C   0  0  0  0  0  0
   28.7114   43.5509   -9.8546 C   0  0  0  0  0  0
   27.6334   43.9584   -9.0462 C   0  0  0  0  0  0
   26.3117   43.6630   -9.4286 C   0  0  0  0  0  0
   26.0672   42.9472  -10.6186 C   0  0  0  0  0  0
   27.1498   42.5292  -11.4204 C   0  0  0  0  0  0
   24.6475   42.6605  -11.0606 C   0  0  0  0  0  0
   24.1193   41.4336  -10.4251 N   0  3  0  0  0  0
   23.1746   41.7057   -9.3163 C   0  0  0  0  0  0
   22.5910   40.4283   -8.6693 C   0  0  2  0  0  0
   21.5034   40.6827   -7.5791 C   0  0  2  0  0  0
   20.8441   39.3705   -7.0684 C   0  0  0  0  0  0
   19.6811   38.8906   -7.9302 C   0  0  0  0  0  0
   19.9292   38.1504   -9.1015 C   0  0  0  0  0  0
   18.8600   37.7543   -9.9231 C   0  0  0  0  0  0
   17.5406   38.1142   -9.5923 C   0  0  0  0  0  0
   17.2718   38.8620   -8.4197 C   0  0  0  0  0  0
   18.3515   39.2206   -7.5883 C   0  0  0  0  0  0
   16.0158   39.2851   -8.0328 O   0  0  0  0  0  0
   14.9245   39.1749   -8.9437 C   0  0  0  0  0  0
   15.0047   40.2516  -10.0447 C   0  0  0  0  0  0
   14.7115   41.6641   -9.5136 C   0  0  0  0  0  0
   14.9844   42.7789  -10.5340 C   0  0  0  0  0  0
   16.3819   42.9046  -10.7771 O   0  0  0  0  0  0
   17.1244   43.5567   -9.8188 C   0  0  0  0  0  0
   18.3138   42.9450   -9.3806 C   0  0  0  0  0  0
   19.1380   43.5690   -8.4132 C   0  0  0  0  0  0
   18.7822   44.8462   -7.9317 C   0  0  0  0  0  0
   17.6119   45.4918   -8.3894 C   0  0  0  0  0  0
   16.7721   44.8285   -9.3074 C   0  0  0  0  0  0
   17.2580   46.7572   -7.9789 O   0  0  0  0  0  0
   18.3050   47.7277   -7.9706 C   0  0  0  0  0  0
   18.8120   48.0125   -6.5531 C   0  0  0  0  0  0
   18.4597   47.3507   -5.5818 O   0  0  0  0  0  0
   19.8021   49.1596   -6.3943 C   0  0  0  0  0  0
   20.4042   42.9189   -7.9325 C   0  0  0  0  0  0
   21.3232   43.5856   -7.4577 O   0  0  0  0  0  0
   20.4462   41.5837   -8.0438 N   0  0  0  0  0  0
   23.6598   39.7501   -8.0401 O   0  0  0  0  0  0
   22.1810   39.7923   -9.4528 H   0  0  0  0  0  0
   22.0028   41.1472   -6.7252 H   0  0  0  0  0  0
   30.2694   40.6902  -10.8409 H   0  0  0  0  0  0
   31.1429   42.1629  -10.4044 H   0  0  0  0  0  0
   31.5019   41.3498  -11.9182 H   0  0  0  0  0  0
   29.2266   41.8100  -12.7548 H   0  0  0  0  0  0
   29.4931   44.2261  -13.2098 H   0  0  0  0  0  0
   31.0352   43.3907  -13.3344 H   0  0  0  0  0  0
   30.6765   44.3603  -11.9104 H   0  0  0  0  0  0
   29.7192   43.8048   -9.5603 H   0  0  0  0  0  0
   27.8228   44.5084   -8.1355 H   0  0  0  0  0  0
   25.4922   43.9950   -8.8087 H   0  0  0  0  0  0
   26.9624   41.9906  -12.3380 H   0  0  0  0  0  0
   24.0147   43.5245  -10.8507 H   0  0  0  0  0  0
   24.6336   42.5501  -12.1447 H   0  0  0  0  0  0
   23.6509   40.9009  -11.1458 H   0  0  0  0  0  0
   23.6602   42.3233   -8.5594 H   0  0  0  0  0  0
   22.3700   42.2997   -9.7472 H   0  0  0  0  0  0
   21.5762   38.5688   -6.9616 H   0  0  0  0  0  0
   20.4588   39.5421   -6.0614 H   0  0  0  0  0  0
   20.9369   37.8716   -9.3704 H   0  0  0  0  0  0
   19.0476   37.1937  -10.8257 H   0  0  0  0  0  0
   16.7538   37.8079  -10.2633 H   0  0  0  0  0  0
   18.1487   39.7828   -6.6881 H   0  0  0  0  0  0
   14.8521   38.1718   -9.3623 H   0  0  0  0  0  0
   14.0036   39.3073   -8.3745 H   0  0  0  0  0  0
   15.9829   40.2295  -10.5242 H   0  0  0  0  0  0
   14.2799   40.0146  -10.8235 H   0  0  0  0  0  0
   13.6604   41.7121   -9.2391 H   0  0  0  0  0  0
   15.2746   41.8508   -8.5983 H   0  0  0  0  0  0
   14.4915   42.5404  -11.4757 H   0  0  0  0  0  0
   14.5361   43.7125  -10.1988 H   0  0  0  0  0  0
   18.5742   41.9814   -9.7940 H   0  0  0  0  0  0
   19.4202   45.3297   -7.2069 H   0  0  0  0  0  0
   15.8855   45.3350   -9.6555 H   0  0  0  0  0  0
   19.1383   47.4246   -8.6055 H   0  0  0  0  0  0
   17.9123   48.6539   -8.3891 H   0  0  0  0  0  0
   19.3635   50.0885   -6.7578 H   0  0  0  0  0  0
   20.7082   48.9564   -6.9634 H   0  0  0  0  0  0
   20.0698   49.2887   -5.3456 H   0  0  0  0  0  0
   19.6107   41.1276   -8.3851 H   0  0  0  0  0  0
   24.0592   39.1453   -8.6595 H   0  0  0  0  0  0
   24.8932   40.8826  -10.0776 H   0  0  0  0  0  0
  1  2  1  0  0  0
  1 45  1  0  0  0
  1 46  1  0  0  0
  1 47  1  0  0  0
  2  3  1  0  0  0
  2  4  1  0  0  0
  2 48  1  0  0  0
  3 49  1  0  0  0
  3 50  1  0  0  0
  3 51  1  0  0  0
  4  9  1  0  0  0
  4  5  2  0  0  0
  5  6  1  0  0  0
  5 52  1  0  0  0
  6  7  2  0  0  0
  6 53  1  0  0  0
  7  8  1  0  0  0
  7 54  1  0  0  0
  8  9  2  0  0  0
  8 10  1  0  0  0
  9 55  1  0  0  0
 10 11  1  0  0  0
 10 56  1  0  0  0
 10 57  1  0  0  0
 11 12  1  0  0  0
 11 58  1  0  0  0
 11 85  1  0  0  0
 12 13  1  0  0  0
 12 59  1  0  0  0
 12 60  1  0  0  0
 13 43  1  0  0  0
 13 14  1  0  0  0
 13 42  1  0  0  0
 14 44  1  0  0  0
 14 41  1  0  0  0
 14 15  1  0  0  0
 15 16  1  0  0  0
 15 61  1  0  0  0
 15 62  1  0  0  0
 16 21  1  0  0  0
 16 17  2  0  0  0
 17 18  1  0  0  0
 17 63  1  0  0  0
 18 19  2  0  0  0
 18 64  1  0  0  0
 19 20  1  0  0  0
 19 65  1  0  0  0
 20 21  2  0  0  0
 20 22  1  0  0  0
 21 66  1  0  0  0
 22 23  1  0  0  0
 23 24  1  0  0  0
 23 67  1  0  0  0
 23 68  1  0  0  0
 24 25  1  0  0  0
 24 69  1  0  0  0
 24 70  1  0  0  0
 25 26  1  0  0  0
 25 71  1  0  0  0
 25 72  1  0  0  0
 26 27  1  0  0  0
 26 73  1  0  0  0
 26 74  1  0  0  0
 27 28  1  0  0  0
 28 33  1  0  0  0
 28 29  2  0  0  0
 29 30  1  0  0  0
 29 75  1  0  0  0
 30 31  2  0  0  0
 30 39  1  0  0  0
 31 32  1  0  0  0
 31 76  1  0  0  0
 32 33  2  0  0  0
 32 34  1  0  0  0
 33 77  1  0  0  0
 34 35  1  0  0  0
 35 36  1  0  0  0
 35 78  1  0  0  0
 35 79  1  0  0  0
 36 37  2  0  0  0
 36 38  1  0  0  0
 38 80  1  0  0  0
 38 81  1  0  0  0
 38 82  1  0  0  0
 39 40  2  0  0  0
 39 41  1  0  0  0
 41 83  1  0  0  0
 42 84  1  0  0  0
M  CHG  1  11   1
M  END
> <s_m_source_file>
BACE_16.smi

> <i_m_source_file_index>
1

> <i_lp_mmshare_version>
42013

> <i_f3d_flags>
0

> <s_epik_input>
W0NIM11bQ0hdKFtDSDNdKWMxW2NIXVtjSF1bY0hdYyhbY0hdMSlbQ0gyXVtOSF1bQ0gyXVtDQEBIXShbT0hdKVtDQEhdKFtDSDJdMilbTkhdQyg9TyljKFtjSF1jKFtjSF0zKU9bQ0gyXUMoPU8pW0NIM10pW2NIXWMzT1tDSDJdW0NIMl1bQ0gyXVtDSDJdT2MoW2NIXTQpW2NIXVtjSF1bY0hdYzI0

> <s_epik_cmdline>
J2VwaWtfcHl0aG9uJywgJy1waCcsICc3LjAnLCAnLXRuJywgJzgnLCAnLW1hJywgJzIwMCcsICctaW1hZScsICc8aW5maWxlLm1hZT4nLCAnLW9tYWUnLCAnPG91dGZpbGUubWFlPic=

> <r_lp_tautomer_probability>
1

> <r_epik_Ionization_Penalty>
  0.0191

> <r_epik_Ionization_Penalty_Charging>
  0.0191

> <r_epik_Ionization_Penalty_Neutral>
  0.0000

> <r_epik_State_Penalty>
  0.0153

> <r_epik_Charging_Adjusted_Penalty>
0.0343718

> <i_epik_Tot_Q>
1

> <i_epik_Tot_abs_Q>
1

> <s_lp_Force_Field>
OPLS_2005

> <r_lp_Energy>
32.7148

> <b_lp_Chiralities_Consistent>
1

> <s_lp_Variant>
BACE_16.smi:1-1

> <chiral flag>
1

> <version>
0

> <r_i_glide_lipo>
-0.508

> <r_i_glide_hbond>
0

> <r_i_glide_metal>
-0

> <r_i_glide_rewards>
0

> <r_i_glide_erotb>
0.345483

> <r_i_glide_esite>
-0.0693266

> <chiral flag>
1

> <s_i_glide_gridfile>
second_dock_grid_2

> <i_i_glide_lignum>
32

> <i_i_glide_rotatable_bonds>
10

> <r_i_docking_score>
-3.42292

> <r_i_glide_ligand_efficiency>
-0.0814981

> <r_i_glide_ligand_efficiency_sa>
-0.283289

> <r_i_glide_ligand_efficiency_ln>
-0.72249

> <r_glide_XP_GScore>
-3.43822

> <r_i_glide_gscore>
-3.43822

> <r_i_glide_evdw>
-44.2113

> <r_i_glide_ecoul>
-12.6681

> <r_i_glide_energy>
-56.8794

> <r_i_glide_einternal>
8.65355

> <r_i_glide_emodel>
-75.4151

> <r_glide_XP_HBond>
-0.7

> <i_i_glide_confnum>
1

> <i_i_glide_posenum>
5

> <r_i_glide_eff_state_penalty>
0.0153

> <i_glide_XP_PoseRank>
3

$$$$
BACE_16.smi:1
                    3D
 Structure written by MMmdl.
 85 88  0  0  1  0            999 V2000
   31.8681   42.1552  -13.9147 C   0  0  0  0  0  0
   30.4157   41.9809  -14.3817 C   0  0  0  0  0  0
   30.2862   42.1499  -15.9023 C   0  0  0  0  0  0
   29.4725   42.9181  -13.6393 C   0  0  0  0  0  0
   29.5681   44.3156  -13.8176 C   0  0  0  0  0  0
   28.6812   45.1794  -13.1496 C   0  0  0  0  0  0
   27.6930   44.6516  -12.2985 C   0  0  0  0  0  0
   27.5861   43.2570  -12.1161 C   0  0  0  0  0  0
   28.4832   42.3956  -12.7803 C   0  0  0  0  0  0
   26.5416   42.6988  -11.1708 C   0  0  0  0  0  0
   25.1640   42.9613  -11.6433 N   0  3  0  0  0  0
   24.1867   42.9605  -10.5317 C   0  0  0  0  0  0
   22.7180   43.2087  -10.9534 C   0  0  2  0  0  0
   21.7308   43.4632   -9.7580 C   0  0  2  0  0  0
   22.1358   42.8444   -8.3804 C   0  0  0  0  0  0
   21.6775   41.4077   -8.1361 C   0  0  0  0  0  0
   22.5113   40.3104   -8.4433 C   0  0  0  0  0  0
   22.0596   38.9965   -8.2288 C   0  0  0  0  0  0
   20.7807   38.7679   -7.6948 C   0  0  0  0  0  0
   19.9365   39.8528   -7.3668 C   0  0  0  0  0  0
   20.4000   41.1648   -7.5836 C   0  0  0  0  0  0
   18.6714   39.7286   -6.8424 O   0  0  0  0  0  0
   18.0889   38.4412   -6.6840 C   0  0  0  0  0  0
   17.5802   37.9147   -8.0337 C   0  0  0  0  0  0
   16.3016   38.6326   -8.4930 C   0  0  0  0  0  0
   16.1072   38.5396  -10.0111 C   0  0  0  0  0  0
   17.0744   39.3493  -10.6812 O   0  0  0  0  0  0
   16.9282   40.7180  -10.6652 C   0  0  0  0  0  0
   18.1063   41.4765  -10.7636 C   0  0  0  0  0  0
   18.0757   42.8874  -10.6838 C   0  0  0  0  0  0
   16.8231   43.5385  -10.5861 C   0  0  0  0  0  0
   15.6207   42.7986  -10.5204 C   0  0  0  0  0  0
   15.6864   41.3826  -10.5558 C   0  0  0  0  0  0
   14.4311   43.4937  -10.4079 O   0  0  0  0  0  0
   13.2250   42.7319  -10.4021 C   0  0  0  0  0  0
   12.0399   43.6345  -10.0735 C   0  0  0  0  0  0
   11.0831   43.7499  -10.8400 O   0  0  0  0  0  0
   12.0804   44.3895   -8.7523 C   0  0  0  0  0  0
   19.3614   43.6694  -10.6668 C   0  0  0  0  0  0
   19.4351   44.8171  -11.1019 O   0  0  0  0  0  0
   20.3694   43.0232  -10.0664 N   0  0  0  0  0  0
   22.2473   42.1405  -11.7507 O   0  0  0  0  0  0
   22.6868   44.0918  -11.5949 H   0  0  0  0  0  0
   21.7165   44.5440   -9.6070 H   0  0  0  0  0  0
   31.9659   41.9610  -12.8458 H   0  0  0  0  0  0
   32.2361   43.1647  -14.1055 H   0  0  0  0  0  0
   32.5252   41.4608  -14.4396 H   0  0  0  0  0  0
   30.1274   40.9537  -14.1451 H   0  0  0  0  0  0
   29.2607   41.9752  -16.2285 H   0  0  0  0  0  0
   30.9178   41.4308  -16.4282 H   0  0  0  0  0  0
   30.5812   43.1475  -16.2314 H   0  0  0  0  0  0
   30.3233   44.7298  -14.4683 H   0  0  0  0  0  0
   28.7673   46.2477  -13.2825 H   0  0  0  0  0  0
   27.0316   45.3270  -11.7774 H   0  0  0  0  0  0
   28.4183   41.3264  -12.6309 H   0  0  0  0  0  0
   26.6799   41.6246  -11.0253 H   0  0  0  0  0  0
   26.7072   43.1658  -10.1975 H   0  0  0  0  0  0
   25.1475   43.8709  -12.0852 H   0  0  0  0  0  0
   24.2840   42.0086  -10.0144 H   0  0  0  0  0  0
   24.4860   43.7431   -9.8293 H   0  0  0  0  0  0
   23.1989   42.9339   -8.1617 H   0  0  0  0  0  0
   21.6647   43.4466   -7.6040 H   0  0  0  0  0  0
   23.5034   40.4515   -8.8369 H   0  0  0  0  0  0
   22.6937   38.1557   -8.4688 H   0  0  0  0  0  0
   20.4651   37.7502   -7.5492 H   0  0  0  0  0  0
   19.7530   41.9916   -7.3305 H   0  0  0  0  0  0
   18.7767   37.7497   -6.1983 H   0  0  0  0  0  0
   17.2483   38.5486   -5.9980 H   0  0  0  0  0  0
   18.3610   38.0130   -8.7864 H   0  0  0  0  0  0
   17.3747   36.8469   -7.9599 H   0  0  0  0  0  0
   15.4472   38.1880   -7.9796 H   0  0  0  0  0  0
   16.3199   39.6784   -8.1865 H   0  0  0  0  0  0
   16.2633   37.5080  -10.3231 H   0  0  0  0  0  0
   15.0831   38.7667  -10.3034 H   0  0  0  0  0  0
   19.0424   40.9452  -10.8546 H   0  0  0  0  0  0
   16.7818   44.6180  -10.5316 H   0  0  0  0  0  0
   14.7841   40.8013  -10.5008 H   0  0  0  0  0  0
   13.0717   42.2583  -11.3733 H   0  0  0  0  0  0
   13.2625   41.9519   -9.6399 H   0  0  0  0  0  0
   13.1088   44.5760   -8.4451 H   0  0  0  0  0  0
   11.5950   43.7989   -7.9757 H   0  0  0  0  0  0
   11.5549   45.3400   -8.8410 H   0  0  0  0  0  0
   20.1574   42.0859   -9.7510 H   0  0  0  0  0  0
   22.9548   41.7100  -12.2177 H   0  0  0  0  0  0
   24.9181   42.2575  -12.3314 H   0  0  0  0  0  0
  1  2  1  0  0  0
  1 45  1  0  0  0
  1 46  1  0  0  0
  1 47  1  0  0  0
  2  3  1  0  0  0
  2  4  1  0  0  0
  2 48  1  0  0  0
  3 49  1  0  0  0
  3 50  1  0  0  0
  3 51  1  0  0  0
  4  9  1  0  0  0
  4  5  2  0  0  0
  5  6  1  0  0  0
  5 52  1  0  0  0
  6  7  2  0  0  0
  6 53  1  0  0  0
  7  8  1  0  0  0
  7 54  1  0  0  0
  8  9  2  0  0  0
  8 10  1  0  0  0
  9 55  1  0  0  0
 10 11  1  0  0  0
 10 56  1  0  0  0
 10 57  1  0  0  0
 11 12  1  0  0  0
 11 58  1  0  0  0
 11 85  1  0  0  0
 12 13  1  0  0  0
 12 59  1  0  0  0
 12 60  1  0  0  0
 13 43  1  0  0  0
 13 14  1  0  0  0
 13 42  1  0  0  0
 14 44  1  0  0  0
 14 41  1  0  0  0
 14 15  1  0  0  0
 15 16  1  0  0  0
 15 61  1  0  0  0
 15 62  1  0  0  0
 16 21  1  0  0  0
 16 17  2  0  0  0
 17 18  1  0  0  0
 17 63  1  0  0  0
 18 19  2  0  0  0
 18 64  1  0  0  0
 19 20  1  0  0  0
 19 65  1  0  0  0
 20 21  2  0  0  0
 20 22  1  0  0  0
 21 66  1  0  0  0
 22 23  1  0  0  0
 23 24  1  0  0  0
 23 67  1  0  0  0
 23 68  1  0  0  0
 24 25  1  0  0  0
 24 69  1  0  0  0
 24 70  1  0  0  0
 25 26  1  0  0  0
 25 71  1  0  0  0
 25 72  1  0  0  0
 26 27  1  0  0  0
 26 73  1  0  0  0
 26 74  1  0  0  0
 27 28  1  0  0  0
 28 33  1  0  0  0
 28 29  2  0  0  0
 29 30  1  0  0  0
 29 75  1  0  0  0
 30 31  2  0  0  0
 30 39  1  0  0  0
 31 32  1  0  0  0
 31 76  1  0  0  0
 32 33  2  0  0  0
 32 34  1  0  0  0
 33 77  1  0  0  0
 34 35  1  0  0  0
 35 36  1  0  0  0
 35 78  1  0  0  0
 35 79  1  0  0  0
 36 37  2  0  0  0
 36 38  1  0  0  0
 38 80  1  0  0  0
 38 81  1  0  0  0
 38 82  1  0  0  0
 39 40  2  0  0  0
 39 41  1  0  0  0
 41 83  1  0  0  0
 42 84  1  0  0  0
M  CHG  1  11   1
M  END
> <s_m_source_file>
BACE_16.smi

> <i_m_source_file_index>
1

> <i_lp_mmshare_version>
42013

> <i_f3d_flags>
0

> <s_epik_input>
W0NIM11bQ0hdKFtDSDNdKWMxW2NIXVtjSF1bY0hdYyhbY0hdMSlbQ0gyXVtOSF1bQ0gyXVtDQEBIXShbT0hdKVtDQEhdKFtDSDJdMilbTkhdQyg9TyljKFtjSF1jKFtjSF0zKU9bQ0gyXUMoPU8pW0NIM10pW2NIXWMzT1tDSDJdW0NIMl1bQ0gyXVtDSDJdT2MoW2NIXTQpW2NIXVtjSF1bY0hdYzI0

> <s_epik_cmdline>
J2VwaWtfcHl0aG9uJywgJy1waCcsICc3LjAnLCAnLXRuJywgJzgnLCAnLW1hJywgJzIwMCcsICctaW1hZScsICc8aW5maWxlLm1hZT4nLCAnLW9tYWUnLCAnPG91dGZpbGUubWFlPic=

> <r_lp_tautomer_probability>
1

> <r_epik_Ionization_Penalty>
  0.0191

> <r_epik_Ionization_Penalty_Charging>
  0.0191

> <r_epik_Ionization_Penalty_Neutral>
  0.0000

> <r_epik_State_Penalty>
  0.0153

> <r_epik_Charging_Adjusted_Penalty>
0.0343718

> <i_epik_Tot_Q>
1

> <i_epik_Tot_abs_Q>
1

> <s_lp_Force_Field>
OPLS_2005

> <r_lp_Energy>
32.7148

> <b_lp_Chiralities_Consistent>
1

> <s_lp_Variant>
BACE_16.smi:1-1

> <chiral flag>
1

> <version>
0

> <r_i_glide_lipo>
-0.508

> <r_i_glide_hbond>
0

> <r_i_glide_metal>
-0

> <r_i_glide_rewards>
0

> <r_i_glide_erotb>
0.345483

> <r_i_glide_esite>
-0.0693266

> <chiral flag>
1

> <s_i_glide_gridfile>
second_dock_grid_2

> <i_i_glide_lignum>
32

> <i_i_glide_rotatable_bonds>
10

> <r_i_docking_score>
-3.2082

> <r_i_glide_ligand_efficiency>
-0.0763857

> <r_i_glide_ligand_efficiency_sa>
-0.265519

> <r_i_glide_ligand_efficiency_ln>
-0.677169

> <r_glide_XP_GScore>
-3.2235

> <r_i_glide_gscore>
-3.2235

> <r_i_glide_evdw>
-39.944

> <r_i_glide_ecoul>
-13.7265

> <r_i_glide_energy>
-53.6704

> <r_i_glide_einternal>
6.71095

> <r_i_glide_emodel>
-77.2573

> <r_glide_XP_HBond>
-0.7

> <i_i_glide_confnum>
1

> <i_i_glide_posenum>
1

> <r_i_glide_eff_state_penalty>
0.0153

> <i_glide_XP_PoseRank>
4

$$$$
