BACE_2.smi:1
                    3D
 Structure written by MMmdl.
 95 97  0  0  1  0            999 V2000
   22.3705   50.7982   -3.4266 C   0  0  0  0  0  0
   23.2647   50.8635   -2.3461 C   0  0  0  0  0  0
   24.2132   49.8420   -2.1492 C   0  0  0  0  0  0
   25.1882   49.9694   -0.9844 C   0  0  0  0  0  0
   24.6593   49.2198    0.2406 C   0  0  0  0  0  0
   26.6281   49.5638   -1.3398 C   0  0  0  0  0  0
   24.2091   48.7168   -3.0084 C   0  0  0  0  0  0
   23.2992   48.6342   -4.0894 C   0  0  0  0  0  0
   22.4181   49.7230   -4.3301 C   0  0  0  0  0  0
   23.2600   47.3896   -4.9849 C   0  0  2  0  0  0
   22.0520   47.4830   -5.9492 C   0  0  0  0  0  0
   21.8363   48.9044   -6.5029 C   0  0  0  0  0  0
   21.5793   49.7898   -5.4189 O   0  0  0  0  0  0
   23.0383   49.4116   -7.3284 C   0  0  0  0  0  0
   20.5662   48.9698   -7.3654 C   0  0  0  0  0  0
   23.2603   46.1505   -4.1711 N   0  0  0  0  0  0
   22.6733   44.9163   -4.7394 C   0  0  0  0  0  0
   23.5086   44.2883   -5.8808 C   0  0  1  0  0  0
   24.4070   43.3998   -5.2400 O   0  0  0  0  0  0
   22.7204   43.4307   -6.9181 C   0  0  1  0  0  0
   21.5579   44.1285   -7.4762 N   0  0  0  0  0  0
   20.2834   43.9681   -7.0828 C   0  0  0  0  0  0
   19.9839   43.3499   -6.0643 O   0  0  0  0  0  0
   19.1984   44.6458   -7.9454 C   0  0  2  0  0  0
   18.5325   45.7958   -7.1614 C   0  0  0  0  0  0
   23.6498   42.9678   -8.0736 C   0  0  0  0  0  0
   23.0500   42.0787   -9.1923 C   0  0  2  0  0  0
   22.2254   42.8663  -10.2286 C   0  0  0  0  0  0
   22.3088   40.8360   -8.6491 C   0  0  0  0  0  0
   21.9656   39.8188   -9.7505 C   0  0  0  0  0  0
   21.4534   38.4645   -9.2323 C   0  0  0  0  0  0
   19.9887   38.4203   -8.7599 C   0  0  0  0  0  0
   18.9697   38.8930   -9.8144 C   0  0  0  0  0  0
   18.4327   40.2917   -9.4854 C   0  0  0  0  0  0
   17.7096   40.9845  -10.6527 C   0  0  0  0  0  0
   17.0634   42.3317  -10.2621 C   0  0  0  0  0  0
   18.0882   43.3751   -9.7675 C   0  0  0  0  0  0
   18.8122   43.8892  -10.6217 O   0  0  0  0  0  0
   18.1729   43.6915   -8.4453 N   0  0  0  0  0  0
   17.2601   43.0883   -7.4625 C   0  0  0  0  0  0
   24.1669   47.4096   -5.5895 H   0  0  0  0  0  0
   24.0694   45.0617   -6.4076 H   0  0  0  0  0  0
   22.3650   42.5359   -6.4018 H   0  0  0  0  0  0
   19.7127   45.1254   -8.7803 H   0  0  0  0  0  0
   23.9162   41.7069   -9.7424 H   0  0  0  0  0  0
   21.6610   51.5977   -3.5827 H   0  0  0  0  0  0
   23.2279   51.7114   -1.6778 H   0  0  0  0  0  0
   25.2314   51.0265   -0.7160 H   0  0  0  0  0  0
   23.6623   49.5835    0.4878 H   0  0  0  0  0  0
   25.3037   49.3733    1.1081 H   0  0  0  0  0  0
   24.5915   48.1500    0.0488 H   0  0  0  0  0  0
   26.9961   50.1341   -2.1936 H   0  0  0  0  0  0
   26.7107   48.5045   -1.5823 H   0  0  0  0  0  0
   27.3013   49.7573   -0.5047 H   0  0  0  0  0  0
   24.9018   47.9068   -2.8399 H   0  0  0  0  0  0
   22.1617   46.7742   -6.7694 H   0  0  0  0  0  0
   21.1447   47.2078   -5.4101 H   0  0  0  0  0  0
   23.2447   48.7450   -8.1663 H   0  0  0  0  0  0
   23.9507   49.4816   -6.7369 H   0  0  0  0  0  0
   22.8426   50.4017   -7.7397 H   0  0  0  0  0  0
   20.6104   48.2615   -8.1944 H   0  0  0  0  0  0
   20.4272   49.9659   -7.7875 H   0  0  0  0  0  0
   19.6771   48.7474   -6.7742 H   0  0  0  0  0  0
   24.2205   45.9296   -3.9113 H   0  0  0  0  0  0
   22.5447   44.1781   -3.9451 H   0  0  0  0  0  0
   21.6580   45.1183   -5.0626 H   0  0  0  0  0  0
   24.8007   43.8375   -4.4929 H   0  0  0  0  0  0
   21.7160   44.6566   -8.3204 H   0  0  0  0  0  0
   19.2750   46.5346   -6.8732 H   0  0  0  0  0  0
   18.0633   45.4609   -6.2387 H   0  0  0  0  0  0
   17.7792   46.3039   -7.7635 H   0  0  0  0  0  0
   24.1187   43.8400   -8.5305 H   0  0  0  0  0  0
   24.4767   42.4067   -7.6395 H   0  0  0  0  0  0
   22.1130   42.2991  -11.1525 H   0  0  0  0  0  0
   22.7082   43.8075  -10.4919 H   0  0  0  0  0  0
   21.2240   43.0879   -9.8690 H   0  0  0  0  0  0
   22.9420   40.3495   -7.9065 H   0  0  0  0  0  0
   21.3995   41.1332   -8.1269 H   0  0  0  0  0  0
   22.8620   39.6334  -10.3380 H   0  0  0  0  0  0
   21.2542   40.2478  -10.4532 H   0  0  0  0  0  0
   21.5588   37.7500  -10.0400 H   0  0  0  0  0  0
   22.1050   38.1037   -8.4371 H   0  0  0  0  0  0
   19.8767   38.9820   -7.8316 H   0  0  0  0  0  0
   19.7505   37.3907   -8.4972 H   0  0  0  0  0  0
   19.4100   38.8666  -10.8118 H   0  0  0  0  0  0
   18.1291   38.1985   -9.8480 H   0  0  0  0  0  0
   19.2552   40.9224   -9.1494 H   0  0  0  0  0  0
   17.7554   40.1946   -8.6381 H   0  0  0  0  0  0
   18.4118   41.1360  -11.4737 H   0  0  0  0  0  0
   16.9373   40.3203  -11.0396 H   0  0  0  0  0  0
   16.2493   42.1617   -9.5603 H   0  0  0  0  0  0
   16.5834   42.7514  -11.1459 H   0  0  0  0  0  0
   17.4900   43.3600   -6.4401 H   0  0  0  0  0  0
   17.2973   42.0010   -7.4832 H   0  0  0  0  0  0
   16.2322   43.4051   -7.6418 H   0  0  0  0  0  0
  1  9  1  0  0  0
  1  2  2  0  0  0
  1 46  1  0  0  0
  2  3  1  0  0  0
  2 47  1  0  0  0
  3  4  1  0  0  0
  3  7  2  0  0  0
  4  5  1  0  0  0
  4  6  1  0  0  0
  4 48  1  0  0  0
  5 49  1  0  0  0
  5 50  1  0  0  0
  5 51  1  0  0  0
  6 52  1  0  0  0
  6 53  1  0  0  0
  6 54  1  0  0  0
  7  8  1  0  0  0
  7 55  1  0  0  0
  8  9  2  0  0  0
  8 10  1  0  0  0
  9 13  1  0  0  0
 10 41  1  0  0  0
 10 11  1  0  0  0
 10 16  1  0  0  0
 11 12  1  0  0  0
 11 56  1  0  0  0
 11 57  1  0  0  0
 12 13  1  0  0  0
 12 14  1  0  0  0
 12 15  1  0  0  0
 14 58  1  0  0  0
 14 59  1  0  0  0
 14 60  1  0  0  0
 15 61  1  0  0  0
 15 62  1  0  0  0
 15 63  1  0  0  0
 16 17  1  0  0  0
 16 64  1  0  0  0
 17 18  1  0  0  0
 17 65  1  0  0  0
 17 66  1  0  0  0
 18 42  1  0  0  0
 18 19  1  0  0  0
 18 20  1  0  0  0
 19 67  1  0  0  0
 20 43  1  0  0  0
 20 21  1  0  0  0
 20 26  1  0  0  0
 21 22  1  0  0  0
 21 68  1  0  0  0
 22 23  2  0  0  0
 22 24  1  0  0  0
 24 44  1  0  0  0
 24 39  1  0  0  0
 24 25  1  0  0  0
 25 69  1  0  0  0
 25 70  1  0  0  0
 25 71  1  0  0  0
 26 27  1  0  0  0
 26 72  1  0  0  0
 26 73  1  0  0  0
 27 45  1  0  0  0
 27 28  1  0  0  0
 27 29  1  0  0  0
 28 74  1  0  0  0
 28 75  1  0  0  0
 28 76  1  0  0  0
 29 30  1  0  0  0
 29 77  1  0  0  0
 29 78  1  0  0  0
 30 31  1  0  0  0
 30 79  1  0  0  0
 30 80  1  0  0  0
 31 32  1  0  0  0
 31 81  1  0  0  0
 31 82  1  0  0  0
 32 33  1  0  0  0
 32 83  1  0  0  0
 32 84  1  0  0  0
 33 34  1  0  0  0
 33 85  1  0  0  0
 33 86  1  0  0  0
 34 35  1  0  0  0
 34 87  1  0  0  0
 34 88  1  0  0  0
 35 36  1  0  0  0
 35 89  1  0  0  0
 35 90  1  0  0  0
 36 37  1  0  0  0
 36 91  1  0  0  0
 36 92  1  0  0  0
 37 38  2  0  0  0
 37 39  1  0  0  0
 39 40  1  0  0  0
 40 93  1  0  0  0
 40 94  1  0  0  0
 40 95  1  0  0  0
M  END
> <s_m_source_file>
BACE_2.smi

> <i_m_source_file_index>
1

> <i_lp_mmshare_version>
42013

> <i_f3d_flags>
0

> <s_epik_input>
W0NIM11bQ0hdKFtDSDNdKWMoW2NIXTEpW2NIXVtjSF1jKGMxMilPQyhbQ0gzXSkoW0NIM10pW0NIMl1bQ0BASF0yW05IXVtDSDJdW0NAQEhdKFtPSF0pW0NASF0zW05IXUMoPU8pW0NASF0oW0NIM10pTihbQ0gzXSlDKD1PKVtDSDJdW0NIMl1bQ0gyXVtDSDJdW0NIMl1bQ0gyXVtDSDJdW0NIMl1bQ0BIXShbQ0gyXTMpW0NIM10=

> <s_epik_cmdline>
J2VwaWtfcHl0aG9uJywgJy1waCcsICc3LjAnLCAnLXRuJywgJzgnLCAnLW1hJywgJzIwMCcsICctaW1hZScsICc8aW5maWxlLm1hZT4nLCAnLW9tYWUnLCAnPG91dGZpbGUubWFlPic=

> <r_lp_tautomer_probability>
1

> <r_epik_Ionization_Penalty>
  2.0558

> <r_epik_Ionization_Penalty_Charging>
  0.0000

> <r_epik_Ionization_Penalty_Neutral>
  2.0558

> <r_epik_State_Penalty>
  2.1887

> <r_epik_Charging_Adjusted_Penalty>
2.18867

> <i_epik_Tot_Q>
0

> <i_epik_Tot_abs_Q>
0

> <s_lp_Force_Field>
OPLS_2005

> <r_lp_Energy>
50.7677

> <b_lp_Chiralities_Consistent>
1

> <s_lp_Variant>
BACE_2.smi:1-2

> <chiral flag>
1

> <version>
0

> <r_i_glide_lipo>
-0.560518

> <r_i_glide_hbond>
-0.557669

> <r_i_glide_metal>
-0

> <r_i_glide_rewards>
-0.049716

> <r_i_glide_erotb>
0.189885

> <r_i_glide_esite>
-0.00704416

> <chiral flag>
1

> <s_i_glide_gridfile>
second_dock_grid_2

> <i_i_glide_lignum>
3

> <i_i_glide_rotatable_bonds>
6

> <r_i_docking_score>
-2.85262

> <r_i_glide_ligand_efficiency>
-0.0713155

> <r_i_glide_ligand_efficiency_sa>
-0.243896

> <r_i_glide_ligand_efficiency_ln>
-0.60838

> <r_glide_XP_GScore>
-5.04132

> <r_i_glide_gscore>
-5.04132

> <r_i_glide_evdw>
-34.0913

> <r_i_glide_ecoul>
-9.66038

> <r_i_glide_energy>
-43.7517

> <r_i_glide_einternal>
8.75688

> <r_i_glide_emodel>
-54.3959

> <r_glide_XP_HBond>
-1.34762

> <i_i_glide_confnum>
1

> <i_i_glide_posenum>
6

> <r_i_glide_eff_state_penalty>
2.1887

> <i_glide_XP_PoseRank>
1

$$$$
BACE_2.smi:1
                    3D
 Structure written by MMmdl.
 95 97  0  0  1  0            999 V2000
   22.4593   50.6952   -3.2691 C   0  0  0  0  0  0
   23.3660   50.5767   -2.2007 C   0  0  0  0  0  0
   24.2520   49.4810   -2.1406 C   0  0  0  0  0  0
   25.2521   49.3437   -0.9983 C   0  0  0  0  0  0
   26.0685   50.6239   -0.7848 C   0  0  0  0  0  0
   24.5565   48.9303    0.3024 C   0  0  0  0  0  0
   24.1853   48.4873   -3.1400 C   0  0  0  0  0  0
   23.2502   48.5786   -4.1967 C   0  0  0  0  0  0
   22.4201   49.7264   -4.2894 C   0  0  0  0  0  0
   23.0954   47.4253   -5.1891 C   0  0  2  0  0  0
   21.8523   47.6571   -6.0764 C   0  0  0  0  0  0
   21.6864   49.1323   -6.4954 C   0  0  0  0  0  0
   21.5410   49.9379   -5.3281 O   0  0  0  0  0  0
   22.8673   49.6470   -7.3423 C   0  0  0  0  0  0
   20.3778   49.3265   -7.2803 C   0  0  0  0  0  0
   23.0351   46.1564   -4.4393 N   0  0  0  0  0  0
   22.3904   44.9789   -5.0349 C   0  0  0  0  0  0
   23.2911   44.2594   -6.0526 C   0  0  1  0  0  0
   24.0636   43.3586   -5.2791 O   0  0  0  0  0  0
   22.5502   43.4101   -7.1245 C   0  0  1  0  0  0
   21.4507   44.1351   -7.7646 N   0  0  0  0  0  0
   20.1457   43.9913   -7.4759 C   0  0  0  0  0  0
   19.7578   43.3559   -6.4933 O   0  0  0  0  0  0
   19.1430   44.6917   -8.4167 C   0  0  2  0  0  0
   18.5803   45.9747   -7.7778 C   0  0  0  0  0  0
   23.5454   42.8989   -8.1986 C   0  0  0  0  0  0
   22.9947   41.9850   -9.3201 C   0  0  2  0  0  0
   22.2299   42.7490  -10.4142 C   0  0  0  0  0  0
   22.2082   40.7792   -8.7669 C   0  0  0  0  0  0
   21.9187   39.7065   -9.8310 C   0  0  0  0  0  0
   21.3017   38.4161   -9.2658 C   0  0  0  0  0  0
   19.8358   38.5129   -8.8046 C   0  0  0  0  0  0
   18.8499   38.9483   -9.9082 C   0  0  0  0  0  0
   18.3577   40.3840   -9.6893 C   0  0  0  0  0  0
   17.5374   40.9566  -10.8591 C   0  0  0  0  0  0
   16.8953   42.3282  -10.5537 C   0  0  0  0  0  0
   17.9336   43.3932  -10.1472 C   0  0  0  0  0  0
   18.6655   43.8224  -11.0414 O   0  0  0  0  0  0
   18.0382   43.7970   -8.8503 N   0  0  0  0  0  0
   17.0836   43.3359   -7.8283 C   0  0  0  0  0  0
   23.9800   47.4225   -5.8272 H   0  0  0  0  0  0
   23.9414   44.9820   -6.5475 H   0  0  0  0  0  0
   22.1356   42.5374   -6.6176 H   0  0  0  0  0  0
   19.7199   45.0310   -9.2781 H   0  0  0  0  0  0
   23.8813   41.5823   -9.8140 H   0  0  0  0  0  0
   21.7887   51.5438   -3.3076 H   0  0  0  0  0  0
   23.3802   51.3396   -1.4337 H   0  0  0  0  0  0
   25.9530   48.5518   -1.2653 H   0  0  0  0  0  0
   26.5419   50.9443   -1.7142 H   0  0  0  0  0  0
   26.8536   50.4668   -0.0450 H   0  0  0  0  0  0
   25.4512   51.4493   -0.4271 H   0  0  0  0  0  0
   23.9909   48.0062    0.1722 H   0  0  0  0  0  0
   23.8736   49.7124    0.6330 H   0  0  0  0  0  0
   25.2829   48.7676    1.0986 H   0  0  0  0  0  0
   24.8360   47.6270   -3.0758 H   0  0  0  0  0  0
   21.8811   47.0049   -6.9495 H   0  0  0  0  0  0
   20.9567   47.3845   -5.5163 H   0  0  0  0  0  0
   23.0250   49.0165   -8.2186 H   0  0  0  0  0  0
   23.8011   49.6704   -6.7826 H   0  0  0  0  0  0
   22.6819   50.6577   -7.7025 H   0  0  0  0  0  0
   20.3873   48.7589   -8.2094 H   0  0  0  0  0  0
   20.2226   50.3718   -7.5356 H   0  0  0  0  0  0
   19.5153   49.0011   -6.6967 H   0  0  0  0  0  0
   23.9809   45.8880   -4.1765 H   0  0  0  0  0  0
   22.1260   44.2769   -4.2425 H   0  0  0  0  0  0
   21.4325   45.2586   -5.4641 H   0  0  0  0  0  0
   24.4701   43.8259   -4.5578 H   0  0  0  0  0  0
   21.6908   44.6891   -8.5764 H   0  0  0  0  0  0
   19.3908   46.6595   -7.5342 H   0  0  0  0  0  0
   18.0339   45.7826   -6.8562 H   0  0  0  0  0  0
   17.9138   46.4928   -8.4643 H   0  0  0  0  0  0
   24.0520   43.7508   -8.6527 H   0  0  0  0  0  0
   24.3324   42.3430   -7.6830 H   0  0  0  0  0  0
   22.0948   42.1359  -11.3082 H   0  0  0  0  0  0
   22.7727   43.6429  -10.7294 H   0  0  0  0  0  0
   21.2328   43.0575  -10.0843 H   0  0  0  0  0  0
   22.7867   40.3204   -7.9639 H   0  0  0  0  0  0
   21.2732   41.1105   -8.3133 H   0  0  0  0  0  0
   22.8568   39.4456  -10.3208 H   0  0  0  0  0  0
   21.2803   40.1137  -10.6143 H   0  0  0  0  0  0
   21.3568   37.6584  -10.0394 H   0  0  0  0  0  0
   21.9167   38.0440   -8.4464 H   0  0  0  0  0  0
   19.7595   39.1662   -7.9359 H   0  0  0  0  0  0
   19.5302   37.5302   -8.4469 H   0  0  0  0  0  0
   19.3004   38.8428  -10.8961 H   0  0  0  0  0  0
   17.9851   38.2848   -9.9056 H   0  0  0  0  0  0
   19.2158   41.0291   -9.5015 H   0  0  0  0  0  0
   17.7545   40.4004   -8.7823 H   0  0  0  0  0  0
   18.1796   41.0403  -11.7376 H   0  0  0  0  0  0
   16.7503   40.2514  -11.1297 H   0  0  0  0  0  0
   16.1006   42.2016   -9.8225 H   0  0  0  0  0  0
   16.3904   42.6883  -11.4488 H   0  0  0  0  0  0
   17.2863   43.7362   -6.8372 H   0  0  0  0  0  0
   17.0997   42.2496   -7.7242 H   0  0  0  0  0  0
   16.0704   43.6454   -8.0768 H   0  0  0  0  0  0
  1  9  1  0  0  0
  1  2  2  0  0  0
  1 46  1  0  0  0
  2  3  1  0  0  0
  2 47  1  0  0  0
  3  4  1  0  0  0
  3  7  2  0  0  0
  4  5  1  0  0  0
  4  6  1  0  0  0
  4 48  1  0  0  0
  5 49  1  0  0  0
  5 50  1  0  0  0
  5 51  1  0  0  0
  6 52  1  0  0  0
  6 53  1  0  0  0
  6 54  1  0  0  0
  7  8  1  0  0  0
  7 55  1  0  0  0
  8  9  2  0  0  0
  8 10  1  0  0  0
  9 13  1  0  0  0
 10 41  1  0  0  0
 10 11  1  0  0  0
 10 16  1  0  0  0
 11 12  1  0  0  0
 11 56  1  0  0  0
 11 57  1  0  0  0
 12 13  1  0  0  0
 12 14  1  0  0  0
 12 15  1  0  0  0
 14 58  1  0  0  0
 14 59  1  0  0  0
 14 60  1  0  0  0
 15 61  1  0  0  0
 15 62  1  0  0  0
 15 63  1  0  0  0
 16 17  1  0  0  0
 16 64  1  0  0  0
 17 18  1  0  0  0
 17 65  1  0  0  0
 17 66  1  0  0  0
 18 42  1  0  0  0
 18 19  1  0  0  0
 18 20  1  0  0  0
 19 67  1  0  0  0
 20 43  1  0  0  0
 20 21  1  0  0  0
 20 26  1  0  0  0
 21 22  1  0  0  0
 21 68  1  0  0  0
 22 23  2  0  0  0
 22 24  1  0  0  0
 24 44  1  0  0  0
 24 39  1  0  0  0
 24 25  1  0  0  0
 25 69  1  0  0  0
 25 70  1  0  0  0
 25 71  1  0  0  0
 26 27  1  0  0  0
 26 72  1  0  0  0
 26 73  1  0  0  0
 27 45  1  0  0  0
 27 28  1  0  0  0
 27 29  1  0  0  0
 28 74  1  0  0  0
 28 75  1  0  0  0
 28 76  1  0  0  0
 29 30  1  0  0  0
 29 77  1  0  0  0
 29 78  1  0  0  0
 30 31  1  0  0  0
 30 79  1  0  0  0
 30 80  1  0  0  0
 31 32  1  0  0  0
 31 81  1  0  0  0
 31 82  1  0  0  0
 32 33  1  0  0  0
 32 83  1  0  0  0
 32 84  1  0  0  0
 33 34  1  0  0  0
 33 85  1  0  0  0
 33 86  1  0  0  0
 34 35  1  0  0  0
 34 87  1  0  0  0
 34 88  1  0  0  0
 35 36  1  0  0  0
 35 89  1  0  0  0
 35 90  1  0  0  0
 36 37  1  0  0  0
 36 91  1  0  0  0
 36 92  1  0  0  0
 37 38  2  0  0  0
 37 39  1  0  0  0
 39 40  1  0  0  0
 40 93  1  0  0  0
 40 94  1  0  0  0
 40 95  1  0  0  0
M  END
> <s_m_source_file>
BACE_2.smi

> <i_m_source_file_index>
1

> <i_lp_mmshare_version>
42013

> <i_f3d_flags>
0

> <s_epik_input>
W0NIM11bQ0hdKFtDSDNdKWMoW2NIXTEpW2NIXVtjSF1jKGMxMilPQyhbQ0gzXSkoW0NIM10pW0NIMl1bQ0BASF0yW05IXVtDSDJdW0NAQEhdKFtPSF0pW0NASF0zW05IXUMoPU8pW0NASF0oW0NIM10pTihbQ0gzXSlDKD1PKVtDSDJdW0NIMl1bQ0gyXVtDSDJdW0NIMl1bQ0gyXVtDSDJdW0NIMl1bQ0BIXShbQ0gyXTMpW0NIM10=

> <s_epik_cmdline>
J2VwaWtfcHl0aG9uJywgJy1waCcsICc3LjAnLCAnLXRuJywgJzgnLCAnLW1hJywgJzIwMCcsICctaW1hZScsICc8aW5maWxlLm1hZT4nLCAnLW9tYWUnLCAnPG91dGZpbGUubWFlPic=

> <r_lp_tautomer_probability>
1

> <r_epik_Ionization_Penalty>
  2.0558

> <r_epik_Ionization_Penalty_Charging>
  0.0000

> <r_epik_Ionization_Penalty_Neutral>
  2.0558

> <r_epik_State_Penalty>
  2.1887

> <r_epik_Charging_Adjusted_Penalty>
2.18867

> <i_epik_Tot_Q>
0

> <i_epik_Tot_abs_Q>
0

> <s_lp_Force_Field>
OPLS_2005

> <r_lp_Energy>
50.7677

> <b_lp_Chiralities_Consistent>
1

> <s_lp_Variant>
BACE_2.smi:1-2

> <chiral flag>
1

> <version>
0

> <r_i_glide_lipo>
-0.560518

> <r_i_glide_hbond>
-0.557669

> <r_i_glide_metal>
-0

> <r_i_glide_rewards>
-0.049716

> <r_i_glide_erotb>
0.189885

> <r_i_glide_esite>
-0.00704416

> <chiral flag>
1

> <s_i_glide_gridfile>
second_dock_grid_2

> <i_i_glide_lignum>
3

> <i_i_glide_rotatable_bonds>
6

> <r_i_docking_score>
-2.52463

> <r_i_glide_ligand_efficiency>
-0.0631158

> <r_i_glide_ligand_efficiency_sa>
-0.215853

> <r_i_glide_ligand_efficiency_ln>
-0.53843

> <r_glide_XP_GScore>
-4.71333

> <r_i_glide_gscore>
-4.71333

> <r_i_glide_evdw>
-35.9762

> <r_i_glide_ecoul>
-7.50588

> <r_i_glide_energy>
-43.4821

> <r_i_glide_einternal>
9.88225

> <r_i_glide_emodel>
-55.3494

> <r_glide_XP_HBond>
-1.34762

> <i_i_glide_confnum>
1

> <i_i_glide_posenum>
7

> <r_i_glide_eff_state_penalty>
2.1887

> <i_glide_XP_PoseRank>
2

$$$$
BACE_2.smi:1
                    3D
 Structure written by MMmdl.
 95 97  0  0  1  0            999 V2000
   22.7271   50.5207   -3.1103 C   0  0  0  0  0  0
   23.7604   50.4314   -2.1574 C   0  0  0  0  0  0
   24.5976   49.3000   -2.1308 C   0  0  0  0  0  0
   25.7144   49.2028   -1.1013 C   0  0  0  0  0  0
   26.5695   50.4815   -1.0527 C   0  0  0  0  0  0
   25.1859   48.8128    0.2905 C   0  0  0  0  0  0
   24.3976   48.2561   -3.0540 C   0  0  0  0  0  0
   23.3627   48.3421   -4.0081 C   0  0  0  0  0  0
   22.5261   49.4865   -4.0460 C   0  0  0  0  0  0
   23.1485   47.2028   -4.9879 C   0  0  2  0  0  0
   21.7935   47.3154   -5.6914 C   0  0  0  0  0  0
   21.5367   48.7707   -6.0962 C   0  0  0  0  0  0
   21.4951   49.6180   -4.9497 O   0  0  0  0  0  0
   22.6160   49.2622   -7.0565 C   0  0  0  0  0  0
   20.2054   48.8826   -6.8337 C   0  0  0  0  0  0
   23.2593   45.9088   -4.2972 N   0  0  0  0  0  0
   22.7133   44.7520   -5.0130 C   0  0  0  0  0  0
   23.5166   44.4366   -6.2941 C   0  0  1  0  0  0
   24.7757   43.9429   -5.8768 O   0  0  0  0  0  0
   22.8322   43.4188   -7.2602 C   0  0  1  0  0  0
   21.5717   43.9702   -7.7733 N   0  0  0  0  0  0
   20.3597   43.4121   -7.6538 C   0  0  0  0  0  0
   20.1615   42.3738   -7.0446 O   0  0  0  0  0  0
   19.2018   44.1964   -8.3160 C   0  0  2  0  0  0
   18.5181   45.0088   -7.2200 C   0  0  0  0  0  0
   23.7282   42.9397   -8.4413 C   0  0  0  0  0  0
   23.1660   41.7581   -9.2635 C   0  0  2  0  0  0
   21.7347   42.0742   -9.6881 C   0  0  0  0  0  0
   23.2342   40.3990   -8.5345 C   0  0  0  0  0  0
   22.4352   39.2830   -9.2373 C   0  0  0  0  0  0
   20.9209   39.3794   -8.9726 C   0  0  0  0  0  0
   20.0844   38.3541   -9.7620 C   0  0  0  0  0  0
   18.5919   38.3167   -9.3586 C   0  0  0  0  0  0
   17.8666   39.6799   -9.3523 C   0  0  0  0  0  0
   17.7659   40.3575  -10.7359 C   0  0  0  0  0  0
   17.2830   41.8269  -10.6691 C   0  0  0  0  0  0
   18.3575   42.8027  -10.1760 C   0  0  0  0  0  0
   19.2955   43.0780  -10.9059 O   0  0  0  0  0  0
   18.1996   43.3044   -8.9415 N   0  0  0  0  0  0
   17.0464   42.8695   -8.1796 C   0  0  0  0  0  0
   23.9502   47.2383   -5.7254 H   0  0  0  0  0  0
   23.7023   45.3793   -6.8106 H   0  0  0  0  0  0
   22.5753   42.5399   -6.6699 H   0  0  0  0  0  0
   19.5850   44.9243   -9.0311 H   0  0  0  0  0  0
   23.7259   41.6764  -10.1952 H   0  0  0  0  0  0
   22.0875   51.3908   -3.1246 H   0  0  0  0  0  0
   23.9095   51.2311   -1.4471 H   0  0  0  0  0  0
   26.3800   48.3979   -1.4156 H   0  0  0  0  0  0
   26.9890   50.7103   -2.0330 H   0  0  0  0  0  0
   27.4051   50.3675   -0.3615 H   0  0  0  0  0  0
   25.9930   51.3478   -0.7272 H   0  0  0  0  0  0
   24.6358   47.8719    0.2516 H   0  0  0  0  0  0
   24.5196   49.5708    0.7030 H   0  0  0  0  0  0
   26.0056   48.6796    0.9972 H   0  0  0  0  0  0
   25.0391   47.3877   -3.0253 H   0  0  0  0  0  0
   21.7577   46.6544   -6.5574 H   0  0  0  0  0  0
   21.0004   46.9917   -5.0174 H   0  0  0  0  0  0
   22.6429   48.6580   -7.9642 H   0  0  0  0  0  0
   23.6137   49.2334   -6.6191 H   0  0  0  0  0  0
   22.4328   50.2941   -7.3585 H   0  0  0  0  0  0
   20.1850   48.2501   -7.7220 H   0  0  0  0  0  0
   20.0141   49.9070   -7.1555 H   0  0  0  0  0  0
   19.3704   48.5844   -6.1985 H   0  0  0  0  0  0
   24.2266   45.7368   -4.0424 H   0  0  0  0  0  0
   22.7421   43.8770   -4.3633 H   0  0  0  0  0  0
   21.6630   44.9164   -5.2536 H   0  0  0  0  0  0
   24.9534   44.2705   -5.0084 H   0  0  0  0  0  0
   21.6212   44.8412   -8.2822 H   0  0  0  0  0  0
   19.2149   45.7026   -6.7477 H   0  0  0  0  0  0
   18.1058   44.3724   -6.4362 H   0  0  0  0  0  0
   17.6983   45.6045   -7.6228 H   0  0  0  0  0  0
   23.9055   43.7842   -9.1072 H   0  0  0  0  0  0
   24.7126   42.6729   -8.0566 H   0  0  0  0  0  0
   21.3028   41.2687  -10.2813 H   0  0  0  0  0  0
   21.6820   42.9717  -10.3032 H   0  0  0  0  0  0
   21.0857   42.2275   -8.8251 H   0  0  0  0  0  0
   24.2793   40.0990   -8.4579 H   0  0  0  0  0  0
   22.8823   40.4945   -7.5073 H   0  0  0  0  0  0
   22.7892   38.3147   -8.8834 H   0  0  0  0  0  0
   22.6377   39.3003  -10.3082 H   0  0  0  0  0  0
   20.7366   39.2571   -7.9053 H   0  0  0  0  0  0
   20.5756   40.3826   -9.2225 H   0  0  0  0  0  0
   20.5042   37.3583   -9.6201 H   0  0  0  0  0  0
   20.1760   38.5577  -10.8289 H   0  0  0  0  0  0
   18.0604   37.6248  -10.0120 H   0  0  0  0  0  0
   18.5161   37.8864   -8.3601 H   0  0  0  0  0  0
   18.3594   40.3413   -8.6397 H   0  0  0  0  0  0
   16.8603   39.5428   -8.9565 H   0  0  0  0  0  0
   18.7219   40.3152  -11.2579 H   0  0  0  0  0  0
   17.0772   39.7812  -11.3535 H   0  0  0  0  0  0
   16.3803   41.9067  -10.0634 H   0  0  0  0  0  0
   16.9878   42.1615  -11.6635 H   0  0  0  0  0  0
   16.9098   43.4143   -7.2474 H   0  0  0  0  0  0
   17.1182   41.8112   -7.9257 H   0  0  0  0  0  0
   16.1233   43.0360   -8.7363 H   0  0  0  0  0  0
  1  9  1  0  0  0
  1  2  2  0  0  0
  1 46  1  0  0  0
  2  3  1  0  0  0
  2 47  1  0  0  0
  3  4  1  0  0  0
  3  7  2  0  0  0
  4  5  1  0  0  0
  4  6  1  0  0  0
  4 48  1  0  0  0
  5 49  1  0  0  0
  5 50  1  0  0  0
  5 51  1  0  0  0
  6 52  1  0  0  0
  6 53  1  0  0  0
  6 54  1  0  0  0
  7  8  1  0  0  0
  7 55  1  0  0  0
  8  9  2  0  0  0
  8 10  1  0  0  0
  9 13  1  0  0  0
 10 41  1  0  0  0
 10 11  1  0  0  0
 10 16  1  0  0  0
 11 12  1  0  0  0
 11 56  1  0  0  0
 11 57  1  0  0  0
 12 13  1  0  0  0
 12 14  1  0  0  0
 12 15  1  0  0  0
 14 58  1  0  0  0
 14 59  1  0  0  0
 14 60  1  0  0  0
 15 61  1  0  0  0
 15 62  1  0  0  0
 15 63  1  0  0  0
 16 17  1  0  0  0
 16 64  1  0  0  0
 17 18  1  0  0  0
 17 65  1  0  0  0
 17 66  1  0  0  0
 18 42  1  0  0  0
 18 19  1  0  0  0
 18 20  1  0  0  0
 19 67  1  0  0  0
 20 43  1  0  0  0
 20 21  1  0  0  0
 20 26  1  0  0  0
 21 22  1  0  0  0
 21 68  1  0  0  0
 22 23  2  0  0  0
 22 24  1  0  0  0
 24 44  1  0  0  0
 24 39  1  0  0  0
 24 25  1  0  0  0
 25 69  1  0  0  0
 25 70  1  0  0  0
 25 71  1  0  0  0
 26 27  1  0  0  0
 26 72  1  0  0  0
 26 73  1  0  0  0
 27 45  1  0  0  0
 27 28  1  0  0  0
 27 29  1  0  0  0
 28 74  1  0  0  0
 28 75  1  0  0  0
 28 76  1  0  0  0
 29 30  1  0  0  0
 29 77  1  0  0  0
 29 78  1  0  0  0
 30 31  1  0  0  0
 30 79  1  0  0  0
 30 80  1  0  0  0
 31 32  1  0  0  0
 31 81  1  0  0  0
 31 82  1  0  0  0
 32 33  1  0  0  0
 32 83  1  0  0  0
 32 84  1  0  0  0
 33 34  1  0  0  0
 33 85  1  0  0  0
 33 86  1  0  0  0
 34 35  1  0  0  0
 34 87  1  0  0  0
 34 88  1  0  0  0
 35 36  1  0  0  0
 35 89  1  0  0  0
 35 90  1  0  0  0
 36 37  1  0  0  0
 36 91  1  0  0  0
 36 92  1  0  0  0
 37 38  2  0  0  0
 37 39  1  0  0  0
 39 40  1  0  0  0
 40 93  1  0  0  0
 40 94  1  0  0  0
 40 95  1  0  0  0
M  END
> <s_m_source_file>
BACE_2.smi

> <i_m_source_file_index>
1

> <i_lp_mmshare_version>
42013

> <i_f3d_flags>
0

> <s_epik_input>
W0NIM11bQ0hdKFtDSDNdKWMoW2NIXTEpW2NIXVtjSF1jKGMxMilPQyhbQ0gzXSkoW0NIM10pW0NIMl1bQ0BASF0yW05IXVtDSDJdW0NAQEhdKFtPSF0pW0NASF0zW05IXUMoPU8pW0NASF0oW0NIM10pTihbQ0gzXSlDKD1PKVtDSDJdW0NIMl1bQ0gyXVtDSDJdW0NIMl1bQ0gyXVtDSDJdW0NIMl1bQ0BIXShbQ0gyXTMpW0NIM10=

> <s_epik_cmdline>
J2VwaWtfcHl0aG9uJywgJy1waCcsICc3LjAnLCAnLXRuJywgJzgnLCAnLW1hJywgJzIwMCcsICctaW1hZScsICc8aW5maWxlLm1hZT4nLCAnLW9tYWUnLCAnPG91dGZpbGUubWFlPic=

> <r_lp_tautomer_probability>
1

> <r_epik_Ionization_Penalty>
  2.0558

> <r_epik_Ionization_Penalty_Charging>
  0.0000

> <r_epik_Ionization_Penalty_Neutral>
  2.0558

> <r_epik_State_Penalty>
  2.1887

> <r_epik_Charging_Adjusted_Penalty>
2.18867

> <i_epik_Tot_Q>
0

> <i_epik_Tot_abs_Q>
0

> <s_lp_Force_Field>
OPLS_2005

> <r_lp_Energy>
50.7677

> <b_lp_Chiralities_Consistent>
1

> <s_lp_Variant>
BACE_2.smi:1-2

> <chiral flag>
1

> <version>
0

> <r_i_glide_lipo>
-0.560518

> <r_i_glide_hbond>
-0.557669

> <r_i_glide_metal>
-0

> <r_i_glide_rewards>
-0.049716

> <r_i_glide_erotb>
0.189885

> <r_i_glide_esite>
-0.00704416

> <chiral flag>
1

> <s_i_glide_gridfile>
second_dock_grid_2

> <i_i_glide_lignum>
3

> <i_i_glide_rotatable_bonds>
6

> <r_i_docking_score>
-2.48167

> <r_i_glide_ligand_efficiency>
-0.0620417

> <r_i_glide_ligand_efficiency_sa>
-0.21218

> <r_i_glide_ligand_efficiency_ln>
-0.529267

> <r_glide_XP_GScore>
-4.67037

> <r_i_glide_gscore>
-4.67037

> <r_i_glide_evdw>
-35.4367

> <r_i_glide_ecoul>
-6.15822

> <r_i_glide_energy>
-41.5949

> <r_i_glide_einternal>
4.38981

> <r_i_glide_emodel>
-59.3607

> <r_glide_XP_HBond>
-1.34762

> <i_i_glide_confnum>
1

> <i_i_glide_posenum>
1

> <r_i_glide_eff_state_penalty>
2.1887

> <i_glide_XP_PoseRank>
3

$$$$
BACE_2.smi:1
                    3D
 Structure written by MMmdl.
 95 97  0  0  1  0            999 V2000
   22.0610   50.8380   -3.3114 C   0  0  0  0  0  0
   23.0433   50.9499   -2.3095 C   0  0  0  0  0  0
   24.0797   50.0008   -2.2174 C   0  0  0  0  0  0
   25.1759   50.1804   -1.1731 C   0  0  0  0  0  0
   25.0131   49.2123    0.0092 C   0  0  0  0  0  0
   26.5864   50.0923   -1.7818 C   0  0  0  0  0  0
   24.0804   48.8996   -3.1038 C   0  0  0  0  0  0
   23.0831   48.7652   -4.1001 C   0  0  0  0  0  0
   22.0943   49.7737   -4.2331 C   0  0  0  0  0  0
   23.0666   47.5412   -5.0110 C   0  0  2  0  0  0
   21.7666   47.5054   -5.8476 C   0  0  0  0  0  0
   21.3286   48.8980   -6.3381 C   0  0  0  0  0  0
   21.1348   49.7631   -5.2233 O   0  0  0  0  0  0
   22.3439   49.5284   -7.3114 C   0  0  0  0  0  0
   19.9545   48.7980   -7.0180 C   0  0  0  0  0  0
   23.2604   46.3063   -4.2236 N   0  0  0  0  0  0
   22.9705   45.0161   -4.8683 C   0  0  0  0  0  0
   23.8710   44.7097   -6.0900 C   0  0  1  0  0  0
   25.1756   44.4081   -5.6401 O   0  0  0  0  0  0
   23.3909   43.5494   -7.0181 C   0  0  1  0  0  0
   22.2847   42.7846   -6.4350 N   0  0  0  0  0  0
   22.0674   41.4736   -6.6285 C   0  0  0  0  0  0
   22.8532   40.7476   -7.2393 O   0  0  0  0  0  0
   20.7572   40.9085   -6.0517 C   0  0  2  0  0  0
   21.0376   40.2901   -4.6631 C   0  0  0  0  0  0
   22.9606   44.0720   -8.4135 C   0  0  0  0  0  0
   24.0474   43.9362   -9.5059 C   0  0  2  0  0  0
   25.3328   44.7152   -9.1667 C   0  0  0  0  0  0
   23.5429   44.3598  -10.9010 C   0  0  0  0  0  0
   22.2531   43.6810  -11.4030 C   0  0  0  0  0  0
   22.2574   42.1469  -11.3212 C   0  0  0  0  0  0
   21.1484   41.5090  -12.1715 C   0  0  0  0  0  0
   21.0634   39.9775  -12.0525 C   0  0  0  0  0  0
   20.5800   39.4547  -10.6864 C   0  0  0  0  0  0
   19.0844   39.7114  -10.4013 C   0  0  0  0  0  0
   18.6523   39.4013   -8.9527 C   0  0  0  0  0  0
   19.2843   40.3819   -7.9446 C   0  0  0  0  0  0
   18.9775   41.5706   -8.0503 O   0  0  0  0  0  0
   20.1552   39.9366   -6.9989 N   0  0  0  0  0  0
   20.6536   38.5526   -7.0060 C   0  0  0  0  0  0
   23.9050   47.6604   -5.6966 H   0  0  0  0  0  0
   23.9852   45.6070   -6.6960 H   0  0  0  0  0  0
   24.2207   42.8574   -7.1683 H   0  0  0  0  0  0
   20.0617   41.7307   -5.8803 H   0  0  0  0  0  0
   24.3185   42.8824   -9.5644 H   0  0  0  0  0  0
   21.2828   51.5816   -3.3818 H   0  0  0  0  0  0
   23.0100   51.7875   -1.6302 H   0  0  0  0  0  0
   25.0799   51.1913   -0.7696 H   0  0  0  0  0  0
   24.0592   49.3711    0.5093 H   0  0  0  0  0  0
   25.7965   49.3710    0.7530 H   0  0  0  0  0  0
   25.0587   48.1698   -0.3075 H   0  0  0  0  0  0
   26.7060   50.8101   -2.5942 H   0  0  0  0  0  0
   26.8014   49.0980   -2.1775 H   0  0  0  0  0  0
   27.3470   50.3166   -1.0337 H   0  0  0  0  0  0
   24.8544   48.1517   -3.0204 H   0  0  0  0  0  0
   21.8769   46.8280   -6.6945 H   0  0  0  0  0  0
   20.9572   47.1007   -5.2392 H   0  0  0  0  0  0
   22.4918   48.8913   -8.1841 H   0  0  0  0  0  0
   23.3192   49.6826   -6.8502 H   0  0  0  0  0  0
   21.9933   50.4969   -7.6700 H   0  0  0  0  0  0
   19.9931   48.1453   -7.8909 H   0  0  0  0  0  0
   19.6037   49.7751   -7.3503 H   0  0  0  0  0  0
   19.2024   48.3972   -6.3370 H   0  0  0  0  0  0
   24.2369   46.2718   -3.9386 H   0  0  0  0  0  0
   23.0663   44.2147   -4.1346 H   0  0  0  0  0  0
   21.9232   44.9970   -5.1690 H   0  0  0  0  0  0
   25.1426   44.1885   -4.7123 H   0  0  0  0  0  0
   21.5830   43.3002   -5.9224 H   0  0  0  0  0  0
   21.3152   41.0663   -3.9505 H   0  0  0  0  0  0
   21.8433   39.5579   -4.6597 H   0  0  0  0  0  0
   20.1394   39.8115   -4.2725 H   0  0  0  0  0  0
   22.0850   43.5086   -8.7361 H   0  0  0  0  0  0
   22.6075   45.1023   -8.3548 H   0  0  0  0  0  0
   26.0653   44.6262   -9.9713 H   0  0  0  0  0  0
   25.8133   44.3330   -8.2662 H   0  0  0  0  0  0
   25.1317   45.7754   -9.0175 H   0  0  0  0  0  0
   23.3969   45.4415  -10.9205 H   0  0  0  0  0  0
   24.3344   44.1601  -11.6237 H   0  0  0  0  0  0
   22.1177   43.9824  -12.4400 H   0  0  0  0  0  0
   21.3879   44.0758  -10.8705 H   0  0  0  0  0  0
   23.2264   41.7648  -11.6398 H   0  0  0  0  0  0
   22.1537   41.8456  -10.2798 H   0  0  0  0  0  0
   21.3480   41.7497  -13.2146 H   0  0  0  0  0  0
   20.1875   41.9665  -11.9389 H   0  0  0  0  0  0
   20.4136   39.5877  -12.8338 H   0  0  0  0  0  0
   22.0508   39.5746  -12.2644 H   0  0  0  0  0  0
   21.2023   39.8772   -9.8998 H   0  0  0  0  0  0
   20.7526   38.3811  -10.6340 H   0  0  0  0  0  0
   18.8333   40.7487  -10.6236 H   0  0  0  0  0  0
   18.4852   39.1140  -11.0904 H   0  0  0  0  0  0
   18.8196   38.3505   -8.7186 H   0  0  0  0  0  0
   17.5719   39.5345   -8.8809 H   0  0  0  0  0  0
   21.5747   38.4219   -6.4397 H   0  0  0  0  0  0
   20.9123   38.2207   -8.0160 H   0  0  0  0  0  0
   19.8996   37.8745   -6.6030 H   0  0  0  0  0  0
  1  9  1  0  0  0
  1  2  2  0  0  0
  1 46  1  0  0  0
  2  3  1  0  0  0
  2 47  1  0  0  0
  3  4  1  0  0  0
  3  7  2  0  0  0
  4  5  1  0  0  0
  4  6  1  0  0  0
  4 48  1  0  0  0
  5 49  1  0  0  0
  5 50  1  0  0  0
  5 51  1  0  0  0
  6 52  1  0  0  0
  6 53  1  0  0  0
  6 54  1  0  0  0
  7  8  1  0  0  0
  7 55  1  0  0  0
  8  9  2  0  0  0
  8 10  1  0  0  0
  9 13  1  0  0  0
 10 41  1  0  0  0
 10 11  1  0  0  0
 10 16  1  0  0  0
 11 12  1  0  0  0
 11 56  1  0  0  0
 11 57  1  0  0  0
 12 13  1  0  0  0
 12 14  1  0  0  0
 12 15  1  0  0  0
 14 58  1  0  0  0
 14 59  1  0  0  0
 14 60  1  0  0  0
 15 61  1  0  0  0
 15 62  1  0  0  0
 15 63  1  0  0  0
 16 17  1  0  0  0
 16 64  1  0  0  0
 17 18  1  0  0  0
 17 65  1  0  0  0
 17 66  1  0  0  0
 18 42  1  0  0  0
 18 19  1  0  0  0
 18 20  1  0  0  0
 19 67  1  0  0  0
 20 43  1  0  0  0
 20 21  1  0  0  0
 20 26  1  0  0  0
 21 22  1  0  0  0
 21 68  1  0  0  0
 22 23  2  0  0  0
 22 24  1  0  0  0
 24 44  1  0  0  0
 24 39  1  0  0  0
 24 25  1  0  0  0
 25 69  1  0  0  0
 25 70  1  0  0  0
 25 71  1  0  0  0
 26 27  1  0  0  0
 26 72  1  0  0  0
 26 73  1  0  0  0
 27 45  1  0  0  0
 27 28  1  0  0  0
 27 29  1  0  0  0
 28 74  1  0  0  0
 28 75  1  0  0  0
 28 76  1  0  0  0
 29 30  1  0  0  0
 29 77  1  0  0  0
 29 78  1  0  0  0
 30 31  1  0  0  0
 30 79  1  0  0  0
 30 80  1  0  0  0
 31 32  1  0  0  0
 31 81  1  0  0  0
 31 82  1  0  0  0
 32 33  1  0  0  0
 32 83  1  0  0  0
 32 84  1  0  0  0
 33 34  1  0  0  0
 33 85  1  0  0  0
 33 86  1  0  0  0
 34 35  1  0  0  0
 34 87  1  0  0  0
 34 88  1  0  0  0
 35 36  1  0  0  0
 35 89  1  0  0  0
 35 90  1  0  0  0
 36 37  1  0  0  0
 36 91  1  0  0  0
 36 92  1  0  0  0
 37 38  2  0  0  0
 37 39  1  0  0  0
 39 40  1  0  0  0
 40 93  1  0  0  0
 40 94  1  0  0  0
 40 95  1  0  0  0
M  END
> <s_m_source_file>
BACE_2.smi

> <i_m_source_file_index>
1

> <i_lp_mmshare_version>
42013

> <i_f3d_flags>
0

> <s_epik_input>
W0NIM11bQ0hdKFtDSDNdKWMoW2NIXTEpW2NIXVtjSF1jKGMxMilPQyhbQ0gzXSkoW0NIM10pW0NIMl1bQ0BASF0yW05IXVtDSDJdW0NAQEhdKFtPSF0pW0NASF0zW05IXUMoPU8pW0NASF0oW0NIM10pTihbQ0gzXSlDKD1PKVtDSDJdW0NIMl1bQ0gyXVtDSDJdW0NIMl1bQ0gyXVtDSDJdW0NIMl1bQ0BIXShbQ0gyXTMpW0NIM10=

> <s_epik_cmdline>
J2VwaWtfcHl0aG9uJywgJy1waCcsICc3LjAnLCAnLXRuJywgJzgnLCAnLW1hJywgJzIwMCcsICctaW1hZScsICc8aW5maWxlLm1hZT4nLCAnLW9tYWUnLCAnPG91dGZpbGUubWFlPic=

> <r_lp_tautomer_probability>
1

> <r_epik_Ionization_Penalty>
  2.0558

> <r_epik_Ionization_Penalty_Charging>
  0.0000

> <r_epik_Ionization_Penalty_Neutral>
  2.0558

> <r_epik_State_Penalty>
  2.1887

> <r_epik_Charging_Adjusted_Penalty>
2.18867

> <i_epik_Tot_Q>
0

> <i_epik_Tot_abs_Q>
0

> <s_lp_Force_Field>
OPLS_2005

> <r_lp_Energy>
50.7677

> <b_lp_Chiralities_Consistent>
1

> <s_lp_Variant>
BACE_2.smi:1-2

> <chiral flag>
1

> <version>
0

> <r_i_glide_lipo>
-0.560518

> <r_i_glide_hbond>
-0.557669

> <r_i_glide_metal>
-0

> <r_i_glide_rewards>
-0.049716

> <r_i_glide_erotb>
0.189885

> <r_i_glide_esite>
-0.00704416

> <chiral flag>
1

> <s_i_glide_gridfile>
second_dock_grid_2

> <i_i_glide_lignum>
3

> <i_i_glide_rotatable_bonds>
6

> <r_i_docking_score>
-1.27775

> <r_i_glide_ligand_efficiency>
-0.0319439

> <r_i_glide_ligand_efficiency_sa>
-0.109246

> <r_i_glide_ligand_efficiency_ln>
-0.272507

> <r_glide_XP_GScore>
-3.46645

> <r_i_glide_gscore>
-3.46645

> <r_i_glide_evdw>
-39.0908

> <r_i_glide_ecoul>
-8.01611

> <r_i_glide_energy>
-47.1069

> <r_i_glide_einternal>
5.69793

> <r_i_glide_emodel>
-54.5696

> <r_glide_XP_HBond>
-1.34762

> <i_i_glide_confnum>
1

> <i_i_glide_posenum>
3

> <r_i_glide_eff_state_penalty>
2.1887

> <i_glide_XP_PoseRank>
4

$$$$
BACE_3.smi:1
                    3D
 Structure written by MMmdl.
 86 87  0  0  1  0            999 V2000
   27.0584   43.2825   -9.8404 C   0  0  0  0  0  0
   28.1609   44.1269  -10.0715 C   0  0  0  0  0  0
   29.1244   43.7770  -11.0370 C   0  0  0  0  0  0
   28.9888   42.5837  -11.7790 C   0  0  0  0  0  0
   30.0576   42.1593  -12.7746 C   0  0  0  0  0  0
   30.3312   43.2359  -13.8393 C   0  0  0  0  0  0
   31.3365   41.7535  -12.0339 C   0  0  0  0  0  0
   27.8739   41.7494  -11.5535 C   0  0  0  0  0  0
   26.9172   42.0871  -10.5786 C   0  0  0  0  0  0
   25.7481   41.1634  -10.3074 C   0  0  0  0  0  0
   24.5089   41.7519  -10.8401 N   0  3  0  0  0  0
   23.2641   41.2764  -10.2053 C   0  0  0  0  0  0
   22.0397   42.0943  -10.6850 C   0  0  0  0  0  0
   21.6634   41.6951  -11.9893 O   0  0  0  0  0  0
   22.4191   43.4563  -10.6442 O   0  0  0  0  0  0
   20.8256   41.9613   -9.7230 C   0  0  1  0  0  0
   19.6763   42.6924  -10.2528 N   0  0  0  0  0  0
   18.9010   43.5558   -9.5781 C   0  0  0  0  0  0
   19.1727   43.9503   -8.4427 O   0  0  0  0  0  0
   17.6334   44.0307  -10.3088 C   0  0  2  0  0  0
   17.5150   45.5690  -10.2928 C   0  0  0  0  0  0
   20.4053   40.5209   -9.3263 C   0  0  0  0  0  0
   20.0299   39.5217  -10.4528 C   0  0  2  0  0  0
   18.9213   40.0118  -11.4000 C   0  0  0  0  0  0
   19.7286   38.1103   -9.8894 C   0  0  0  0  0  0
   18.4793   37.9575   -8.9910 C   0  0  0  0  0  0
   17.1666   37.7969   -9.7702 C   0  0  0  0  0  0
   15.9285   37.5386   -8.9093 C   0  0  0  0  0  0
   15.6033   38.6157   -7.8557 C   0  0  0  0  0  0
   15.5652   40.0680   -8.3592 C   0  0  0  0  0  0
   14.6074   40.3228   -9.5385 C   0  0  0  0  0  0
   14.4462   41.8171   -9.9006 C   0  0  0  0  0  0
   15.7254   42.4665  -10.4718 C   0  0  0  0  0  0
   16.0709   42.1290  -11.6073 O   0  0  0  0  0  0
   16.4130   43.3948   -9.7535 N   0  0  0  0  0  0
   16.0469   43.7258   -8.3631 C   0  0  0  0  0  0
   21.1214   42.4270   -8.7795 H   0  0  0  0  0  0
   17.7625   43.7766  -11.3620 H   0  0  0  0  0  0
   20.9174   39.3877  -11.0693 H   0  0  0  0  0  0
   26.3301   43.5544   -9.0902 H   0  0  0  0  0  0
   28.2768   45.0385   -9.5038 H   0  0  0  0  0  0
   29.9774   44.4205  -11.1889 H   0  0  0  0  0  0
   29.7006   41.2750  -13.3044 H   0  0  0  0  0  0
   29.4335   43.4718  -14.4049 H   0  0  0  0  0  0
   31.0836   42.8918  -14.5433 H   0  0  0  0  0  0
   30.6985   44.1601  -13.3975 H   0  0  0  0  0  0
   31.1265   40.9558  -11.3186 H   0  0  0  0  0  0
   31.7682   42.5872  -11.4775 H   0  0  0  0  0  0
   32.0896   41.3944  -12.7338 H   0  0  0  0  0  0
   27.7820   40.8209  -12.1022 H   0  0  0  0  0  0
   25.6607   40.9997   -9.2401 H   0  0  0  0  0  0
   25.9163   40.1858  -10.7578 H   0  0  0  0  0  0
   24.4618   41.5455  -11.8319 H   0  0  0  0  0  0
   23.3733   41.4004   -9.1292 H   0  0  0  0  0  0
   23.1313   40.2068  -10.3828 H   0  0  0  0  0  0
   22.4388   41.4714  -12.4908 H   0  0  0  0  0  0
   21.7214   43.9442  -10.2130 H   0  0  0  0  0  0
   19.4173   42.4567  -11.2024 H   0  0  0  0  0  0
   18.3856   46.0208  -10.7717 H   0  0  0  0  0  0
   17.4471   45.9852   -9.2850 H   0  0  0  0  0  0
   16.6355   45.8983  -10.8469 H   0  0  0  0  0  0
   21.2035   40.0722   -8.7340 H   0  0  0  0  0  0
   19.5622   40.6113   -8.6391 H   0  0  0  0  0  0
   18.5583   39.2052  -12.0342 H   0  0  0  0  0  0
   19.2690   40.7969  -12.0684 H   0  0  0  0  0  0
   18.0752   40.4164  -10.8398 H   0  0  0  0  0  0
   19.6558   37.3989  -10.7139 H   0  0  0  0  0  0
   20.6006   37.7872   -9.3197 H   0  0  0  0  0  0
   18.4019   38.7756   -8.2789 H   0  0  0  0  0  0
   18.6083   37.0629   -8.3822 H   0  0  0  0  0  0
   16.9658   38.6555  -10.4006 H   0  0  0  0  0  0
   17.2839   36.9520  -10.4394 H   0  0  0  0  0  0
   16.0598   36.5748   -8.4195 H   0  0  0  0  0  0
   15.0669   37.4261   -9.5701 H   0  0  0  0  0  0
   14.6472   38.3675   -7.3914 H   0  0  0  0  0  0
   16.3294   38.5564   -7.0419 H   0  0  0  0  0  0
   16.5758   40.3883   -8.6211 H   0  0  0  0  0  0
   15.2650   40.6923   -7.5150 H   0  0  0  0  0  0
   14.9320   39.7706  -10.4214 H   0  0  0  0  0  0
   13.6278   39.9139   -9.2876 H   0  0  0  0  0  0
   14.0304   42.3590   -9.0527 H   0  0  0  0  0  0
   13.6829   41.8914  -10.6764 H   0  0  0  0  0  0
   16.7293   44.4271   -7.8855 H   0  0  0  0  0  0
   16.0518   42.8315   -7.7334 H   0  0  0  0  0  0
   15.0538   44.1786   -8.3141 H   0  0  0  0  0  0
   24.5292   42.7535  -10.7155 H   0  0  0  0  0  0
  1  9  1  0  0  0
  1  2  2  0  0  0
  1 40  1  0  0  0
  2  3  1  0  0  0
  2 41  1  0  0  0
  3  4  2  0  0  0
  3 42  1  0  0  0
  4  5  1  0  0  0
  4  8  1  0  0  0
  5  6  1  0  0  0
  5  7  1  0  0  0
  5 43  1  0  0  0
  6 44  1  0  0  0
  6 45  1  0  0  0
  6 46  1  0  0  0
  7 47  1  0  0  0
  7 48  1  0  0  0
  7 49  1  0  0  0
  8  9  2  0  0  0
  8 50  1  0  0  0
  9 10  1  0  0  0
 10 11  1  0  0  0
 10 51  1  0  0  0
 10 52  1  0  0  0
 11 12  1  0  0  0
 11 53  1  0  0  0
 11 86  1  0  0  0
 12 13  1  0  0  0
 12 54  1  0  0  0
 12 55  1  0  0  0
 13 14  1  0  0  0
 13 15  1  0  0  0
 13 16  1  0  0  0
 14 56  1  0  0  0
 15 57  1  0  0  0
 16 37  1  0  0  0
 16 17  1  0  0  0
 16 22  1  0  0  0
 17 18  1  0  0  0
 17 58  1  0  0  0
 18 19  2  0  0  0
 18 20  1  0  0  0
 20 38  1  0  0  0
 20 35  1  0  0  0
 20 21  1  0  0  0
 21 59  1  0  0  0
 21 60  1  0  0  0
 21 61  1  0  0  0
 22 23  1  0  0  0
 22 62  1  0  0  0
 22 63  1  0  0  0
 23 39  1  0  0  0
 23 24  1  0  0  0
 23 25  1  0  0  0
 24 64  1  0  0  0
 24 65  1  0  0  0
 24 66  1  0  0  0
 25 26  1  0  0  0
 25 67  1  0  0  0
 25 68  1  0  0  0
 26 27  1  0  0  0
 26 69  1  0  0  0
 26 70  1  0  0  0
 27 28  1  0  0  0
 27 71  1  0  0  0
 27 72  1  0  0  0
 28 29  1  0  0  0
 28 73  1  0  0  0
 28 74  1  0  0  0
 29 30  1  0  0  0
 29 75  1  0  0  0
 29 76  1  0  0  0
 30 31  1  0  0  0
 30 77  1  0  0  0
 30 78  1  0  0  0
 31 32  1  0  0  0
 31 79  1  0  0  0
 31 80  1  0  0  0
 32 33  1  0  0  0
 32 81  1  0  0  0
 32 82  1  0  0  0
 33 34  2  0  0  0
 33 35  1  0  0  0
 35 36  1  0  0  0
 36 83  1  0  0  0
 36 84  1  0  0  0
 36 85  1  0  0  0
M  CHG  1  11   1
M  END
> <s_m_source_file>
BACE_3.smi

> <i_m_source_file_index>
1

> <i_lp_mmshare_version>
42013

> <i_f3d_flags>
0

> <s_epik_input>
W0NIM11bQ0hdKFtDSDNdKWMxW2NIXVtjSF1bY0hdYyhbY0hdMSlbQ0gyXVtOSF1bQ0gyXUMoW09IXSkoW09IXSlbQ0BIXTJbTkhdQyg9TylbQ0BIXShbQ0gzXSlOKFtDSDNdKUMoPU8pW0NIMl1bQ0gyXVtDSDJdW0NIMl1bQ0gyXVtDSDJdW0NIMl1bQ0gyXVtDQEhdKFtDSDJdMilbQ0gzXQ==

> <s_epik_cmdline>
J2VwaWtfcHl0aG9uJywgJy1waCcsICc3LjAnLCAnLXRuJywgJzgnLCAnLW1hJywgJzIwMCcsICctaW1hZScsICc8aW5maWxlLm1hZT4nLCAnLW9tYWUnLCAnPG91dGZpbGUubWFlPic=

> <r_epik_Ionization_Penalty>
  0.0182

> <r_epik_Ionization_Penalty_Charging>
  0.0182

> <r_epik_Ionization_Penalty_Neutral>
  0.0000

> <r_epik_State_Penalty>
  0.0144

> <r_epik_Charging_Adjusted_Penalty>
0.0325934

> <i_epik_Tot_Q>
1

> <i_epik_Tot_abs_Q>
1

> <s_lp_Force_Field>
OPLS_2005

> <r_lp_Energy>
34.8509

> <b_lp_Chiralities_Consistent>
1

> <s_lp_Variant>
BACE_3.smi:1-1

> <chiral flag>
1

> <version>
0

> <r_i_glide_lipo>
-1.16514

> <r_i_glide_hbond>
0

> <r_i_glide_metal>
-0

> <r_i_glide_rewards>
-4.1169e-05

> <r_i_glide_erotb>
0.40135

> <r_i_glide_esite>
-0.066352

> <chiral flag>
1

> <s_i_glide_gridfile>
second_dock_grid_2

> <i_i_glide_lignum>
4

> <i_i_glide_rotatable_bonds>
8

> <r_i_docking_score>
-5.79178

> <r_i_glide_ligand_efficiency>
-0.160883

> <r_i_glide_ligand_efficiency_sa>
-0.531223

> <r_i_glide_ligand_efficiency_ln>
-1.26361

> <r_glide_XP_GScore>
-5.80618

> <r_i_glide_gscore>
-5.80618

> <r_i_glide_evdw>
-35.3041

> <r_i_glide_ecoul>
-14.3192

> <r_i_glide_energy>
-49.6233

> <r_i_glide_einternal>
5.24271

> <r_i_glide_emodel>
-59.7706

> <r_glide_XP_HBond>
-1.51927

> <i_i_glide_confnum>
1

> <i_i_glide_posenum>
15

> <r_i_glide_eff_state_penalty>
0.0144

> <i_glide_XP_PoseRank>
1

$$$$
BACE_3.smi:1
                    3D
 Structure written by MMmdl.
 86 87  0  0  1  0            999 V2000
   26.5619   43.8915  -10.2200 C   0  0  0  0  0  0
   27.5605   44.7626  -10.6927 C   0  0  0  0  0  0
   28.6419   44.2554  -11.4392 C   0  0  0  0  0  0
   28.7293   42.8746  -11.7228 C   0  0  0  0  0  0
   29.9339   42.3346  -12.4841 C   0  0  0  0  0  0
   30.9418   41.7203  -11.5101 C   0  0  0  0  0  0
   29.5570   41.3496  -13.5980 C   0  0  0  0  0  0
   27.7204   42.0081  -11.2513 C   0  0  0  0  0  0
   26.6369   42.5116  -10.5015 C   0  0  0  0  0  0
   25.5504   41.5799  -10.0085 C   0  0  0  0  0  0
   24.3527   41.7527  -10.8398 N   0  3  0  0  0  0
   23.0978   41.3103  -10.2128 C   0  0  0  0  0  0
   21.9064   42.0679  -10.8311 C   0  0  0  0  0  0
   21.6601   41.5442  -12.1217 O   0  0  0  0  0  0
   22.2703   43.4326  -10.8927 O   0  0  0  0  0  0
   20.6532   41.9909   -9.9131 C   0  0  1  0  0  0
   19.5007   42.6649  -10.5110 N   0  0  0  0  0  0
   18.7404   43.5918   -9.9057 C   0  0  0  0  0  0
   19.0429   44.1145   -8.8332 O   0  0  0  0  0  0
   17.4373   43.9761  -10.6220 C   0  0  2  0  0  0
   17.2618   45.5096  -10.6845 C   0  0  0  0  0  0
   20.2406   40.5830   -9.4050 C   0  0  0  0  0  0
   19.9845   39.4743  -10.4564 C   0  0  2  0  0  0
   18.9276   39.8467  -11.5072 C   0  0  0  0  0  0
   19.7056   38.1034   -9.8000 C   0  0  0  0  0  0
   18.4390   37.9722   -8.9275 C   0  0  0  0  0  0
   17.1417   37.7903   -9.7347 C   0  0  0  0  0  0
   15.9000   37.4935   -8.8907 C   0  0  0  0  0  0
   15.5333   38.5643   -7.8413 C   0  0  0  0  0  0
   15.4584   40.0115   -8.3634 C   0  0  0  0  0  0
   14.4781   40.2237   -9.5354 C   0  0  0  0  0  0
   14.3413   41.6981   -9.9596 C   0  0  0  0  0  0
   15.6307   42.2915  -10.5659 C   0  0  0  0  0  0
   16.0394   41.7970  -11.6206 O   0  0  0  0  0  0
   16.2625   43.3396   -9.9747 N   0  0  0  0  0  0
   15.8890   43.7865   -8.6234 C   0  0  0  0  0  0
   20.9218   42.5330   -9.0044 H   0  0  0  0  0  0
   17.5327   43.6613  -11.6616 H   0  0  0  0  0  0
   20.9124   39.3210  -11.0075 H   0  0  0  0  0  0
   25.7378   44.2887   -9.6451 H   0  0  0  0  0  0
   27.5053   45.8194  -10.4744 H   0  0  0  0  0  0
   29.4142   44.9281  -11.7789 H   0  0  0  0  0  0
   30.4275   43.1774  -12.9653 H   0  0  0  0  0  0
   31.2759   42.4530  -10.7756 H   0  0  0  0  0  0
   31.8204   41.3554  -12.0414 H   0  0  0  0  0  0
   30.5065   40.8799  -10.9709 H   0  0  0  0  0  0
   28.8632   41.7940  -14.3099 H   0  0  0  0  0  0
   29.1034   40.4383  -13.2145 H   0  0  0  0  0  0
   30.4409   41.0476  -14.1601 H   0  0  0  0  0  0
   27.7818   40.9504  -11.4487 H   0  0  0  0  0  0
   25.2918   41.8375   -8.9799 H   0  0  0  0  0  0
   25.8745   40.5384  -10.0274 H   0  0  0  0  0  0
   24.4597   41.3008  -11.7459 H   0  0  0  0  0  0
   23.1337   41.5388   -9.1457 H   0  0  0  0  0  0
   22.9971   40.2276  -10.3024 H   0  0  0  0  0  0
   22.4828   41.3533  -12.5560 H   0  0  0  0  0  0
   21.4932   43.9277  -11.1183 H   0  0  0  0  0  0
   19.1933   42.2964  -11.4045 H   0  0  0  0  0  0
   18.0793   45.9682  -11.2419 H   0  0  0  0  0  0
   17.2487   45.9852   -9.7058 H   0  0  0  0  0  0
   16.3360   45.7732  -11.1943 H   0  0  0  0  0  0
   21.0002   40.2250   -8.7094 H   0  0  0  0  0  0
   19.3465   40.7100   -8.7906 H   0  0  0  0  0  0
   18.5909   38.9613  -12.0389 H   0  0  0  0  0  0
   19.3083   40.5373  -12.2588 H   0  0  0  0  0  0
   18.0604   40.3155  -11.0450 H   0  0  0  0  0  0
   19.6636   37.3500  -10.5875 H   0  0  0  0  0  0
   20.5714   37.8324   -9.1929 H   0  0  0  0  0  0
   18.3558   38.8065   -8.2338 H   0  0  0  0  0  0
   18.5528   37.0929   -8.2959 H   0  0  0  0  0  0
   16.9289   38.6597  -10.3500 H   0  0  0  0  0  0
   17.2800   36.9640  -10.4289 H   0  0  0  0  0  0
   16.0539   36.5352   -8.3993 H   0  0  0  0  0  0
   15.0521   37.3474   -9.5619 H   0  0  0  0  0  0
   14.5809   38.2977   -7.3812 H   0  0  0  0  0  0
   16.2572   38.5353   -7.0235 H   0  0  0  0  0  0
   16.4585   40.3417   -8.6513 H   0  0  0  0  0  0
   15.1624   40.6554   -7.5336 H   0  0  0  0  0  0
   14.7853   39.6278  -10.3952 H   0  0  0  0  0  0
   13.4955   39.8427   -9.2555 H   0  0  0  0  0  0
   13.9496   42.2770   -9.1272 H   0  0  0  0  0  0
   13.5703   41.7592  -10.7283 H   0  0  0  0  0  0
   16.5851   44.5059   -8.1959 H   0  0  0  0  0  0
   15.8560   42.9492   -7.9245 H   0  0  0  0  0  0
   14.9111   44.2668   -8.6336 H   0  0  0  0  0  0
   24.2204   42.7441  -11.0048 H   0  0  0  0  0  0
  1  9  1  0  0  0
  1  2  2  0  0  0
  1 40  1  0  0  0
  2  3  1  0  0  0
  2 41  1  0  0  0
  3  4  2  0  0  0
  3 42  1  0  0  0
  4  5  1  0  0  0
  4  8  1  0  0  0
  5  6  1  0  0  0
  5  7  1  0  0  0
  5 43  1  0  0  0
  6 44  1  0  0  0
  6 45  1  0  0  0
  6 46  1  0  0  0
  7 47  1  0  0  0
  7 48  1  0  0  0
  7 49  1  0  0  0
  8  9  2  0  0  0
  8 50  1  0  0  0
  9 10  1  0  0  0
 10 11  1  0  0  0
 10 51  1  0  0  0
 10 52  1  0  0  0
 11 12  1  0  0  0
 11 53  1  0  0  0
 11 86  1  0  0  0
 12 13  1  0  0  0
 12 54  1  0  0  0
 12 55  1  0  0  0
 13 14  1  0  0  0
 13 15  1  0  0  0
 13 16  1  0  0  0
 14 56  1  0  0  0
 15 57  1  0  0  0
 16 37  1  0  0  0
 16 17  1  0  0  0
 16 22  1  0  0  0
 17 18  1  0  0  0
 17 58  1  0  0  0
 18 19  2  0  0  0
 18 20  1  0  0  0
 20 38  1  0  0  0
 20 35  1  0  0  0
 20 21  1  0  0  0
 21 59  1  0  0  0
 21 60  1  0  0  0
 21 61  1  0  0  0
 22 23  1  0  0  0
 22 62  1  0  0  0
 22 63  1  0  0  0
 23 39  1  0  0  0
 23 24  1  0  0  0
 23 25  1  0  0  0
 24 64  1  0  0  0
 24 65  1  0  0  0
 24 66  1  0  0  0
 25 26  1  0  0  0
 25 67  1  0  0  0
 25 68  1  0  0  0
 26 27  1  0  0  0
 26 69  1  0  0  0
 26 70  1  0  0  0
 27 28  1  0  0  0
 27 71  1  0  0  0
 27 72  1  0  0  0
 28 29  1  0  0  0
 28 73  1  0  0  0
 28 74  1  0  0  0
 29 30  1  0  0  0
 29 75  1  0  0  0
 29 76  1  0  0  0
 30 31  1  0  0  0
 30 77  1  0  0  0
 30 78  1  0  0  0
 31 32  1  0  0  0
 31 79  1  0  0  0
 31 80  1  0  0  0
 32 33  1  0  0  0
 32 81  1  0  0  0
 32 82  1  0  0  0
 33 34  2  0  0  0
 33 35  1  0  0  0
 35 36  1  0  0  0
 36 83  1  0  0  0
 36 84  1  0  0  0
 36 85  1  0  0  0
M  CHG  1  11   1
M  END
> <s_m_source_file>
BACE_3.smi

> <i_m_source_file_index>
1

> <i_lp_mmshare_version>
42013

> <i_f3d_flags>
0

> <s_epik_input>
W0NIM11bQ0hdKFtDSDNdKWMxW2NIXVtjSF1bY0hdYyhbY0hdMSlbQ0gyXVtOSF1bQ0gyXUMoW09IXSkoW09IXSlbQ0BIXTJbTkhdQyg9TylbQ0BIXShbQ0gzXSlOKFtDSDNdKUMoPU8pW0NIMl1bQ0gyXVtDSDJdW0NIMl1bQ0gyXVtDSDJdW0NIMl1bQ0gyXVtDQEhdKFtDSDJdMilbQ0gzXQ==

> <s_epik_cmdline>
J2VwaWtfcHl0aG9uJywgJy1waCcsICc3LjAnLCAnLXRuJywgJzgnLCAnLW1hJywgJzIwMCcsICctaW1hZScsICc8aW5maWxlLm1hZT4nLCAnLW9tYWUnLCAnPG91dGZpbGUubWFlPic=

> <r_epik_Ionization_Penalty>
  0.0182

> <r_epik_Ionization_Penalty_Charging>
  0.0182

> <r_epik_Ionization_Penalty_Neutral>
  0.0000

> <r_epik_State_Penalty>
  0.0144

> <r_epik_Charging_Adjusted_Penalty>
0.0325934

> <i_epik_Tot_Q>
1

> <i_epik_Tot_abs_Q>
1

> <s_lp_Force_Field>
OPLS_2005

> <r_lp_Energy>
34.8509

> <b_lp_Chiralities_Consistent>
1

> <s_lp_Variant>
BACE_3.smi:1-1

> <chiral flag>
1

> <version>
0

> <r_i_glide_lipo>
-1.16514

> <r_i_glide_hbond>
0

> <r_i_glide_metal>
-0

> <r_i_glide_rewards>
-4.1169e-05

> <r_i_glide_erotb>
0.40135

> <r_i_glide_esite>
-0.066352

> <chiral flag>
1

> <s_i_glide_gridfile>
second_dock_grid_2

> <i_i_glide_lignum>
4

> <i_i_glide_rotatable_bonds>
8

> <r_i_docking_score>
-5.44692

> <r_i_glide_ligand_efficiency>
-0.151303

> <r_i_glide_ligand_efficiency_sa>
-0.499593

> <r_i_glide_ligand_efficiency_ln>
-1.18837

> <r_glide_XP_GScore>
-5.46132

> <r_i_glide_gscore>
-5.46132

> <r_i_glide_evdw>
-35.4986

> <r_i_glide_ecoul>
-13.9416

> <r_i_glide_energy>
-49.4402

> <r_i_glide_einternal>
5.94396

> <r_i_glide_emodel>
-62.6929

> <r_glide_XP_HBond>
-1.51927

> <i_i_glide_confnum>
1

> <i_i_glide_posenum>
3

> <r_i_glide_eff_state_penalty>
0.0144

> <i_glide_XP_PoseRank>
2

$$$$
BACE_3.smi:1
                    3D
 Structure written by MMmdl.
 86 87  0  0  1  0            999 V2000
   25.8781   43.5073  -10.2003 C   0  0  0  0  0  0
   26.8032   44.5552  -10.3667 C   0  0  0  0  0  0
   28.0609   44.3022  -10.9475 C   0  0  0  0  0  0
   28.4055   42.9981  -11.3679 C   0  0  0  0  0  0
   29.7729   42.7371  -11.9970 C   0  0  0  0  0  0
   30.6671   41.8665  -11.0964 C   0  0  0  0  0  0
   29.6547   42.1590  -13.4184 C   0  0  0  0  0  0
   27.4701   41.9506  -11.1971 C   0  0  0  0  0  0
   26.2084   42.2000  -10.6146 C   0  0  0  0  0  0
   25.2124   41.0683  -10.4350 C   0  0  0  0  0  0
   23.8509   41.4994  -10.8127 N   0  3  0  0  0  0
   22.7691   40.8829  -10.0101 C   0  0  0  0  0  0
   22.9055   41.1832   -8.4935 C   0  0  0  0  0  0
   23.9004   42.1791   -8.3294 O   0  0  0  0  0  0
   23.2577   39.9565   -7.8762 O   0  0  0  0  0  0
   21.6061   41.6631   -7.8533 C   0  0  1  0  0  0
   20.8654   42.4810   -8.8174 N   0  0  0  0  0  0
   19.8799   43.3418   -8.5303 C   0  0  0  0  0  0
   19.5227   43.5720   -7.3867 O   0  0  0  0  0  0
   19.2381   44.0719   -9.7306 C   0  0  2  0  0  0
   19.7092   45.5228   -9.6905 C   0  0  0  0  0  0
   20.7881   40.4458   -7.3700 C   0  0  0  0  0  0
   20.4467   39.4212   -8.4746 C   0  0  2  0  0  0
   19.6164   40.0824   -9.5710 C   0  0  0  0  0  0
   19.7288   38.1585   -7.9508 C   0  0  0  0  0  0
   18.2690   38.3701   -7.4942 C   0  0  0  0  0  0
   17.2843   38.6163   -8.6555 C   0  0  0  0  0  0
   15.8060   38.7157   -8.2207 C   0  0  0  0  0  0
   15.4506   39.9202   -7.3180 C   0  0  0  0  0  0
   15.8219   41.3084   -7.8806 C   0  0  0  0  0  0
   15.1271   41.6628   -9.2157 C   0  0  0  0  0  0
   15.5464   43.0340   -9.8025 C   0  0  0  0  0  0
   17.0204   43.1036  -10.2167 C   0  0  0  0  0  0
   17.4551   42.3105  -11.0355 O   0  0  0  0  0  0
   17.7645   44.0454   -9.6193 N   0  0  0  0  0  0
   17.1073   44.9083   -8.6586 C   0  0  0  0  0  0
   21.9065   42.2687   -6.9982 H   0  0  0  0  0  0
   19.5978   43.6687  -10.6773 H   0  0  0  0  0  0
   21.3733   39.1118   -8.9580 H   0  0  0  0  0  0
   24.9157   43.7125   -9.7543 H   0  0  0  0  0  0
   26.5478   45.5552  -10.0485 H   0  0  0  0  0  0
   28.7575   45.1193  -11.0668 H   0  0  0  0  0  0
   30.2770   43.6995  -12.0955 H   0  0  0  0  0  0
   30.7930   42.3201  -10.1127 H   0  0  0  0  0  0
   31.6614   41.7489  -11.5285 H   0  0  0  0  0  0
   30.2541   40.8678  -10.9518 H   0  0  0  0  0  0
   29.0711   42.8177  -14.0624 H   0  0  0  0  0  0
   29.1764   41.1792  -13.4237 H   0  0  0  0  0  0
   30.6372   42.0447  -13.8774 H   0  0  0  0  0  0
   27.7179   40.9480  -11.5141 H   0  0  0  0  0  0
   25.2201   40.7354   -9.3961 H   0  0  0  0  0  0
   25.5136   40.2151  -11.0448 H   0  0  0  0  0  0
   23.7005   41.2672  -11.7840 H   0  0  0  0  0  0
   22.7795   39.8049  -10.1797 H   0  0  0  0  0  0
   21.8217   41.2584  -10.3967 H   0  0  0  0  0  0
   24.7101   41.8575   -8.6952 H   0  0  0  0  0  0
   23.7875   39.4580   -8.4793 H   0  0  0  0  0  0
   21.1086   42.3709   -9.7915 H   0  0  0  0  0  0
   20.7914   45.5901   -9.8104 H   0  0  0  0  0  0
   19.4537   46.0127   -8.7505 H   0  0  0  0  0  0
   19.2612   46.1053  -10.4963 H   0  0  0  0  0  0
   21.3586   39.9446   -6.5881 H   0  0  0  0  0  0
   19.8775   40.7957   -6.8838 H   0  0  0  0  0  0
   19.3814   39.3868  -10.3760 H   0  0  0  0  0  0
   20.1437   40.9174  -10.0309 H   0  0  0  0  0  0
   18.6710   40.4634   -9.1830 H   0  0  0  0  0  0
   19.7484   37.3902   -8.7237 H   0  0  0  0  0  0
   20.3046   37.7432   -7.1238 H   0  0  0  0  0  0
   18.2171   39.1861   -6.7734 H   0  0  0  0  0  0
   17.9474   37.4811   -6.9515 H   0  0  0  0  0  0
   17.5664   39.5122   -9.2086 H   0  0  0  0  0  0
   17.3746   37.7977   -9.3695 H   0  0  0  0  0  0
   15.5225   37.7961   -7.7089 H   0  0  0  0  0  0
   15.1804   38.7425   -9.1129 H   0  0  0  0  0  0
   14.3819   39.8967   -7.1052 H   0  0  0  0  0  0
   15.9360   39.7946   -6.3502 H   0  0  0  0  0  0
   16.9049   41.3681   -7.9888 H   0  0  0  0  0  0
   15.5675   42.0655   -7.1389 H   0  0  0  0  0  0
   15.3150   40.8869   -9.9579 H   0  0  0  0  0  0
   14.0479   41.6594   -9.0626 H   0  0  0  0  0  0
   15.3056   43.8269   -9.0944 H   0  0  0  0  0  0
   14.9548   43.2520  -10.6916 H   0  0  0  0  0  0
   17.7130   45.7591   -8.3537 H   0  0  0  0  0  0
   16.8391   44.3594   -7.7550 H   0  0  0  0  0  0
   16.2060   45.3544   -9.0808 H   0  0  0  0  0  0
   23.7945   42.5024  -10.7082 H   0  0  0  0  0  0
  1  9  1  0  0  0
  1  2  2  0  0  0
  1 40  1  0  0  0
  2  3  1  0  0  0
  2 41  1  0  0  0
  3  4  2  0  0  0
  3 42  1  0  0  0
  4  5  1  0  0  0
  4  8  1  0  0  0
  5  6  1  0  0  0
  5  7  1  0  0  0
  5 43  1  0  0  0
  6 44  1  0  0  0
  6 45  1  0  0  0
  6 46  1  0  0  0
  7 47  1  0  0  0
  7 48  1  0  0  0
  7 49  1  0  0  0
  8  9  2  0  0  0
  8 50  1  0  0  0
  9 10  1  0  0  0
 10 11  1  0  0  0
 10 51  1  0  0  0
 10 52  1  0  0  0
 11 12  1  0  0  0
 11 53  1  0  0  0
 11 86  1  0  0  0
 12 13  1  0  0  0
 12 54  1  0  0  0
 12 55  1  0  0  0
 13 14  1  0  0  0
 13 15  1  0  0  0
 13 16  1  0  0  0
 14 56  1  0  0  0
 15 57  1  0  0  0
 16 37  1  0  0  0
 16 17  1  0  0  0
 16 22  1  0  0  0
 17 18  1  0  0  0
 17 58  1  0  0  0
 18 19  2  0  0  0
 18 20  1  0  0  0
 20 38  1  0  0  0
 20 35  1  0  0  0
 20 21  1  0  0  0
 21 59  1  0  0  0
 21 60  1  0  0  0
 21 61  1  0  0  0
 22 23  1  0  0  0
 22 62  1  0  0  0
 22 63  1  0  0  0
 23 39  1  0  0  0
 23 24  1  0  0  0
 23 25  1  0  0  0
 24 64  1  0  0  0
 24 65  1  0  0  0
 24 66  1  0  0  0
 25 26  1  0  0  0
 25 67  1  0  0  0
 25 68  1  0  0  0
 26 27  1  0  0  0
 26 69  1  0  0  0
 26 70  1  0  0  0
 27 28  1  0  0  0
 27 71  1  0  0  0
 27 72  1  0  0  0
 28 29  1  0  0  0
 28 73  1  0  0  0
 28 74  1  0  0  0
 29 30  1  0  0  0
 29 75  1  0  0  0
 29 76  1  0  0  0
 30 31  1  0  0  0
 30 77  1  0  0  0
 30 78  1  0  0  0
 31 32  1  0  0  0
 31 79  1  0  0  0
 31 80  1  0  0  0
 32 33  1  0  0  0
 32 81  1  0  0  0
 32 82  1  0  0  0
 33 34  2  0  0  0
 33 35  1  0  0  0
 35 36  1  0  0  0
 36 83  1  0  0  0
 36 84  1  0  0  0
 36 85  1  0  0  0
M  CHG  1  11   1
M  END
> <s_m_source_file>
BACE_3.smi

> <i_m_source_file_index>
1

> <i_lp_mmshare_version>
42013

> <i_f3d_flags>
0

> <s_epik_input>
W0NIM11bQ0hdKFtDSDNdKWMxW2NIXVtjSF1bY0hdYyhbY0hdMSlbQ0gyXVtOSF1bQ0gyXUMoW09IXSkoW09IXSlbQ0BIXTJbTkhdQyg9TylbQ0BIXShbQ0gzXSlOKFtDSDNdKUMoPU8pW0NIMl1bQ0gyXVtDSDJdW0NIMl1bQ0gyXVtDSDJdW0NIMl1bQ0gyXVtDQEhdKFtDSDJdMilbQ0gzXQ==

> <s_epik_cmdline>
J2VwaWtfcHl0aG9uJywgJy1waCcsICc3LjAnLCAnLXRuJywgJzgnLCAnLW1hJywgJzIwMCcsICctaW1hZScsICc8aW5maWxlLm1hZT4nLCAnLW9tYWUnLCAnPG91dGZpbGUubWFlPic=

> <r_epik_Ionization_Penalty>
  0.0182

> <r_epik_Ionization_Penalty_Charging>
  0.0182

> <r_epik_Ionization_Penalty_Neutral>
  0.0000

> <r_epik_State_Penalty>
  0.0144

> <r_epik_Charging_Adjusted_Penalty>
0.0325934

> <i_epik_Tot_Q>
1

> <i_epik_Tot_abs_Q>
1

> <s_lp_Force_Field>
OPLS_2005

> <r_lp_Energy>
34.8509

> <b_lp_Chiralities_Consistent>
1

> <s_lp_Variant>
BACE_3.smi:1-1

> <chiral flag>
1

> <version>
0

> <r_i_glide_lipo>
-1.16514

> <r_i_glide_hbond>
0

> <r_i_glide_metal>
-0

> <r_i_glide_rewards>
-4.1169e-05

> <r_i_glide_erotb>
0.40135

> <r_i_glide_esite>
-0.066352

> <chiral flag>
1

> <s_i_glide_gridfile>
second_dock_grid_2

> <i_i_glide_lignum>
4

> <i_i_glide_rotatable_bonds>
8

> <r_i_docking_score>
-3.87362

> <r_i_glide_ligand_efficiency>
-0.107601

> <r_i_glide_ligand_efficiency_sa>
-0.35529

> <r_i_glide_ligand_efficiency_ln>
-0.84512

> <r_glide_XP_GScore>
-3.88802

> <r_i_glide_gscore>
-3.88802

> <r_i_glide_evdw>
-34.7861

> <r_i_glide_ecoul>
-11.6042

> <r_i_glide_energy>
-46.3903

> <r_i_glide_einternal>
1.85994

> <r_i_glide_emodel>
-63.6145

> <r_glide_XP_HBond>
-1.51927

> <i_i_glide_confnum>
1

> <i_i_glide_posenum>
17

> <r_i_glide_eff_state_penalty>
0.0144

> <i_glide_XP_PoseRank>
3

$$$$
BACE_3.smi:1
                    3D
 Structure written by MMmdl.
 86 87  0  0  1  0            999 V2000
   25.8786   43.9564  -10.8352 C   0  0  0  0  0  0
   26.8785   44.9238  -11.0494 C   0  0  0  0  0  0
   28.1735   44.5282  -11.4364 C   0  0  0  0  0  0
   28.4808   43.1605  -11.6133 C   0  0  0  0  0  0
   29.8893   42.7447  -12.0339 C   0  0  0  0  0  0
   30.8235   43.9561  -12.2030 C   0  0  0  0  0  0
   30.4868   41.6876  -11.0883 C   0  0  0  0  0  0
   27.4703   42.1947  -11.3961 C   0  0  0  0  0  0
   26.1709   42.5873  -11.0073 C   0  0  0  0  0  0
   25.0941   41.5423  -10.7757 C   0  0  0  0  0  0
   24.8602   41.3376   -9.3315 N   0  3  0  0  0  0
   23.5651   41.8634   -8.8408 C   0  0  0  0  0  0
   22.4102   40.8368   -8.9863 C   0  0  0  0  0  0
   22.8421   39.6064   -8.4311 O   0  0  0  0  0  0
   22.1374   40.7405  -10.3742 O   0  0  0  0  0  0
   21.1223   41.2738   -8.2943 C   0  0  1  0  0  0
   20.4357   42.2621   -9.1304 N   0  0  0  0  0  0
   19.4844   43.1143   -8.7260 C   0  0  0  0  0  0
   19.1177   43.1846   -7.5645 O   0  0  0  0  0  0
   18.8968   44.0469   -9.8079 C   0  0  2  0  0  0
   19.4310   45.4515   -9.5422 C   0  0  0  0  0  0
   20.2429   40.0367   -8.0108 C   0  0  0  0  0  0
   19.8758   39.2085   -9.2621 C   0  0  2  0  0  0
   19.0951   40.0662  -10.2538 C   0  0  0  0  0  0
   19.0936   37.9157   -8.9445 C   0  0  0  0  0  0
   17.6368   38.1232   -8.4765 C   0  0  0  0  0  0
   16.6846   38.5882   -9.5971 C   0  0  0  0  0  0
   15.2047   38.6891   -9.1680 C   0  0  0  0  0  0
   14.8872   39.7579   -8.0963 C   0  0  0  0  0  0
   15.3295   41.1966   -8.4369 C   0  0  0  0  0  0
   14.6747   41.7813   -9.7097 C   0  0  0  0  0  0
   15.1646   43.2046  -10.0762 C   0  0  0  0  0  0
   16.6473   43.2677  -10.4593 C   0  0  0  0  0  0
   17.0608   42.5887  -11.3847 O   0  0  0  0  0  0
   17.4218   44.0724   -9.7176 N   0  0  0  0  0  0
   16.7867   44.8092   -8.6436 C   0  0  0  0  0  0
   21.4342   41.7281   -7.3538 H   0  0  0  0  0  0
   19.2549   43.7758  -10.8010 H   0  0  0  0  0  0
   20.7962   38.9332   -9.7771 H   0  0  0  0  0  0
   24.8883   44.2709  -10.5393 H   0  0  0  0  0  0
   26.6520   45.9715  -10.9169 H   0  0  0  0  0  0
   28.9274   45.2853  -11.5961 H   0  0  0  0  0  0
   29.8125   42.2741  -13.0149 H   0  0  0  0  0  0
   30.4173   44.6671  -12.9233 H   0  0  0  0  0  0
   31.8027   43.6469  -12.5702 H   0  0  0  0  0  0
   30.9801   44.4869  -11.2637 H   0  0  0  0  0  0
   29.8445   40.8083  -11.0271 H   0  0  0  0  0  0
   30.6216   42.0720  -10.0770 H   0  0  0  0  0  0
   31.4620   41.3521  -11.4425 H   0  0  0  0  0  0
   27.6888   41.1450  -11.5279 H   0  0  0  0  0  0
   25.3922   40.6007  -11.2391 H   0  0  0  0  0  0
   24.1685   41.8565  -11.2602 H   0  0  0  0  0  0
   25.6038   41.7912   -8.8203 H   0  0  0  0  0  0
   23.3266   42.7744   -9.3923 H   0  0  0  0  0  0
   23.7028   42.1478   -7.7977 H   0  0  0  0  0  0
   23.5116   39.2434   -8.9905 H   0  0  0  0  0  0
   22.9399   40.5240  -10.8237 H   0  0  0  0  0  0
   20.6909   42.2898  -10.1073 H   0  0  0  0  0  0
   20.5170   45.4858   -9.6389 H   0  0  0  0  0  0
   19.1809   45.8045   -8.5413 H   0  0  0  0  0  0
   19.0235   46.1697  -10.2545 H   0  0  0  0  0  0
   20.7768   39.3968   -7.3083 H   0  0  0  0  0  0
   19.3402   40.3507   -7.4867 H   0  0  0  0  0  0
   18.8437   39.5124  -11.1578 H   0  0  0  0  0  0
   19.6669   40.9358  -10.5755 H   0  0  0  0  0  0
   18.1609   40.4275   -9.8223 H   0  0  0  0  0  0
   19.0927   37.2734   -9.8251 H   0  0  0  0  0  0
   19.6358   37.3534   -8.1843 H   0  0  0  0  0  0
   17.6084   38.8219   -7.6404 H   0  0  0  0  0  0
   17.2667   37.1781   -8.0790 H   0  0  0  0  0  0
   17.0158   39.5435  -10.0043 H   0  0  0  0  0  0
   16.7511   37.8841  -10.4265 H   0  0  0  0  0  0
   14.8718   37.7166   -8.8053 H   0  0  0  0  0  0
   14.5967   38.8799  -10.0524 H   0  0  0  0  0  0
   13.8149   39.7522   -7.9009 H   0  0  0  0  0  0
   15.3495   39.4645   -7.1537 H   0  0  0  0  0  0
   16.4158   41.2216   -8.5231 H   0  0  0  0  0  0
   15.0959   41.8435   -7.5912 H   0  0  0  0  0  0
   14.8410   41.1191  -10.5594 H   0  0  0  0  0  0
   13.5939   41.8049   -9.5704 H   0  0  0  0  0  0
   14.9468   43.8914   -9.2583 H   0  0  0  0  0  0
   14.5989   43.5823  -10.9280 H   0  0  0  0  0  0
   17.4240   45.5748   -8.2063 H   0  0  0  0  0  0
   16.4786   44.1427   -7.8371 H   0  0  0  0  0  0
   15.9136   45.3555   -9.0026 H   0  0  0  0  0  0
   24.8956   40.3465   -9.1410 H   0  0  0  0  0  0
  1  9  1  0  0  0
  1  2  2  0  0  0
  1 40  1  0  0  0
  2  3  1  0  0  0
  2 41  1  0  0  0
  3  4  2  0  0  0
  3 42  1  0  0  0
  4  5  1  0  0  0
  4  8  1  0  0  0
  5  6  1  0  0  0
  5  7  1  0  0  0
  5 43  1  0  0  0
  6 44  1  0  0  0
  6 45  1  0  0  0
  6 46  1  0  0  0
  7 47  1  0  0  0
  7 48  1  0  0  0
  7 49  1  0  0  0
  8  9  2  0  0  0
  8 50  1  0  0  0
  9 10  1  0  0  0
 10 11  1  0  0  0
 10 51  1  0  0  0
 10 52  1  0  0  0
 11 12  1  0  0  0
 11 53  1  0  0  0
 11 86  1  0  0  0
 12 13  1  0  0  0
 12 54  1  0  0  0
 12 55  1  0  0  0
 13 14  1  0  0  0
 13 15  1  0  0  0
 13 16  1  0  0  0
 14 56  1  0  0  0
 15 57  1  0  0  0
 16 37  1  0  0  0
 16 17  1  0  0  0
 16 22  1  0  0  0
 17 18  1  0  0  0
 17 58  1  0  0  0
 18 19  2  0  0  0
 18 20  1  0  0  0
 20 38  1  0  0  0
 20 35  1  0  0  0
 20 21  1  0  0  0
 21 59  1  0  0  0
 21 60  1  0  0  0
 21 61  1  0  0  0
 22 23  1  0  0  0
 22 62  1  0  0  0
 22 63  1  0  0  0
 23 39  1  0  0  0
 23 24  1  0  0  0
 23 25  1  0  0  0
 24 64  1  0  0  0
 24 65  1  0  0  0
 24 66  1  0  0  0
 25 26  1  0  0  0
 25 67  1  0  0  0
 25 68  1  0  0  0
 26 27  1  0  0  0
 26 69  1  0  0  0
 26 70  1  0  0  0
 27 28  1  0  0  0
 27 71  1  0  0  0
 27 72  1  0  0  0
 28 29  1  0  0  0
 28 73  1  0  0  0
 28 74  1  0  0  0
 29 30  1  0  0  0
 29 75  1  0  0  0
 29 76  1  0  0  0
 30 31  1  0  0  0
 30 77  1  0  0  0
 30 78  1  0  0  0
 31 32  1  0  0  0
 31 79  1  0  0  0
 31 80  1  0  0  0
 32 33  1  0  0  0
 32 81  1  0  0  0
 32 82  1  0  0  0
 33 34  2  0  0  0
 33 35  1  0  0  0
 35 36  1  0  0  0
 36 83  1  0  0  0
 36 84  1  0  0  0
 36 85  1  0  0  0
M  CHG  1  11   1
M  END
> <s_m_source_file>
BACE_3.smi

> <i_m_source_file_index>
1

> <i_lp_mmshare_version>
42013

> <i_f3d_flags>
0

> <s_epik_input>
W0NIM11bQ0hdKFtDSDNdKWMxW2NIXVtjSF1bY0hdYyhbY0hdMSlbQ0gyXVtOSF1bQ0gyXUMoW09IXSkoW09IXSlbQ0BIXTJbTkhdQyg9TylbQ0BIXShbQ0gzXSlOKFtDSDNdKUMoPU8pW0NIMl1bQ0gyXVtDSDJdW0NIMl1bQ0gyXVtDSDJdW0NIMl1bQ0gyXVtDQEhdKFtDSDJdMilbQ0gzXQ==

> <s_epik_cmdline>
J2VwaWtfcHl0aG9uJywgJy1waCcsICc3LjAnLCAnLXRuJywgJzgnLCAnLW1hJywgJzIwMCcsICctaW1hZScsICc8aW5maWxlLm1hZT4nLCAnLW9tYWUnLCAnPG91dGZpbGUubWFlPic=

> <r_epik_Ionization_Penalty>
  0.0182

> <r_epik_Ionization_Penalty_Charging>
  0.0182

> <r_epik_Ionization_Penalty_Neutral>
  0.0000

> <r_epik_State_Penalty>
  0.0144

> <r_epik_Charging_Adjusted_Penalty>
0.0325934

> <i_epik_Tot_Q>
1

> <i_epik_Tot_abs_Q>
1

> <s_lp_Force_Field>
OPLS_2005

> <r_lp_Energy>
34.8509

> <b_lp_Chiralities_Consistent>
1

> <s_lp_Variant>
BACE_3.smi:1-1

> <chiral flag>
1

> <version>
0

> <r_i_glide_lipo>
-1.16514

> <r_i_glide_hbond>
0

> <r_i_glide_metal>
-0

> <r_i_glide_rewards>
-4.1169e-05

> <r_i_glide_erotb>
0.40135

> <r_i_glide_esite>
-0.066352

> <chiral flag>
1

> <s_i_glide_gridfile>
second_dock_grid_2

> <i_i_glide_lignum>
4

> <i_i_glide_rotatable_bonds>
8

> <r_i_docking_score>
-2.81713

> <r_i_glide_ligand_efficiency>
-0.0782537

> <r_i_glide_ligand_efficiency_sa>
-0.258388

> <r_i_glide_ligand_efficiency_ln>
-0.614622

> <r_glide_XP_GScore>
-2.83153

> <r_i_glide_gscore>
-2.83153

> <r_i_glide_evdw>
-32.6663

> <r_i_glide_ecoul>
-10.568

> <r_i_glide_energy>
-43.2343

> <r_i_glide_einternal>
1.17354

> <r_i_glide_emodel>
-60.7346

> <r_glide_XP_HBond>
-1.51927

> <i_i_glide_confnum>
1

> <i_i_glide_posenum>
18

> <r_i_glide_eff_state_penalty>
0.0144

> <i_glide_XP_PoseRank>
4

$$$$
BACE_3.smi:1
                    3D
 Structure written by MMmdl.
 86 87  0  0  1  0            999 V2000
   26.6577   43.6791   -9.7681 C   0  0  0  0  0  0
   27.7074   44.5760  -10.0339 C   0  0  0  0  0  0
   28.7798   44.1809  -10.8528 C   0  0  0  0  0  0
   28.8139   42.8869  -11.4121 C   0  0  0  0  0  0
   30.0052   42.4778  -12.2681 C   0  0  0  0  0  0
   31.0557   41.7528  -11.4245 C   0  0  0  0  0  0
   29.6075   41.6416  -13.4922 C   0  0  0  0  0  0
   27.7564   41.9879  -11.1427 C   0  0  0  0  0  0
   26.6786   42.3840  -10.3255 C   0  0  0  0  0  0
   25.5506   41.4206  -10.0315 C   0  0  0  0  0  0
   24.3691   41.7563  -10.8395 N   0  3  0  0  0  0
   23.1057   41.2548  -10.2644 C   0  0  0  0  0  0
   21.9145   42.1116  -10.7250 C   0  0  0  0  0  0
   21.5744   41.7475  -12.0448 O   0  0  0  0  0  0
   22.3270   43.4618  -10.6456 O   0  0  0  0  0  0
   20.7043   41.9665   -9.7566 C   0  0  1  0  0  0
   19.5383   42.6966  -10.2576 N   0  0  0  0  0  0
   18.9239   43.7300   -9.6632 C   0  0  0  0  0  0
   19.3659   44.2918   -8.6637 O   0  0  0  0  0  0
   17.6017   44.1772  -10.3077 C   0  0  2  0  0  0
   17.4152   45.7077  -10.2586 C   0  0  0  0  0  0
   20.2972   40.5200   -9.3614 C   0  0  0  0  0  0
   19.9550   39.5120  -10.4892 C   0  0  2  0  0  0
   18.8464   40.0082  -11.4299 C   0  0  0  0  0  0
   19.6926   38.0854   -9.9299 C   0  0  0  0  0  0
   18.4699   37.9049   -9.0024 C   0  0  0  0  0  0
   17.1315   37.7838   -9.7461 C   0  0  0  0  0  0
   15.9157   37.5433   -8.8472 C   0  0  0  0  0  0
   15.6234   38.6330   -7.7966 C   0  0  0  0  0  0
   15.6184   40.0887   -8.3009 C   0  0  0  0  0  0
   14.6496   40.3803   -9.4645 C   0  0  0  0  0  0
   14.4858   41.8874   -9.7542 C   0  0  0  0  0  0
   15.7420   42.5455  -10.3680 C   0  0  0  0  0  0
   16.0608   42.2049  -11.5096 O   0  0  0  0  0  0
   16.4405   43.4892   -9.6853 N   0  0  0  0  0  0
   16.1520   43.7861   -8.2739 C   0  0  0  0  0  0
   21.0096   42.4233   -8.8128 H   0  0  0  0  0  0
   17.6798   43.9446  -11.3711 H   0  0  0  0  0  0
   20.8437   39.3977  -11.1108 H   0  0  0  0  0  0
   25.8384   43.9897   -9.1347 H   0  0  0  0  0  0
   27.6937   45.5707   -9.6097 H   0  0  0  0  0  0
   29.5849   44.8760  -11.0427 H   0  0  0  0  0  0
   30.4601   43.3917  -12.6490 H   0  0  0  0  0  0
   31.3992   42.3860  -10.6061 H   0  0  0  0  0  0
   31.9188   41.4881  -12.0348 H   0  0  0  0  0  0
   30.6509   40.8375  -10.9929 H   0  0  0  0  0  0
   28.8300   42.1513  -14.0543 H   0  0  0  0  0  0
   29.2362   40.6531  -13.2195 H   0  0  0  0  0  0
   30.4616   41.4897  -14.1547 H   0  0  0  0  0  0
   27.7726   40.9843  -11.5433 H   0  0  0  0  0  0
   25.2734   41.4963   -8.9784 H   0  0  0  0  0  0
   25.8590   40.3917  -10.2150 H   0  0  0  0  0  0
   24.4794   41.4021  -11.7889 H   0  0  0  0  0  0
   23.1512   41.3172   -9.1770 H   0  0  0  0  0  0
   22.9807   40.1984  -10.5065 H   0  0  0  0  0  0
   22.3577   41.5231  -12.5299 H   0  0  0  0  0  0
   21.5565   43.9896  -10.4747 H   0  0  0  0  0  0
   19.1251   42.3235  -11.1001 H   0  0  0  0  0  0
   18.2365   46.2179  -10.7639 H   0  0  0  0  0  0
   17.3733   46.1008   -9.2427 H   0  0  0  0  0  0
   16.4932   45.9994  -10.7618 H   0  0  0  0  0  0
   21.0912   40.0903   -8.7532 H   0  0  0  0  0  0
   19.4485   40.6042   -8.6826 H   0  0  0  0  0  0
   18.4600   39.2044  -12.0396 H   0  0  0  0  0  0
   19.2038   40.7650  -12.1240 H   0  0  0  0  0  0
   18.0154   40.4411  -10.8781 H   0  0  0  0  0  0
   19.6264   37.3611  -10.7439 H   0  0  0  0  0  0
   20.5772   37.7863   -9.3670 H   0  0  0  0  0  0
   18.4280   38.6928   -8.2529 H   0  0  0  0  0  0
   18.6081   36.9827   -8.4380 H   0  0  0  0  0  0
   16.9304   38.6556  -10.3535 H   0  0  0  0  0  0
   17.2001   36.9508  -10.4381 H   0  0  0  0  0  0
   16.0588   36.5853   -8.3506 H   0  0  0  0  0  0
   15.0387   37.4299   -9.4831 H   0  0  0  0  0  0
   14.6641   38.4156   -7.3278 H   0  0  0  0  0  0
   16.3529   38.5563   -6.9878 H   0  0  0  0  0  0
   16.6312   40.3845   -8.5786 H   0  0  0  0  0  0
   15.3479   40.7181   -7.4539 H   0  0  0  0  0  0
   14.9754   39.8659  -10.3687 H   0  0  0  0  0  0
   13.6659   39.9679   -9.2365 H   0  0  0  0  0  0
   14.1290   42.3929   -8.8609 H   0  0  0  0  0  0
   13.6787   41.9998  -10.4785 H   0  0  0  0  0  0
   16.8698   44.4720   -7.8236 H   0  0  0  0  0  0
   16.1669   42.8834   -7.6603 H   0  0  0  0  0  0
   15.1719   44.2545   -8.1727 H   0  0  0  0  0  0
   24.2682   42.7622  -10.8725 H   0  0  0  0  0  0
  1  9  1  0  0  0
  1  2  2  0  0  0
  1 40  1  0  0  0
  2  3  1  0  0  0
  2 41  1  0  0  0
  3  4  2  0  0  0
  3 42  1  0  0  0
  4  5  1  0  0  0
  4  8  1  0  0  0
  5  6  1  0  0  0
  5  7  1  0  0  0
  5 43  1  0  0  0
  6 44  1  0  0  0
  6 45  1  0  0  0
  6 46  1  0  0  0
  7 47  1  0  0  0
  7 48  1  0  0  0
  7 49  1  0  0  0
  8  9  2  0  0  0
  8 50  1  0  0  0
  9 10  1  0  0  0
 10 11  1  0  0  0
 10 51  1  0  0  0
 10 52  1  0  0  0
 11 12  1  0  0  0
 11 53  1  0  0  0
 11 86  1  0  0  0
 12 13  1  0  0  0
 12 54  1  0  0  0
 12 55  1  0  0  0
 13 14  1  0  0  0
 13 15  1  0  0  0
 13 16  1  0  0  0
 14 56  1  0  0  0
 15 57  1  0  0  0
 16 37  1  0  0  0
 16 17  1  0  0  0
 16 22  1  0  0  0
 17 18  1  0  0  0
 17 58  1  0  0  0
 18 19  2  0  0  0
 18 20  1  0  0  0
 20 38  1  0  0  0
 20 35  1  0  0  0
 20 21  1  0  0  0
 21 59  1  0  0  0
 21 60  1  0  0  0
 21 61  1  0  0  0
 22 23  1  0  0  0
 22 62  1  0  0  0
 22 63  1  0  0  0
 23 39  1  0  0  0
 23 24  1  0  0  0
 23 25  1  0  0  0
 24 64  1  0  0  0
 24 65  1  0  0  0
 24 66  1  0  0  0
 25 26  1  0  0  0
 25 67  1  0  0  0
 25 68  1  0  0  0
 26 27  1  0  0  0
 26 69  1  0  0  0
 26 70  1  0  0  0
 27 28  1  0  0  0
 27 71  1  0  0  0
 27 72  1  0  0  0
 28 29  1  0  0  0
 28 73  1  0  0  0
 28 74  1  0  0  0
 29 30  1  0  0  0
 29 75  1  0  0  0
 29 76  1  0  0  0
 30 31  1  0  0  0
 30 77  1  0  0  0
 30 78  1  0  0  0
 31 32  1  0  0  0
 31 79  1  0  0  0
 31 80  1  0  0  0
 32 33  1  0  0  0
 32 81  1  0  0  0
 32 82  1  0  0  0
 33 34  2  0  0  0
 33 35  1  0  0  0
 35 36  1  0  0  0
 36 83  1  0  0  0
 36 84  1  0  0  0
 36 85  1  0  0  0
M  CHG  1  11   1
M  END
> <s_m_source_file>
BACE_3.smi

> <i_m_source_file_index>
1

> <i_lp_mmshare_version>
42013

> <i_f3d_flags>
0

> <s_epik_input>
W0NIM11bQ0hdKFtDSDNdKWMxW2NIXVtjSF1bY0hdYyhbY0hdMSlbQ0gyXVtOSF1bQ0gyXUMoW09IXSkoW09IXSlbQ0BIXTJbTkhdQyg9TylbQ0BIXShbQ0gzXSlOKFtDSDNdKUMoPU8pW0NIMl1bQ0gyXVtDSDJdW0NIMl1bQ0gyXVtDSDJdW0NIMl1bQ0gyXVtDQEhdKFtDSDJdMilbQ0gzXQ==

> <s_epik_cmdline>
J2VwaWtfcHl0aG9uJywgJy1waCcsICc3LjAnLCAnLXRuJywgJzgnLCAnLW1hJywgJzIwMCcsICctaW1hZScsICc8aW5maWxlLm1hZT4nLCAnLW9tYWUnLCAnPG91dGZpbGUubWFlPic=

> <r_epik_Ionization_Penalty>
  0.0182

> <r_epik_Ionization_Penalty_Charging>
  0.0182

> <r_epik_Ionization_Penalty_Neutral>
  0.0000

> <r_epik_State_Penalty>
  0.0144

> <r_epik_Charging_Adjusted_Penalty>
0.0325934

> <i_epik_Tot_Q>
1

> <i_epik_Tot_abs_Q>
1

> <s_lp_Force_Field>
OPLS_2005

> <r_lp_Energy>
34.8509

> <b_lp_Chiralities_Consistent>
1

> <s_lp_Variant>
BACE_3.smi:1-1

> <chiral flag>
1

> <version>
0

> <r_i_glide_lipo>
-1.16514

> <r_i_glide_hbond>
0

> <r_i_glide_metal>
-0

> <r_i_glide_rewards>
-4.1169e-05

> <r_i_glide_erotb>
0.40135

> <r_i_glide_esite>
-0.066352

> <chiral flag>
1

> <s_i_glide_gridfile>
second_dock_grid_2

> <i_i_glide_lignum>
4

> <i_i_glide_rotatable_bonds>
8

> <r_i_docking_score>
-2.32898

> <r_i_glide_ligand_efficiency>
-0.0646938

> <r_i_glide_ligand_efficiency_sa>
-0.213614

> <r_i_glide_ligand_efficiency_ln>
-0.50812

> <r_glide_XP_GScore>
-2.34338

> <r_i_glide_gscore>
-2.34338

> <r_i_glide_evdw>
-35.474

> <r_i_glide_ecoul>
-14.2872

> <r_i_glide_energy>
-49.7612

> <r_i_glide_einternal>
5.85381

> <r_i_glide_emodel>
-61.6015

> <r_glide_XP_HBond>
-1.51927

> <i_i_glide_confnum>
1

> <i_i_glide_posenum>
5

> <r_i_glide_eff_state_penalty>
0.0144

> <i_glide_XP_PoseRank>
5

$$$$
