BACE_16.smi:1
                    3D
 Structure written by MMmdl.
 84 87  0  0  1  0            999 V2000
   22.8597   42.9422   -3.6276 C   0  0  0  0  0  0
   21.4354   42.4456   -3.9216 C   0  0  0  0  0  0
   21.1022   41.1816   -3.1108 C   0  0  0  0  0  0
   21.2086   42.2310   -5.4115 C   0  0  0  0  0  0
   20.1948   42.9496   -6.0808 C   0  0  0  0  0  0
   19.9373   42.7113   -7.4440 C   0  0  0  0  0  0
   20.7055   41.7641   -8.1514 C   0  0  0  0  0  0
   21.7515   41.0713   -7.5041 C   0  0  0  0  0  0
   21.9867   41.2987   -6.1329 C   0  0  0  0  0  0
   22.6053   40.0544   -8.2464 C   0  0  0  0  0  0
   22.8241   40.3243   -9.6725 N   0  0  0  0  0  0
   23.4115   41.6266  -10.0272 C   0  0  0  0  0  0
   24.8036   41.8726   -9.4087 C   0  0  2  0  0  0
   25.2785   43.3485   -9.5976 C   0  0  2  0  0  0
   26.1605   43.6226  -10.8521 C   0  0  0  0  0  0
   27.6658   43.4716  -10.6446 C   0  0  0  0  0  0
   28.3219   42.2926  -11.0498 C   0  0  0  0  0  0
   29.7024   42.1464  -10.8382 C   0  0  0  0  0  0
   30.4405   43.1661  -10.2119 C   0  0  0  0  0  0
   29.8063   44.3752   -9.8292 C   0  0  0  0  0  0
   28.4213   44.5148  -10.0632 C   0  0  0  0  0  0
   30.4497   45.4590   -9.2626 O   0  0  0  0  0  0
   31.7141   45.2840   -8.6249 C   0  0  0  0  0  0
   31.5254   44.7907   -7.1807 C   0  0  0  0  0  0
   31.0014   45.9039   -6.2541 C   0  0  0  0  0  0
   30.6640   45.4114   -4.8349 C   0  0  0  0  0  0
   29.5312   44.5468   -4.8625 O   0  0  0  0  0  0
   28.3018   45.1303   -5.0761 C   0  0  0  0  0  0
   27.4557   44.5498   -6.0380 C   0  0  0  0  0  0
   26.1768   45.0825   -6.3075 C   0  0  0  0  0  0
   25.7414   46.2025   -5.5653 C   0  0  0  0  0  0
   26.5631   46.7986   -4.5831 C   0  0  0  0  0  0
   27.8533   46.2578   -4.3499 C   0  0  0  0  0  0
   26.0432   47.8709   -3.8866 O   0  0  0  0  0  0
   26.8625   48.4771   -2.8898 C   0  0  0  0  0  0
   26.0414   49.4892   -2.0881 C   0  0  0  0  0  0
   24.8807   49.7798   -2.3822 O   0  0  0  0  0  0
   26.7255   50.1260   -0.8819 C   0  0  0  0  0  0
   25.2807   44.4514   -7.3383 C   0  0  0  0  0  0
   24.0568   44.5363   -7.2508 O   0  0  0  0  0  0
   25.9049   43.8779   -8.3823 N   0  0  0  0  0  0
   25.6711   40.9501  -10.0393 O   0  0  0  0  0  0
   24.7676   41.6526   -8.3425 H   0  0  0  0  0  0
   24.3746   43.9409   -9.7528 H   0  0  0  0  0  0
   23.0741   43.8625   -4.1710 H   0  0  0  0  0  0
   23.6117   42.2100   -3.9190 H   0  0  0  0  0  0
   22.9906   43.1438   -2.5662 H   0  0  0  0  0  0
   20.7493   43.2269   -3.5911 H   0  0  0  0  0  0
   20.0735   40.8644   -3.2906 H   0  0  0  0  0  0
   21.2067   41.3661   -2.0429 H   0  0  0  0  0  0
   21.7568   40.3490   -3.3721 H   0  0  0  0  0  0
   19.5915   43.6643   -5.5425 H   0  0  0  0  0  0
   19.1448   43.2452   -7.9439 H   0  0  0  0  0  0
   20.4952   41.5804   -9.1924 H   0  0  0  0  0  0
   22.7640   40.7466   -5.6285 H   0  0  0  0  0  0
   23.5595   39.9460   -7.7342 H   0  0  0  0  0  0
   22.1101   39.0872   -8.1437 H   0  0  0  0  0  0
   23.4105   39.5764  -10.0394 H   0  0  0  0  0  0
   23.4759   41.7170  -11.1132 H   0  0  0  0  0  0
   22.7358   42.4187   -9.7098 H   0  0  0  0  0  0
   25.8320   43.0118  -11.6941 H   0  0  0  0  0  0
   25.9922   44.6526  -11.1729 H   0  0  0  0  0  0
   27.7674   41.4899  -11.5162 H   0  0  0  0  0  0
   30.1925   41.2332  -11.1517 H   0  0  0  0  0  0
   31.4970   43.0027  -10.0692 H   0  0  0  0  0  0
   27.9336   45.4334   -9.7811 H   0  0  0  0  0  0
   32.3932   44.6406   -9.1809 H   0  0  0  0  0  0
   32.2108   46.2570   -8.6076 H   0  0  0  0  0  0
   30.8555   43.9299   -7.1675 H   0  0  0  0  0  0
   32.4801   44.4321   -6.7954 H   0  0  0  0  0  0
   31.7583   46.6875   -6.1790 H   0  0  0  0  0  0
   30.1247   46.3784   -6.6951 H   0  0  0  0  0  0
   31.5128   44.8602   -4.4269 H   0  0  0  0  0  0
   30.5264   46.2587   -4.1623 H   0  0  0  0  0  0
   27.8018   43.6879   -6.5798 H   0  0  0  0  0  0
   24.7564   46.6104   -5.7403 H   0  0  0  0  0  0
   28.5012   46.6767   -3.5952 H   0  0  0  0  0  0
   27.2562   47.7302   -2.2005 H   0  0  0  0  0  0
   27.7110   48.9824   -3.3561 H   0  0  0  0  0  0
   27.7052   50.5155   -1.1624 H   0  0  0  0  0  0
   26.8578   49.3867   -0.0905 H   0  0  0  0  0  0
   26.1253   50.9484   -0.4895 H   0  0  0  0  0  0
   26.9137   43.8711   -8.3737 H   0  0  0  0  0  0
   25.3569   40.0696   -9.8746 H   0  0  0  0  0  0
  1  2  1  0  0  0
  1 45  1  0  0  0
  1 46  1  0  0  0
  1 47  1  0  0  0
  2  3  1  0  0  0
  2  4  1  0  0  0
  2 48  1  0  0  0
  3 49  1  0  0  0
  3 50  1  0  0  0
  3 51  1  0  0  0
  4  9  1  0  0  0
  4  5  2  0  0  0
  5  6  1  0  0  0
  5 52  1  0  0  0
  6  7  2  0  0  0
  6 53  1  0  0  0
  7  8  1  0  0  0
  7 54  1  0  0  0
  8  9  2  0  0  0
  8 10  1  0  0  0
  9 55  1  0  0  0
 10 11  1  0  0  0
 10 56  1  0  0  0
 10 57  1  0  0  0
 11 12  1  0  0  0
 11 58  1  0  0  0
 12 13  1  0  0  0
 12 59  1  0  0  0
 12 60  1  0  0  0
 13 43  1  0  0  0
 13 14  1  0  0  0
 13 42  1  0  0  0
 14 44  1  0  0  0
 14 41  1  0  0  0
 14 15  1  0  0  0
 15 16  1  0  0  0
 15 61  1  0  0  0
 15 62  1  0  0  0
 16 21  1  0  0  0
 16 17  2  0  0  0
 17 18  1  0  0  0
 17 63  1  0  0  0
 18 19  2  0  0  0
 18 64  1  0  0  0
 19 20  1  0  0  0
 19 65  1  0  0  0
 20 21  2  0  0  0
 20 22  1  0  0  0
 21 66  1  0  0  0
 22 23  1  0  0  0
 23 24  1  0  0  0
 23 67  1  0  0  0
 23 68  1  0  0  0
 24 25  1  0  0  0
 24 69  1  0  0  0
 24 70  1  0  0  0
 25 26  1  0  0  0
 25 71  1  0  0  0
 25 72  1  0  0  0
 26 27  1  0  0  0
 26 73  1  0  0  0
 26 74  1  0  0  0
 27 28  1  0  0  0
 28 33  1  0  0  0
 28 29  2  0  0  0
 29 30  1  0  0  0
 29 75  1  0  0  0
 30 31  2  0  0  0
 30 39  1  0  0  0
 31 32  1  0  0  0
 31 76  1  0  0  0
 32 33  2  0  0  0
 32 34  1  0  0  0
 33 77  1  0  0  0
 34 35  1  0  0  0
 35 36  1  0  0  0
 35 78  1  0  0  0
 35 79  1  0  0  0
 36 37  2  0  0  0
 36 38  1  0  0  0
 38 80  1  0  0  0
 38 81  1  0  0  0
 38 82  1  0  0  0
 39 40  2  0  0  0
 39 41  1  0  0  0
 41 83  1  0  0  0
 42 84  1  0  0  0
M  END
> <s_m_source_file>
BACE_16.smi

> <i_m_source_file_index>
1

> <i_lp_mmshare_version>
42013

> <i_f3d_flags>
0

> <s_epik_input>
W0NIM11bQ0hdKFtDSDNdKWMxW2NIXVtjSF1bY0hdYyhbY0hdMSlbQ0gyXVtOSF1bQ0gyXVtDQEBIXShbT0hdKVtDQEhdKFtDSDJdMilbTkhdQyg9TyljKFtjSF1jKFtjSF0zKU9bQ0gyXUMoPU8pW0NIM10pW2NIXWMzT1tDSDJdW0NIMl1bQ0gyXVtDSDJdT2MoW2NIXTQpW2NIXVtjSF1bY0hdYzI0

> <s_epik_cmdline>
J2VwaWtfcHl0aG9uJywgJy1waCcsICc3LjAnLCAnLXRuJywgJzgnLCAnLW1hJywgJzIwMCcsICctaW1hZScsICc8aW5maWxlLm1hZT4nLCAnLW9tYWUnLCAnPG91dGZpbGUubWFlPic=

> <r_lp_tautomer_probability>
1

> <r_epik_Ionization_Penalty>
  2.0439

> <r_epik_Ionization_Penalty_Charging>
  0.0000

> <r_epik_Ionization_Penalty_Neutral>
  2.0439

> <r_epik_State_Penalty>
  2.1759

> <r_epik_Charging_Adjusted_Penalty>
2.17586

> <i_epik_Tot_Q>
0

> <i_epik_Tot_abs_Q>
0

> <s_lp_Force_Field>
OPLS_2005

> <r_lp_Energy>
40.5038

> <b_lp_Chiralities_Consistent>
1

> <s_lp_Variant>
BACE_16.smi:1-2

> <chiral flag>
1

> <version>
0

> <r_i_glide_lipo>
-0.812693

> <r_i_glide_hbond>
-0.49738

> <r_i_glide_metal>
-0

> <r_i_glide_rewards>
0

> <r_i_glide_erotb>
0.34788

> <r_i_glide_esite>
-0.101943

> <chiral flag>
1

> <s_i_glide_gridfile>
second_dock_grid_2

> <i_i_glide_lignum>
33

> <i_i_glide_rotatable_bonds>
10

> <r_i_docking_score>
-3.27089

> <r_i_glide_ligand_efficiency>
-0.0778783

> <r_i_glide_ligand_efficiency_sa>
-0.270707

> <r_i_glide_ligand_efficiency_ln>
-0.6904

> <r_glide_XP_GScore>
-5.44679

> <r_i_glide_gscore>
-5.44679

> <r_i_glide_evdw>
-43.9979

> <r_i_glide_ecoul>
-6.02119

> <r_i_glide_energy>
-50.0191

> <r_i_glide_einternal>
10.5274

> <r_i_glide_emodel>
-67.8697

> <r_glide_XP_HBond>
-1.15218

> <i_i_glide_confnum>
1

> <i_i_glide_posenum>
5

> <r_i_glide_eff_state_penalty>
2.1759

> <i_glide_XP_PoseRank>
1

$$$$
BACE_16.smi:1
                    3D
 Structure written by MMmdl.
 84 87  0  0  1  0            999 V2000
   22.8286   42.9633   -3.6328 C   0  0  0  0  0  0
   21.4288   42.4238   -3.9509 C   0  0  0  0  0  0
   21.1099   41.1623   -3.1307 C   0  0  0  0  0  0
   21.2293   42.1858   -5.4424 C   0  0  0  0  0  0
   20.2107   42.8787   -6.1302 C   0  0  0  0  0  0
   19.9601   42.6068   -7.4881 C   0  0  0  0  0  0
   20.7418   41.6594   -8.1734 C   0  0  0  0  0  0
   21.7981   40.9945   -7.5114 C   0  0  0  0  0  0
   22.0272   41.2537   -6.1418 C   0  0  0  0  0  0
   22.6749   39.9794   -8.2335 C   0  0  0  0  0  0
   22.8599   40.2085   -9.6729 N   0  0  0  0  0  0
   23.4204   41.5134  -10.0796 C   0  0  0  0  0  0
   24.7938   41.8374   -9.4544 C   0  0  2  0  0  0
   25.2270   43.3169   -9.6911 C   0  0  2  0  0  0
   26.1293   43.5807  -10.9335 C   0  0  0  0  0  0
   27.6349   43.4498  -10.6945 C   0  0  0  0  0  0
   28.3187   42.2802  -11.0863 C   0  0  0  0  0  0
   29.6966   42.1497  -10.8399 C   0  0  0  0  0  0
   30.4049   43.1839  -10.1962 C   0  0  0  0  0  0
   29.7416   44.3802   -9.8207 C   0  0  0  0  0  0
   28.3615   44.5016  -10.0930 C   0  0  0  0  0  0
   30.3512   45.4688   -9.2308 O   0  0  0  0  0  0
   31.5915   45.3060   -8.5474 C   0  0  0  0  0  0
   31.3548   44.8215   -7.1077 C   0  0  0  0  0  0
   30.7988   45.9347   -6.1990 C   0  0  0  0  0  0
   30.4353   45.4460   -4.7859 C   0  0  0  0  0  0
   29.3282   44.5501   -4.8382 O   0  0  0  0  0  0
   28.0934   45.1074   -5.0815 C   0  0  0  0  0  0
   27.2857   44.5151   -6.0696 C   0  0  0  0  0  0
   26.0093   45.0329   -6.3740 C   0  0  0  0  0  0
   25.5252   46.1375   -5.6407 C   0  0  0  0  0  0
   26.3064   46.7267   -4.6145 C   0  0  0  0  0  0
   27.5951   46.2152   -4.3571 C   0  0  0  0  0  0
   25.8674   47.7576   -3.8092 O   0  0  0  0  0  0
   24.5302   48.2070   -3.9859 C   0  0  0  0  0  0
   24.1354   49.1474   -2.8467 C   0  0  0  0  0  0
   24.4904   48.9503   -1.6848 O   0  0  0  0  0  0
   23.2062   50.3063   -3.1894 C   0  0  0  0  0  0
   25.1517   44.3979   -7.4327 C   0  0  0  0  0  0
   23.9242   44.4254   -7.3577 O   0  0  0  0  0  0
   25.8173   43.8843   -8.4786 N   0  0  0  0  0  0
   25.7197   40.9497  -10.0400 O   0  0  0  0  0  0
   24.7634   41.6465   -8.3837 H   0  0  0  0  0  0
   24.3103   43.8803   -9.8762 H   0  0  0  0  0  0
   23.0349   43.8787   -4.1914 H   0  0  0  0  0  0
   23.6115   42.2434   -3.8745 H   0  0  0  0  0  0
   22.9003   43.1991   -2.5715 H   0  0  0  0  0  0
   20.7180   43.1919   -3.6421 H   0  0  0  0  0  0
   20.0923   40.8198   -3.3270 H   0  0  0  0  0  0
   21.1943   41.3583   -2.0614 H   0  0  0  0  0  0
   21.7879   40.3428   -3.3724 H   0  0  0  0  0  0
   19.5885   43.5905   -5.6095 H   0  0  0  0  0  0
   19.1565   43.1161   -8.0036 H   0  0  0  0  0  0
   20.5364   41.4521   -9.2131 H   0  0  0  0  0  0
   22.8094   40.7213   -5.6230 H   0  0  0  0  0  0
   23.6407   39.9135   -7.7316 H   0  0  0  0  0  0
   22.2106   39.0020   -8.0929 H   0  0  0  0  0  0
   23.4484   39.4645  -10.0393 H   0  0  0  0  0  0
   23.4885   41.5611  -11.1660 H   0  0  0  0  0  0
   22.7185   42.3011   -9.8047 H   0  0  0  0  0  0
   25.8246   42.9460  -11.7687 H   0  0  0  0  0  0
   25.9574   44.6012  -11.2770 H   0  0  0  0  0  0
   27.7881   41.4686  -11.5637 H   0  0  0  0  0  0
   30.2071   41.2473  -11.1424 H   0  0  0  0  0  0
   31.4583   43.0352  -10.0262 H   0  0  0  0  0  0
   27.8535   45.4128   -9.8134 H   0  0  0  0  0  0
   32.2949   44.6641   -9.0738 H   0  0  0  0  0  0
   32.0807   46.2796   -8.5204 H   0  0  0  0  0  0
   30.6871   43.9595   -7.1146 H   0  0  0  0  0  0
   32.2983   44.4670   -6.6907 H   0  0  0  0  0  0
   31.5451   46.7259   -6.1151 H   0  0  0  0  0  0
   29.9281   46.3963   -6.6668 H   0  0  0  0  0  0
   31.2853   44.9189   -4.3532 H   0  0  0  0  0  0
   30.2514   46.2941   -4.1273 H   0  0  0  0  0  0
   27.6602   43.6529   -6.5989 H   0  0  0  0  0  0
   24.5376   46.5083   -5.8689 H   0  0  0  0  0  0
   28.1782   46.6568   -3.5637 H   0  0  0  0  0  0
   24.4350   48.7174   -4.9437 H   0  0  0  0  0  0
   23.8430   47.3615   -3.9718 H   0  0  0  0  0  0
   23.0607   50.3840   -4.2672 H   0  0  0  0  0  0
   23.6274   51.2449   -2.8276 H   0  0  0  0  0  0
   22.2321   50.1618   -2.7171 H   0  0  0  0  0  0
   26.8268   43.9235   -8.4630 H   0  0  0  0  0  0
   25.4161   40.0604   -9.9146 H   0  0  0  0  0  0
  1  2  1  0  0  0
  1 45  1  0  0  0
  1 46  1  0  0  0
  1 47  1  0  0  0
  2  3  1  0  0  0
  2  4  1  0  0  0
  2 48  1  0  0  0
  3 49  1  0  0  0
  3 50  1  0  0  0
  3 51  1  0  0  0
  4  9  1  0  0  0
  4  5  2  0  0  0
  5  6  1  0  0  0
  5 52  1  0  0  0
  6  7  2  0  0  0
  6 53  1  0  0  0
  7  8  1  0  0  0
  7 54  1  0  0  0
  8  9  2  0  0  0
  8 10  1  0  0  0
  9 55  1  0  0  0
 10 11  1  0  0  0
 10 56  1  0  0  0
 10 57  1  0  0  0
 11 12  1  0  0  0
 11 58  1  0  0  0
 12 13  1  0  0  0
 12 59  1  0  0  0
 12 60  1  0  0  0
 13 43  1  0  0  0
 13 14  1  0  0  0
 13 42  1  0  0  0
 14 44  1  0  0  0
 14 41  1  0  0  0
 14 15  1  0  0  0
 15 16  1  0  0  0
 15 61  1  0  0  0
 15 62  1  0  0  0
 16 21  1  0  0  0
 16 17  2  0  0  0
 17 18  1  0  0  0
 17 63  1  0  0  0
 18 19  2  0  0  0
 18 64  1  0  0  0
 19 20  1  0  0  0
 19 65  1  0  0  0
 20 21  2  0  0  0
 20 22  1  0  0  0
 21 66  1  0  0  0
 22 23  1  0  0  0
 23 24  1  0  0  0
 23 67  1  0  0  0
 23 68  1  0  0  0
 24 25  1  0  0  0
 24 69  1  0  0  0
 24 70  1  0  0  0
 25 26  1  0  0  0
 25 71  1  0  0  0
 25 72  1  0  0  0
 26 27  1  0  0  0
 26 73  1  0  0  0
 26 74  1  0  0  0
 27 28  1  0  0  0
 28 33  1  0  0  0
 28 29  2  0  0  0
 29 30  1  0  0  0
 29 75  1  0  0  0
 30 31  2  0  0  0
 30 39  1  0  0  0
 31 32  1  0  0  0
 31 76  1  0  0  0
 32 33  2  0  0  0
 32 34  1  0  0  0
 33 77  1  0  0  0
 34 35  1  0  0  0
 35 36  1  0  0  0
 35 78  1  0  0  0
 35 79  1  0  0  0
 36 37  2  0  0  0
 36 38  1  0  0  0
 38 80  1  0  0  0
 38 81  1  0  0  0
 38 82  1  0  0  0
 39 40  2  0  0  0
 39 41  1  0  0  0
 41 83  1  0  0  0
 42 84  1  0  0  0
M  END
> <s_m_source_file>
BACE_16.smi

> <i_m_source_file_index>
1

> <i_lp_mmshare_version>
42013

> <i_f3d_flags>
0

> <s_epik_input>
W0NIM11bQ0hdKFtDSDNdKWMxW2NIXVtjSF1bY0hdYyhbY0hdMSlbQ0gyXVtOSF1bQ0gyXVtDQEBIXShbT0hdKVtDQEhdKFtDSDJdMilbTkhdQyg9TyljKFtjSF1jKFtjSF0zKU9bQ0gyXUMoPU8pW0NIM10pW2NIXWMzT1tDSDJdW0NIMl1bQ0gyXVtDSDJdT2MoW2NIXTQpW2NIXVtjSF1bY0hdYzI0

> <s_epik_cmdline>
J2VwaWtfcHl0aG9uJywgJy1waCcsICc3LjAnLCAnLXRuJywgJzgnLCAnLW1hJywgJzIwMCcsICctaW1hZScsICc8aW5maWxlLm1hZT4nLCAnLW9tYWUnLCAnPG91dGZpbGUubWFlPic=

> <r_lp_tautomer_probability>
1

> <r_epik_Ionization_Penalty>
  2.0439

> <r_epik_Ionization_Penalty_Charging>
  0.0000

> <r_epik_Ionization_Penalty_Neutral>
  2.0439

> <r_epik_State_Penalty>
  2.1759

> <r_epik_Charging_Adjusted_Penalty>
2.17586

> <i_epik_Tot_Q>
0

> <i_epik_Tot_abs_Q>
0

> <s_lp_Force_Field>
OPLS_2005

> <r_lp_Energy>
40.5038

> <b_lp_Chiralities_Consistent>
1

> <s_lp_Variant>
BACE_16.smi:1-2

> <chiral flag>
1

> <version>
0

> <r_i_glide_lipo>
-0.812693

> <r_i_glide_hbond>
-0.49738

> <r_i_glide_metal>
-0

> <r_i_glide_rewards>
0

> <r_i_glide_erotb>
0.34788

> <r_i_glide_esite>
-0.101943

> <chiral flag>
1

> <s_i_glide_gridfile>
second_dock_grid_2

> <i_i_glide_lignum>
33

> <i_i_glide_rotatable_bonds>
10

> <r_i_docking_score>
-2.71926

> <r_i_glide_ligand_efficiency>
-0.0647444

> <r_i_glide_ligand_efficiency_sa>
-0.225053

> <r_i_glide_ligand_efficiency_ln>
-0.573967

> <r_glide_XP_GScore>
-4.89516

> <r_i_glide_gscore>
-4.89516

> <r_i_glide_evdw>
-43.5248

> <r_i_glide_ecoul>
-5.09968

> <r_i_glide_energy>
-48.6245

> <r_i_glide_einternal>
6.9055

> <r_i_glide_emodel>
-67.0183

> <r_glide_XP_HBond>
-1.15218

> <i_i_glide_confnum>
1

> <i_i_glide_posenum>
13

> <r_i_glide_eff_state_penalty>
2.1759

> <i_glide_XP_PoseRank>
2

$$$$
BACE_16.smi:1
                    3D
 Structure written by MMmdl.
 84 87  0  0  1  0            999 V2000
   22.5729   42.9816   -3.3355 C   0  0  0  0  0  0
   21.1592   42.5409   -3.7418 C   0  0  0  0  0  0
   20.6940   41.3129   -2.9411 C   0  0  0  0  0  0
   21.0464   42.2983   -5.2426 C   0  0  0  0  0  0
   20.0741   42.9885   -5.9976 C   0  0  0  0  0  0
   19.9183   42.7207   -7.3711 C   0  0  0  0  0  0
   20.7441   41.7723   -8.0013 C   0  0  0  0  0  0
   21.7530   41.1059   -7.2680 C   0  0  0  0  0  0
   21.8871   41.3638   -5.8869 C   0  0  0  0  0  0
   22.6811   40.0913   -7.9206 C   0  0  0  0  0  0
   22.8598   40.2199   -9.3725 N   0  0  0  0  0  0
   23.3948   41.4969   -9.8799 C   0  0  0  0  0  0
   24.8101   41.8254   -9.3662 C   0  0  2  0  0  0
   25.2173   43.3090   -9.6171 C   0  0  2  0  0  0
   26.1058   43.5840  -10.8679 C   0  0  0  0  0  0
   27.6128   43.4492  -10.6487 C   0  0  0  0  0  0
   28.2907   42.2820  -11.0583 C   0  0  0  0  0  0
   29.6720   42.1503  -10.8367 C   0  0  0  0  0  0
   30.3895   43.1825  -10.1988 C   0  0  0  0  0  0
   29.7332   44.3789   -9.8105 C   0  0  0  0  0  0
   28.3498   44.4988  -10.0580 C   0  0  0  0  0  0
   30.3546   45.4630   -9.2244 O   0  0  0  0  0  0
   31.6076   45.2947   -8.5677 C   0  0  0  0  0  0
   31.4005   44.8009   -7.1266 C   0  0  0  0  0  0
   30.8656   45.9154   -6.2066 C   0  0  0  0  0  0
   30.5053   45.4223   -4.7960 C   0  0  0  0  0  0
   29.3791   44.5506   -4.8473 O   0  0  0  0  0  0
   28.1502   45.1271   -5.0818 C   0  0  0  0  0  0
   27.3082   44.5063   -6.0220 C   0  0  0  0  0  0
   26.0403   45.0421   -6.3299 C   0  0  0  0  0  0
   25.5936   46.1911   -5.6451 C   0  0  0  0  0  0
   26.4208   46.8285   -4.6870 C   0  0  0  0  0  0
   27.6959   46.2898   -4.4174 C   0  0  0  0  0  0
   26.0523   47.9543   -3.9835 O   0  0  0  0  0  0
   24.7976   48.5472   -4.2988 C   0  0  0  0  0  0
   24.5957   49.8390   -3.5039 C   0  0  0  0  0  0
   23.6078   50.5484   -3.6992 O   0  0  0  0  0  0
   25.6453   50.2358   -2.4704 C   0  0  0  0  0  0
   25.1654   44.3916   -7.3605 C   0  0  0  0  0  0
   23.9387   44.4118   -7.2615 O   0  0  0  0  0  0
   25.8179   43.8833   -8.4167 N   0  0  0  0  0  0
   25.6836   40.9499  -10.0395 O   0  0  0  0  0  0
   24.8597   41.6213   -8.2992 H   0  0  0  0  0  0
   24.2943   43.8622   -9.7944 H   0  0  0  0  0  0
   22.8702   43.8783   -3.8798 H   0  0  0  0  0  0
   23.3185   42.2112   -3.5352 H   0  0  0  0  0  0
   22.6191   43.2147   -2.2715 H   0  0  0  0  0  0
   20.4842   43.3586   -3.4876 H   0  0  0  0  0  0
   19.6664   41.0484   -3.1945 H   0  0  0  0  0  0
   20.7230   41.5054   -1.8693 H   0  0  0  0  0  0
   21.3204   40.4413   -3.1394 H   0  0  0  0  0  0
   19.4153   43.6978   -5.5213 H   0  0  0  0  0  0
   19.1572   43.2318   -7.9419 H   0  0  0  0  0  0
   20.6096   41.5672   -9.0535 H   0  0  0  0  0  0
   22.6326   40.8320   -5.3142 H   0  0  0  0  0  0
   23.6442   40.1067   -7.4133 H   0  0  0  0  0  0
   22.2662   39.1048   -7.7116 H   0  0  0  0  0  0
   23.4602   39.4548   -9.6753 H   0  0  0  0  0  0
   23.3925   41.4884  -10.9714 H   0  0  0  0  0  0
   22.7205   42.3065   -9.6014 H   0  0  0  0  0  0
   25.7931   42.9621  -11.7077 H   0  0  0  0  0  0
   25.9293   44.6087  -11.1956 H   0  0  0  0  0  0
   27.7521   41.4753  -11.5325 H   0  0  0  0  0  0
   30.1794   41.2501  -11.1552 H   0  0  0  0  0  0
   31.4484   43.0341  -10.0553 H   0  0  0  0  0  0
   27.8469   45.4110   -9.7710 H   0  0  0  0  0  0
   32.2985   44.6545   -9.1113 H   0  0  0  0  0  0
   32.0995   46.2663   -8.5431 H   0  0  0  0  0  0
   30.7300   43.9411   -7.1232 H   0  0  0  0  0  0
   32.3505   44.4426   -6.7265 H   0  0  0  0  0  0
   31.6251   46.6928   -6.1201 H   0  0  0  0  0  0
   30.0025   46.3959   -6.6649 H   0  0  0  0  0  0
   31.3434   44.8674   -4.3762 H   0  0  0  0  0  0
   30.3537   46.2639   -4.1222 H   0  0  0  0  0  0
   27.6599   43.6160   -6.5222 H   0  0  0  0  0  0
   24.6110   46.5708   -5.8802 H   0  0  0  0  0  0
   28.3074   46.7702   -3.6713 H   0  0  0  0  0  0
   24.7480   48.7853   -5.3611 H   0  0  0  0  0  0
   23.9871   47.8558   -4.0645 H   0  0  0  0  0  0
   26.5828   50.4897   -2.9656 H   0  0  0  0  0  0
   25.8299   49.4137   -1.7780 H   0  0  0  0  0  0
   25.3102   51.1021   -1.8999 H   0  0  0  0  0  0
   26.8265   43.9314   -8.4087 H   0  0  0  0  0  0
   25.3838   40.0560   -9.9216 H   0  0  0  0  0  0
  1  2  1  0  0  0
  1 45  1  0  0  0
  1 46  1  0  0  0
  1 47  1  0  0  0
  2  3  1  0  0  0
  2  4  1  0  0  0
  2 48  1  0  0  0
  3 49  1  0  0  0
  3 50  1  0  0  0
  3 51  1  0  0  0
  4  9  1  0  0  0
  4  5  2  0  0  0
  5  6  1  0  0  0
  5 52  1  0  0  0
  6  7  2  0  0  0
  6 53  1  0  0  0
  7  8  1  0  0  0
  7 54  1  0  0  0
  8  9  2  0  0  0
  8 10  1  0  0  0
  9 55  1  0  0  0
 10 11  1  0  0  0
 10 56  1  0  0  0
 10 57  1  0  0  0
 11 12  1  0  0  0
 11 58  1  0  0  0
 12 13  1  0  0  0
 12 59  1  0  0  0
 12 60  1  0  0  0
 13 43  1  0  0  0
 13 14  1  0  0  0
 13 42  1  0  0  0
 14 44  1  0  0  0
 14 41  1  0  0  0
 14 15  1  0  0  0
 15 16  1  0  0  0
 15 61  1  0  0  0
 15 62  1  0  0  0
 16 21  1  0  0  0
 16 17  2  0  0  0
 17 18  1  0  0  0
 17 63  1  0  0  0
 18 19  2  0  0  0
 18 64  1  0  0  0
 19 20  1  0  0  0
 19 65  1  0  0  0
 20 21  2  0  0  0
 20 22  1  0  0  0
 21 66  1  0  0  0
 22 23  1  0  0  0
 23 24  1  0  0  0
 23 67  1  0  0  0
 23 68  1  0  0  0
 24 25  1  0  0  0
 24 69  1  0  0  0
 24 70  1  0  0  0
 25 26  1  0  0  0
 25 71  1  0  0  0
 25 72  1  0  0  0
 26 27  1  0  0  0
 26 73  1  0  0  0
 26 74  1  0  0  0
 27 28  1  0  0  0
 28 33  1  0  0  0
 28 29  2  0  0  0
 29 30  1  0  0  0
 29 75  1  0  0  0
 30 31  2  0  0  0
 30 39  1  0  0  0
 31 32  1  0  0  0
 31 76  1  0  0  0
 32 33  2  0  0  0
 32 34  1  0  0  0
 33 77  1  0  0  0
 34 35  1  0  0  0
 35 36  1  0  0  0
 35 78  1  0  0  0
 35 79  1  0  0  0
 36 37  2  0  0  0
 36 38  1  0  0  0
 38 80  1  0  0  0
 38 81  1  0  0  0
 38 82  1  0  0  0
 39 40  2  0  0  0
 39 41  1  0  0  0
 41 83  1  0  0  0
 42 84  1  0  0  0
M  END
> <s_m_source_file>
BACE_16.smi

> <i_m_source_file_index>
1

> <i_lp_mmshare_version>
42013

> <i_f3d_flags>
0

> <s_epik_input>
W0NIM11bQ0hdKFtDSDNdKWMxW2NIXVtjSF1bY0hdYyhbY0hdMSlbQ0gyXVtOSF1bQ0gyXVtDQEBIXShbT0hdKVtDQEhdKFtDSDJdMilbTkhdQyg9TyljKFtjSF1jKFtjSF0zKU9bQ0gyXUMoPU8pW0NIM10pW2NIXWMzT1tDSDJdW0NIMl1bQ0gyXVtDSDJdT2MoW2NIXTQpW2NIXVtjSF1bY0hdYzI0

> <s_epik_cmdline>
J2VwaWtfcHl0aG9uJywgJy1waCcsICc3LjAnLCAnLXRuJywgJzgnLCAnLW1hJywgJzIwMCcsICctaW1hZScsICc8aW5maWxlLm1hZT4nLCAnLW9tYWUnLCAnPG91dGZpbGUubWFlPic=

> <r_lp_tautomer_probability>
1

> <r_epik_Ionization_Penalty>
  2.0439

> <r_epik_Ionization_Penalty_Charging>
  0.0000

> <r_epik_Ionization_Penalty_Neutral>
  2.0439

> <r_epik_State_Penalty>
  2.1759

> <r_epik_Charging_Adjusted_Penalty>
2.17586

> <i_epik_Tot_Q>
0

> <i_epik_Tot_abs_Q>
0

> <s_lp_Force_Field>
OPLS_2005

> <r_lp_Energy>
40.5038

> <b_lp_Chiralities_Consistent>
1

> <s_lp_Variant>
BACE_16.smi:1-2

> <chiral flag>
1

> <version>
0

> <r_i_glide_lipo>
-0.812693

> <r_i_glide_hbond>
-0.49738

> <r_i_glide_metal>
-0

> <r_i_glide_rewards>
0

> <r_i_glide_erotb>
0.34788

> <r_i_glide_esite>
-0.101943

> <chiral flag>
1

> <s_i_glide_gridfile>
second_dock_grid_2

> <i_i_glide_lignum>
33

> <i_i_glide_rotatable_bonds>
10

> <r_i_docking_score>
-2.39918

> <r_i_glide_ligand_efficiency>
-0.0571234

> <r_i_glide_ligand_efficiency_sa>
-0.198563

> <r_i_glide_ligand_efficiency_ln>
-0.506406

> <r_glide_XP_GScore>
-4.57508

> <r_i_glide_gscore>
-4.57508

> <r_i_glide_evdw>
-43.0391

> <r_i_glide_ecoul>
-6.05758

> <r_i_glide_energy>
-49.0967

> <r_i_glide_einternal>
7.67262

> <r_i_glide_emodel>
-68.6793

> <r_glide_XP_HBond>
-1.15218

> <i_i_glide_confnum>
1

> <i_i_glide_posenum>
1

> <r_i_glide_eff_state_penalty>
2.1759

> <i_glide_XP_PoseRank>
3

$$$$
BACE_16.smi:1
                    3D
 Structure written by MMmdl.
 84 87  0  0  1  0            999 V2000
   27.2178   49.9097   -0.9171 C   0  0  0  0  0  0
   25.7663   50.1265   -0.4431 C   0  0  0  0  0  0
   25.4289   49.1957    0.7301 C   0  0  0  0  0  0
   24.7437   49.9908   -1.5689 C   0  0  0  0  0  0
   23.6629   50.8960   -1.6416 C   0  0  0  0  0  0
   22.7052   50.7840   -2.6686 C   0  0  0  0  0  0
   22.8311   49.7737   -3.6429 C   0  0  0  0  0  0
   23.9079   48.8670   -3.5858 C   0  0  0  0  0  0
   24.8510   48.9669   -2.5401 C   0  0  0  0  0  0
   24.0410   47.7725   -4.6263 C   0  0  0  0  0  0
   23.2601   46.5959   -4.2605 N   0  0  0  0  0  0
   23.5576   45.4181   -5.0737 C   0  0  0  0  0  0
   22.5760   45.2773   -6.2608 C   0  0  2  0  0  0
   21.5858   44.0909   -6.0922 C   0  0  2  0  0  0
   22.2330   42.6737   -6.1019 C   0  0  0  0  0  0
   22.4074   42.0361   -7.4789 C   0  0  0  0  0  0
   23.6478   42.1025   -8.1409 C   0  0  0  0  0  0
   23.7931   41.5483   -9.4259 C   0  0  0  0  0  0
   22.7045   40.9158  -10.0512 C   0  0  0  0  0  0
   21.4583   40.8021   -9.3871 C   0  0  0  0  0  0
   21.3291   41.3613   -8.0971 C   0  0  0  0  0  0
   20.3443   40.1730   -9.9049 O   0  0  0  0  0  0
   20.3058   39.8335  -11.2908 C   0  0  0  0  0  0
   19.9706   41.0712  -12.1411 C   0  0  0  0  0  0
   18.5081   41.5143  -11.9727 C   0  0  0  0  0  0
   18.2152   42.8883  -12.6034 C   0  0  0  0  0  0
   18.7562   43.9424  -11.8093 O   0  0  0  0  0  0
   18.1570   44.1773  -10.5890 C   0  0  0  0  0  0
   18.9954   44.4392   -9.4896 C   0  0  0  0  0  0
   18.4589   44.6361   -8.1930 C   0  0  0  0  0  0
   17.0577   44.6209   -8.0221 C   0  0  0  0  0  0
   16.2048   44.3810   -9.1175 C   0  0  0  0  0  0
   16.7568   44.1670  -10.3971 C   0  0  0  0  0  0
   14.8441   44.3796   -8.9298 O   0  0  0  0  0  0
   14.2325   43.0938   -8.9870 C   0  0  0  0  0  0
   13.3560   42.9743  -10.2367 C   0  0  0  0  0  0
   13.8387   42.9464  -11.3693 O   0  0  0  0  0  0
   11.8490   42.8691  -10.0408 C   0  0  0  0  0  0
   19.3664   44.8455   -7.0120 C   0  0  0  0  0  0
   19.0293   45.5244   -6.0406 O   0  0  0  0  0  0
   20.5243   44.1753   -7.0896 N   0  0  0  0  0  0
   23.3212   45.1127   -7.4485 O   0  0  0  0  0  0
   22.0143   46.2059   -6.3813 H   0  0  0  0  0  0
   21.1273   44.2188   -5.1080 H   0  0  0  0  0  0
   27.4587   50.5506   -1.7636 H   0  0  0  0  0  0
   27.4021   48.8771   -1.2134 H   0  0  0  0  0  0
   27.9199   50.1455   -0.1170 H   0  0  0  0  0  0
   25.7096   51.1521   -0.0746 H   0  0  0  0  0  0
   24.4229   49.3812    1.1018 H   0  0  0  0  0  0
   26.1170   49.3494    1.5618 H   0  0  0  0  0  0
   25.4893   48.1489    0.4325 H   0  0  0  0  0  0
   23.5619   51.6778   -0.9051 H   0  0  0  0  0  0
   21.8747   51.4717   -2.7101 H   0  0  0  0  0  0
   22.0959   49.6946   -4.4285 H   0  0  0  0  0  0
   25.6630   48.2570   -2.5005 H   0  0  0  0  0  0
   23.7316   48.1492   -5.6021 H   0  0  0  0  0  0
   25.0992   47.5148   -4.7099 H   0  0  0  0  0  0
   22.2888   46.8270   -4.4402 H   0  0  0  0  0  0
   24.5964   45.4351   -5.4104 H   0  0  0  0  0  0
   23.4824   44.5380   -4.4382 H   0  0  0  0  0  0
   23.1866   42.6670   -5.5756 H   0  0  0  0  0  0
   21.5921   42.0043   -5.5250 H   0  0  0  0  0  0
   24.5007   42.5736   -7.6712 H   0  0  0  0  0  0
   24.7448   41.6042   -9.9345 H   0  0  0  0  0  0
   22.8630   40.5126  -11.0405 H   0  0  0  0  0  0
   20.3808   41.2861   -7.5858 H   0  0  0  0  0  0
   21.2219   39.3463  -11.6250 H   0  0  0  0  0  0
   19.5269   39.0829  -11.4279 H   0  0  0  0  0  0
   20.6424   41.8902  -11.8861 H   0  0  0  0  0  0
   20.1537   40.8433  -13.1917 H   0  0  0  0  0  0
   17.8641   40.7639  -12.4299 H   0  0  0  0  0  0
   18.2358   41.5193  -10.9172 H   0  0  0  0  0  0
   18.6666   42.9355  -13.5940 H   0  0  0  0  0  0
   17.1479   43.0167  -12.7740 H   0  0  0  0  0  0
   20.0644   44.4538   -9.6513 H   0  0  0  0  0  0
   16.6296   44.7634   -7.0414 H   0  0  0  0  0  0
   16.0911   44.0219  -11.2301 H   0  0  0  0  0  0
   14.9728   42.2935   -8.9798 H   0  0  0  0  0  0
   13.6172   42.9678   -8.0965 H   0  0  0  0  0  0
   11.5480   43.3240   -9.0970 H   0  0  0  0  0  0
   11.5433   41.8207  -10.0387 H   0  0  0  0  0  0
   11.3289   43.3768  -10.8520 H   0  0  0  0  0  0
   20.6741   43.6227   -7.9224 H   0  0  0  0  0  0
   23.5959   44.2107   -7.5087 H   0  0  0  0  0  0
  1  2  1  0  0  0
  1 45  1  0  0  0
  1 46  1  0  0  0
  1 47  1  0  0  0
  2  3  1  0  0  0
  2  4  1  0  0  0
  2 48  1  0  0  0
  3 49  1  0  0  0
  3 50  1  0  0  0
  3 51  1  0  0  0
  4  9  1  0  0  0
  4  5  2  0  0  0
  5  6  1  0  0  0
  5 52  1  0  0  0
  6  7  2  0  0  0
  6 53  1  0  0  0
  7  8  1  0  0  0
  7 54  1  0  0  0
  8  9  2  0  0  0
  8 10  1  0  0  0
  9 55  1  0  0  0
 10 11  1  0  0  0
 10 56  1  0  0  0
 10 57  1  0  0  0
 11 12  1  0  0  0
 11 58  1  0  0  0
 12 13  1  0  0  0
 12 59  1  0  0  0
 12 60  1  0  0  0
 13 43  1  0  0  0
 13 14  1  0  0  0
 13 42  1  0  0  0
 14 44  1  0  0  0
 14 41  1  0  0  0
 14 15  1  0  0  0
 15 16  1  0  0  0
 15 61  1  0  0  0
 15 62  1  0  0  0
 16 21  1  0  0  0
 16 17  2  0  0  0
 17 18  1  0  0  0
 17 63  1  0  0  0
 18 19  2  0  0  0
 18 64  1  0  0  0
 19 20  1  0  0  0
 19 65  1  0  0  0
 20 21  2  0  0  0
 20 22  1  0  0  0
 21 66  1  0  0  0
 22 23  1  0  0  0
 23 24  1  0  0  0
 23 67  1  0  0  0
 23 68  1  0  0  0
 24 25  1  0  0  0
 24 69  1  0  0  0
 24 70  1  0  0  0
 25 26  1  0  0  0
 25 71  1  0  0  0
 25 72  1  0  0  0
 26 27  1  0  0  0
 26 73  1  0  0  0
 26 74  1  0  0  0
 27 28  1  0  0  0
 28 33  1  0  0  0
 28 29  2  0  0  0
 29 30  1  0  0  0
 29 75  1  0  0  0
 30 31  2  0  0  0
 30 39  1  0  0  0
 31 32  1  0  0  0
 31 76  1  0  0  0
 32 33  2  0  0  0
 32 34  1  0  0  0
 33 77  1  0  0  0
 34 35  1  0  0  0
 35 36  1  0  0  0
 35 78  1  0  0  0
 35 79  1  0  0  0
 36 37  2  0  0  0
 36 38  1  0  0  0
 38 80  1  0  0  0
 38 81  1  0  0  0
 38 82  1  0  0  0
 39 40  2  0  0  0
 39 41  1  0  0  0
 41 83  1  0  0  0
 42 84  1  0  0  0
M  END
> <s_m_source_file>
BACE_16.smi

> <i_m_source_file_index>
1

> <i_lp_mmshare_version>
42013

> <i_f3d_flags>
0

> <s_epik_input>
W0NIM11bQ0hdKFtDSDNdKWMxW2NIXVtjSF1bY0hdYyhbY0hdMSlbQ0gyXVtOSF1bQ0gyXVtDQEBIXShbT0hdKVtDQEhdKFtDSDJdMilbTkhdQyg9TyljKFtjSF1jKFtjSF0zKU9bQ0gyXUMoPU8pW0NIM10pW2NIXWMzT1tDSDJdW0NIMl1bQ0gyXVtDSDJdT2MoW2NIXTQpW2NIXVtjSF1bY0hdYzI0

> <s_epik_cmdline>
J2VwaWtfcHl0aG9uJywgJy1waCcsICc3LjAnLCAnLXRuJywgJzgnLCAnLW1hJywgJzIwMCcsICctaW1hZScsICc8aW5maWxlLm1hZT4nLCAnLW9tYWUnLCAnPG91dGZpbGUubWFlPic=

> <r_lp_tautomer_probability>
1

> <r_epik_Ionization_Penalty>
  2.0439

> <r_epik_Ionization_Penalty_Charging>
  0.0000

> <r_epik_Ionization_Penalty_Neutral>
  2.0439

> <r_epik_State_Penalty>
  2.1759

> <r_epik_Charging_Adjusted_Penalty>
2.17586

> <i_epik_Tot_Q>
0

> <i_epik_Tot_abs_Q>
0

> <s_lp_Force_Field>
OPLS_2005

> <r_lp_Energy>
40.5038

> <b_lp_Chiralities_Consistent>
1

> <s_lp_Variant>
BACE_16.smi:1-2

> <chiral flag>
1

> <version>
0

> <r_i_glide_lipo>
-0.812693

> <r_i_glide_hbond>
-0.49738

> <r_i_glide_metal>
-0

> <r_i_glide_rewards>
0

> <r_i_glide_erotb>
0.34788

> <r_i_glide_esite>
-0.101943

> <chiral flag>
1

> <s_i_glide_gridfile>
second_dock_grid_2

> <i_i_glide_lignum>
33

> <i_i_glide_rotatable_bonds>
10

> <r_i_docking_score>
-1.62447

> <r_i_glide_ligand_efficiency>
-0.0386778

> <r_i_glide_ligand_efficiency_sa>
-0.134445

> <r_i_glide_ligand_efficiency_ln>
-0.342884

> <r_glide_XP_GScore>
-3.80037

> <r_i_glide_gscore>
-3.80037

> <r_i_glide_evdw>
-46.5204

> <r_i_glide_ecoul>
-7.05038

> <r_i_glide_energy>
-53.5708

> <r_i_glide_einternal>
4.82604

> <r_i_glide_emodel>
-72.6618

> <r_glide_XP_HBond>
-1.15218

> <i_i_glide_confnum>
1

> <i_i_glide_posenum>
12

> <r_i_glide_eff_state_penalty>
2.1759

> <i_glide_XP_PoseRank>
4

$$$$
BACE_17.smi:1
                    3D
 Structure written by MMmdl.
 62 64  0  0  1  0            999 V2000
   18.3150   49.0036   -7.0737 C   0  0  0  0  0  0
   19.3402   47.9765   -7.2643 N   0  0  0  0  0  0
   20.4283   48.3359   -8.1794 C   0  0  0  0  0  0
   19.2697   46.8238   -6.5554 C   0  0  0  0  0  0
   18.4617   46.6662   -5.6400 O   0  0  0  0  0  0
   20.2054   45.6972   -6.8963 C   0  0  0  0  0  0
   20.8994   45.0255   -5.8644 C   0  0  0  0  0  0
   20.3289   45.2362   -8.2269 C   0  0  0  0  0  0
   21.1661   44.1436   -8.5284 C   0  0  0  0  0  0
   21.9024   43.5280   -7.4966 C   0  0  0  0  0  0
   21.7488   43.9345   -6.1613 C   0  0  0  0  0  0
   21.2563   43.6211   -9.9267 C   0  0  0  0  0  0
   21.3029   44.3762  -10.8968 O   0  0  0  0  0  0
   21.2023   42.2844  -10.0032 N   0  0  0  0  0  0
   21.2212   41.4677  -11.2096 C   0  0  2  0  0  0
   19.9225   41.6741  -12.0410 C   0  0  1  0  0  0
   20.0600   40.9495  -13.2400 O   0  0  0  0  0  0
   18.5868   41.3068  -11.3539 C   0  0  0  0  0  0
   17.5374   42.1485  -11.7946 O   0  0  0  0  0  0
   21.5764   39.9941  -10.8550 C   0  0  0  0  0  0
   20.7222   39.3601   -9.7628 C   0  0  0  0  0  0
   20.9773   39.6364   -8.4008 C   0  0  0  0  0  0
   20.1429   39.1048   -7.3864 C   0  0  0  0  0  0
   19.0681   38.2712   -7.7566 C   0  0  0  0  0  0
   18.8365   37.9541   -9.1079 C   0  0  0  0  0  0
   19.6674   38.4901  -10.1078 C   0  0  0  0  0  0
   20.3098   39.3501   -6.0412 O   0  0  0  0  0  0
   21.2236   40.3624   -5.6394 C   0  0  0  0  0  0
   21.1019   40.5626   -4.1204 C   0  0  0  0  0  0
   22.0788   41.5843   -3.5028 C   0  0  0  0  0  0
   21.8500   43.0401   -3.9410 C   0  0  0  0  0  0
   22.4459   43.2181   -5.2186 O   0  0  0  0  0  0
   22.0446   41.8362  -11.8259 H   0  0  0  0  0  0
   19.8686   42.7248  -12.3216 H   0  0  0  0  0  0
   17.3249   48.5976   -7.2875 H   0  0  0  0  0  0
   18.4589   49.8670   -7.7236 H   0  0  0  0  0  0
   18.3205   49.3501   -6.0405 H   0  0  0  0  0  0
   21.3741   47.8661   -7.9049 H   0  0  0  0  0  0
   20.6098   49.4111   -8.1798 H   0  0  0  0  0  0
   20.1814   48.0405   -9.1997 H   0  0  0  0  0  0
   20.7805   45.3570   -4.8445 H   0  0  0  0  0  0
   19.7579   45.7001   -9.0188 H   0  0  0  0  0  0
   22.5609   42.6987   -7.7128 H   0  0  0  0  0  0
   21.1085   41.7828   -9.1324 H   0  0  0  0  0  0
   19.9844   40.0271  -13.0405 H   0  0  0  0  0  0
   18.3045   40.2710  -11.5381 H   0  0  0  0  0  0
   18.6621   41.4323  -10.2733 H   0  0  0  0  0  0
   16.7886   41.9838  -11.2402 H   0  0  0  0  0  0
   21.5554   39.3672  -11.7469 H   0  0  0  0  0  0
   22.6129   39.9583  -10.5146 H   0  0  0  0  0  0
   21.8154   40.2682   -8.1508 H   0  0  0  0  0  0
   18.4197   37.8615   -6.9941 H   0  0  0  0  0  0
   18.0163   37.3035   -9.3746 H   0  0  0  0  0  0
   19.4757   38.2451  -11.1424 H   0  0  0  0  0  0
   22.2448   40.0811   -5.9006 H   0  0  0  0  0  0
   20.9719   41.2868   -6.1547 H   0  0  0  0  0  0
   20.0769   40.8422   -3.8744 H   0  0  0  0  0  0
   21.2751   39.6018   -3.6399 H   0  0  0  0  0  0
   21.9594   41.5391   -2.4207 H   0  0  0  0  0  0
   23.1108   41.2904   -3.6994 H   0  0  0  0  0  0
   20.7808   43.2582   -3.9200 H   0  0  0  0  0  0
   22.3376   43.7225   -3.2438 H   0  0  0  0  0  0
  1  2  1  0  0  0
  1 35  1  0  0  0
  1 36  1  0  0  0
  1 37  1  0  0  0
  2  3  1  0  0  0
  2  4  1  0  0  0
  3 38  1  0  0  0
  3 39  1  0  0  0
  3 40  1  0  0  0
  4  5  2  0  0  0
  4  6  1  0  0  0
  6  7  1  0  0  0
  6  8  2  0  0  0
  7 11  2  0  0  0
  7 41  1  0  0  0
  8  9  1  0  0  0
  8 42  1  0  0  0
  9 10  2  0  0  0
  9 12  1  0  0  0
 10 11  1  0  0  0
 10 43  1  0  0  0
 11 32  1  0  0  0
 12 13  2  0  0  0
 12 14  1  0  0  0
 14 15  1  0  0  0
 14 44  1  0  0  0
 15 33  1  0  0  0
 15 16  1  0  0  0
 15 20  1  0  0  0
 16 34  1  0  0  0
 16 17  1  0  0  0
 16 18  1  0  0  0
 17 45  1  0  0  0
 18 19  1  0  0  0
 18 46  1  0  0  0
 18 47  1  0  0  0
 19 48  1  0  0  0
 20 21  1  0  0  0
 20 49  1  0  0  0
 20 50  1  0  0  0
 21 26  1  0  0  0
 21 22  2  0  0  0
 22 23  1  0  0  0
 22 51  1  0  0  0
 23 24  2  0  0  0
 23 27  1  0  0  0
 24 25  1  0  0  0
 24 52  1  0  0  0
 25 26  2  0  0  0
 25 53  1  0  0  0
 26 54  1  0  0  0
 27 28  1  0  0  0
 28 29  1  0  0  0
 28 55  1  0  0  0
 28 56  1  0  0  0
 29 30  1  0  0  0
 29 57  1  0  0  0
 29 58  1  0  0  0
 30 31  1  0  0  0
 30 59  1  0  0  0
 30 60  1  0  0  0
 31 32  1  0  0  0
 31 61  1  0  0  0
 31 62  1  0  0  0
M  END
> <s_m_source_file>
BACE_17.smi

> <i_m_source_file_index>
1

> <i_lp_mmshare_version>
42013

> <i_f3d_flags>
0

> <s_epik_input>
W0NIM11OKFtDSDNdKUMoPU8pYyhbY0hdYzEyKVtjSF1jKFtjSF0xKU9bQ0gyXVtDSDJdW0NIMl1bQ0gyXU9jM1tjSF1jKFtjSF1bY0hdW2NIXTMpW0NIMl1bQ0BIXShbTkhdQzI9TylbQ0BASF0oW09IXSlbQ0gyXVtPSF0=

> <s_epik_cmdline>
J2VwaWtfcHl0aG9uJywgJy1waCcsICc3LjAnLCAnLXRuJywgJzgnLCAnLW1hJywgJzIwMCcsICctaW1hZScsICc8aW5maWxlLm1hZT4nLCAnLW9tYWUnLCAnPG91dGZpbGUubWFlPic=

> <r_lp_tautomer_probability>
1

> <r_epik_Ionization_Penalty>
  0.0000

> <r_epik_Ionization_Penalty_Charging>
  0.0000

> <r_epik_Ionization_Penalty_Neutral>
  0.0000

> <r_epik_State_Penalty>
 -0.0000

> <r_epik_Charging_Adjusted_Penalty>
0

> <i_epik_Tot_Q>
0

> <i_epik_Tot_abs_Q>
0

> <s_lp_Force_Field>
OPLS_2005

> <r_lp_Energy>
47.913

> <b_lp_Chiralities_Consistent>
1

> <s_lp_Variant>
BACE_17.smi:1-1

> <chiral flag>
1

> <version>
0

> <r_i_glide_lipo>
-0.567811

> <r_i_glide_hbond>
0

> <r_i_glide_metal>
-0

> <r_i_glide_rewards>
-0.490634

> <r_i_glide_erotb>
0.306172

> <r_i_glide_esite>
-0.00811059

> <chiral flag>
1

> <s_i_glide_gridfile>
second_dock_grid_2

> <i_i_glide_lignum>
34

> <i_i_glide_rotatable_bonds>
6

> <r_i_docking_score>
-5.85385

> <r_i_glide_ligand_efficiency>
-0.182933

> <r_i_glide_ligand_efficiency_sa>
-0.580775

> <r_i_glide_ligand_efficiency_ln>
-1.31084

> <r_glide_XP_GScore>
-5.85385

> <r_i_glide_gscore>
-5.85385

> <r_i_glide_evdw>
-35.8235

> <r_i_glide_ecoul>
-9.18894

> <r_i_glide_energy>
-45.0125

> <r_i_glide_einternal>
8.54372

> <r_i_glide_emodel>
-52.7756

> <r_glide_XP_HBond>
-1.21716

> <i_i_glide_confnum>
1

> <i_i_glide_posenum>
8

> <r_i_glide_eff_state_penalty>
-0

> <i_glide_XP_PoseRank>
1

$$$$
BACE_17.smi:1
                    3D
 Structure written by MMmdl.
 62 64  0  0  1  0            999 V2000
   18.7065   49.3361   -6.9405 C   0  0  0  0  0  0
   19.5850   48.1792   -7.1418 N   0  0  0  0  0  0
   20.7237   48.4298   -8.0316 C   0  0  0  0  0  0
   19.3598   47.0015   -6.5071 C   0  0  0  0  0  0
   18.4943   46.8642   -5.6401 O   0  0  0  0  0  0
   20.2146   45.8155   -6.8697 C   0  0  0  0  0  0
   20.9095   45.1191   -5.8559 C   0  0  0  0  0  0
   20.2755   45.3394   -8.1996 C   0  0  0  0  0  0
   21.0653   44.2148   -8.5195 C   0  0  0  0  0  0
   21.8082   43.5770   -7.5048 C   0  0  0  0  0  0
   21.7080   43.9940   -6.1684 C   0  0  0  0  0  0
   21.1204   43.6934   -9.9214 C   0  0  0  0  0  0
   21.1388   44.4496  -10.8922 O   0  0  0  0  0  0
   21.0908   42.3559  -10.0015 N   0  0  0  0  0  0
   21.1603   41.5398  -11.2063 C   0  0  2  0  0  0
   19.8727   41.6979  -12.0642 C   0  0  1  0  0  0
   20.0599   40.9502  -13.2400 O   0  0  0  0  0  0
   18.5337   41.3042  -11.3944 C   0  0  0  0  0  0
   17.4809   42.1498  -11.8183 O   0  0  0  0  0  0
   21.5626   40.0797  -10.8442 C   0  0  0  0  0  0
   20.7204   39.4189   -9.7593 C   0  0  0  0  0  0
   20.9667   39.6924   -8.3960 C   0  0  0  0  0  0
   20.1381   39.1409   -7.3868 C   0  0  0  0  0  0
   19.0795   38.2899   -7.7647 C   0  0  0  0  0  0
   18.8604   37.9742   -9.1179 C   0  0  0  0  0  0
   19.6848   38.5308  -10.1122 C   0  0  0  0  0  0
   20.2999   39.3832   -6.0407 O   0  0  0  0  0  0
   21.2009   40.4061   -5.6388 C   0  0  0  0  0  0
   21.0846   40.6107   -4.1204 C   0  0  0  0  0  0
   22.0721   41.6288   -3.5178 C   0  0  0  0  0  0
   21.8466   43.0863   -3.9530 C   0  0  0  0  0  0
   22.4149   43.2623   -5.2434 O   0  0  0  0  0  0
   21.9829   41.9361  -11.8078 H   0  0  0  0  0  0
   19.7956   42.7412  -12.3651 H   0  0  0  0  0  0
   18.0452   49.4497   -7.7988 H   0  0  0  0  0  0
   19.2834   50.2535   -6.8390 H   0  0  0  0  0  0
   18.0851   49.2651   -6.0475 H   0  0  0  0  0  0
   21.6543   48.0544   -7.5997 H   0  0  0  0  0  0
   20.8711   49.4951   -8.2249 H   0  0  0  0  0  0
   20.5758   47.9551   -9.0044 H   0  0  0  0  0  0
   20.8419   45.4697   -4.8399 H   0  0  0  0  0  0
   19.7008   45.8219   -8.9773 H   0  0  0  0  0  0
   22.4388   42.7300   -7.7335 H   0  0  0  0  0  0
   21.0111   41.8500   -9.1316 H   0  0  0  0  0  0
   19.9899   40.0312  -13.0245 H   0  0  0  0  0  0
   18.2554   40.2721  -11.6025 H   0  0  0  0  0  0
   18.6001   41.4081  -10.3117 H   0  0  0  0  0  0
   16.7504   42.0040  -11.2377 H   0  0  0  0  0  0
   21.5731   39.4478  -11.7325 H   0  0  0  0  0  0
   22.5974   40.0802  -10.4948 H   0  0  0  0  0  0
   21.7901   40.3424   -8.1401 H   0  0  0  0  0  0
   18.4368   37.8681   -7.0039 H   0  0  0  0  0  0
   18.0544   37.3075   -9.3913 H   0  0  0  0  0  0
   19.5073   38.2867  -11.1494 H   0  0  0  0  0  0
   22.2248   40.1363   -5.9027 H   0  0  0  0  0  0
   20.9376   41.3274   -6.1505 H   0  0  0  0  0  0
   20.0640   40.8954   -3.8629 H   0  0  0  0  0  0
   21.2607   39.6514   -3.6401 H   0  0  0  0  0  0
   21.9685   41.5839   -2.4341 H   0  0  0  0  0  0
   23.0994   41.3308   -3.7286 H   0  0  0  0  0  0
   20.7825   43.3227   -3.9082 H   0  0  0  0  0  0
   22.3646   43.7513   -3.2645 H   0  0  0  0  0  0
  1  2  1  0  0  0
  1 35  1  0  0  0
  1 36  1  0  0  0
  1 37  1  0  0  0
  2  3  1  0  0  0
  2  4  1  0  0  0
  3 38  1  0  0  0
  3 39  1  0  0  0
  3 40  1  0  0  0
  4  5  2  0  0  0
  4  6  1  0  0  0
  6  7  1  0  0  0
  6  8  2  0  0  0
  7 11  2  0  0  0
  7 41  1  0  0  0
  8  9  1  0  0  0
  8 42  1  0  0  0
  9 10  2  0  0  0
  9 12  1  0  0  0
 10 11  1  0  0  0
 10 43  1  0  0  0
 11 32  1  0  0  0
 12 13  2  0  0  0
 12 14  1  0  0  0
 14 15  1  0  0  0
 14 44  1  0  0  0
 15 33  1  0  0  0
 15 16  1  0  0  0
 15 20  1  0  0  0
 16 34  1  0  0  0
 16 17  1  0  0  0
 16 18  1  0  0  0
 17 45  1  0  0  0
 18 19  1  0  0  0
 18 46  1  0  0  0
 18 47  1  0  0  0
 19 48  1  0  0  0
 20 21  1  0  0  0
 20 49  1  0  0  0
 20 50  1  0  0  0
 21 26  1  0  0  0
 21 22  2  0  0  0
 22 23  1  0  0  0
 22 51  1  0  0  0
 23 24  2  0  0  0
 23 27  1  0  0  0
 24 25  1  0  0  0
 24 52  1  0  0  0
 25 26  2  0  0  0
 25 53  1  0  0  0
 26 54  1  0  0  0
 27 28  1  0  0  0
 28 29  1  0  0  0
 28 55  1  0  0  0
 28 56  1  0  0  0
 29 30  1  0  0  0
 29 57  1  0  0  0
 29 58  1  0  0  0
 30 31  1  0  0  0
 30 59  1  0  0  0
 30 60  1  0  0  0
 31 32  1  0  0  0
 31 61  1  0  0  0
 31 62  1  0  0  0
M  END
> <s_m_source_file>
BACE_17.smi

> <i_m_source_file_index>
1

> <i_lp_mmshare_version>
42013

> <i_f3d_flags>
0

> <s_epik_input>
W0NIM11OKFtDSDNdKUMoPU8pYyhbY0hdYzEyKVtjSF1jKFtjSF0xKU9bQ0gyXVtDSDJdW0NIMl1bQ0gyXU9jM1tjSF1jKFtjSF1bY0hdW2NIXTMpW0NIMl1bQ0BIXShbTkhdQzI9TylbQ0BASF0oW09IXSlbQ0gyXVtPSF0=

> <s_epik_cmdline>
J2VwaWtfcHl0aG9uJywgJy1waCcsICc3LjAnLCAnLXRuJywgJzgnLCAnLW1hJywgJzIwMCcsICctaW1hZScsICc8aW5maWxlLm1hZT4nLCAnLW9tYWUnLCAnPG91dGZpbGUubWFlPic=

> <r_lp_tautomer_probability>
1

> <r_epik_Ionization_Penalty>
  0.0000

> <r_epik_Ionization_Penalty_Charging>
  0.0000

> <r_epik_Ionization_Penalty_Neutral>
  0.0000

> <r_epik_State_Penalty>
 -0.0000

> <r_epik_Charging_Adjusted_Penalty>
0

> <i_epik_Tot_Q>
0

> <i_epik_Tot_abs_Q>
0

> <s_lp_Force_Field>
OPLS_2005

> <r_lp_Energy>
47.913

> <b_lp_Chiralities_Consistent>
1

> <s_lp_Variant>
BACE_17.smi:1-1

> <chiral flag>
1

> <version>
0

> <r_i_glide_lipo>
-0.567811

> <r_i_glide_hbond>
0

> <r_i_glide_metal>
-0

> <r_i_glide_rewards>
-0.490634

> <r_i_glide_erotb>
0.306172

> <r_i_glide_esite>
-0.00811059

> <chiral flag>
1

> <s_i_glide_gridfile>
second_dock_grid_2

> <i_i_glide_lignum>
34

> <i_i_glide_rotatable_bonds>
6

> <r_i_docking_score>
-5.70724

> <r_i_glide_ligand_efficiency>
-0.178351

> <r_i_glide_ligand_efficiency_sa>
-0.56623

> <r_i_glide_ligand_efficiency_ln>
-1.27801

> <r_glide_XP_GScore>
-5.70724

> <r_i_glide_gscore>
-5.70724

> <r_i_glide_evdw>
-36.0892

> <r_i_glide_ecoul>
-8.94499

> <r_i_glide_energy>
-45.0342

> <r_i_glide_einternal>
7.74078

> <r_i_glide_emodel>
-55.6912

> <r_glide_XP_HBond>
-1.21716

> <i_i_glide_confnum>
1

> <i_i_glide_posenum>
7

> <r_i_glide_eff_state_penalty>
-0

> <i_glide_XP_PoseRank>
2

$$$$
BACE_17.smi:1
                    3D
 Structure written by MMmdl.
 62 64  0  0  1  0            999 V2000
   17.8943   45.9115   -7.3715 C   0  0  0  0  0  0
   18.6794   47.0076   -6.7950 N   0  0  0  0  0  0
   17.9090   48.2285   -6.5464 C   0  0  0  0  0  0
   19.9913   46.9200   -6.4545 C   0  0  0  0  0  0
   20.5783   47.7994   -5.8230 O   0  0  0  0  0  0
   20.7556   45.6869   -6.8492 C   0  0  0  0  0  0
   21.4613   44.9613   -5.8645 C   0  0  0  0  0  0
   20.8168   45.2621   -8.1972 C   0  0  0  0  0  0
   21.5291   44.0980   -8.5482 C   0  0  0  0  0  0
   22.2486   43.4014   -7.5561 C   0  0  0  0  0  0
   22.1999   43.8066   -6.2119 C   0  0  0  0  0  0
   21.5145   43.5899   -9.9563 C   0  0  0  0  0  0
   21.5637   44.3497  -10.9224 O   0  0  0  0  0  0
   21.3696   42.2611  -10.0428 N   0  0  0  0  0  0
   21.3224   41.4480  -11.2497 C   0  0  2  0  0  0
   20.0005   41.6895  -12.0381 C   0  0  1  0  0  0
   20.0598   40.9505  -13.2393 O   0  0  0  0  0  0
   18.6714   41.3909  -11.3077 C   0  0  0  0  0  0
   17.6341   42.2381  -11.7675 O   0  0  0  0  0  0
   21.6566   39.9694  -10.9005 C   0  0  0  0  0  0
   20.8098   39.3587   -9.7885 C   0  0  0  0  0  0
   21.1057   39.6224   -8.4308 C   0  0  0  0  0  0
   20.2778   39.1167   -7.3961 C   0  0  0  0  0  0
   19.1663   38.3217   -7.7422 C   0  0  0  0  0  0
   18.8929   38.0170   -9.0887 C   0  0  0  0  0  0
   19.7201   38.5237  -10.1089 C   0  0  0  0  0  0
   20.4853   39.3501   -6.0534 O   0  0  0  0  0  0
   21.4863   40.2825   -5.6746 C   0  0  0  0  0  0
   21.4690   40.4344   -4.1468 C   0  0  0  0  0  0
   22.5129   41.4141   -3.5761 C   0  0  0  0  0  0
   22.3261   42.8789   -4.0082 C   0  0  0  0  0  0
   22.8848   43.0331   -5.3070 O   0  0  0  0  0  0
   22.1348   41.7941  -11.8945 H   0  0  0  0  0  0
   19.9858   42.7405  -12.3151 H   0  0  0  0  0  0
   18.0729   45.8312   -8.4437 H   0  0  0  0  0  0
   16.8237   46.0666   -7.2417 H   0  0  0  0  0  0
   18.1353   44.9530   -6.9086 H   0  0  0  0  0  0
   17.3105   48.1256   -5.6417 H   0  0  0  0  0  0
   17.2346   48.4273   -7.3786 H   0  0  0  0  0  0
   18.5350   49.1153   -6.4367 H   0  0  0  0  0  0
   21.4336   45.2983   -4.8400 H   0  0  0  0  0  0
   20.2950   45.8153   -8.9643 H   0  0  0  0  0  0
   22.8223   42.5208   -7.8074 H   0  0  0  0  0  0
   21.2824   41.7588   -9.1730 H   0  0  0  0  0  0
   19.9341   40.0357  -13.0316 H   0  0  0  0  0  0
   18.3526   40.3623  -11.4496 H   0  0  0  0  0  0
   18.7719   41.5531  -10.2341 H   0  0  0  0  0  0
   16.8828   42.0937  -11.2135 H   0  0  0  0  0  0
   21.6175   39.3424  -11.7916 H   0  0  0  0  0  0
   22.6969   39.9204  -10.5770 H   0  0  0  0  0  0
   21.9699   40.2263   -8.2026 H   0  0  0  0  0  0
   18.5235   37.9309   -6.9639 H   0  0  0  0  0  0
   18.0456   37.3941   -9.3353 H   0  0  0  0  0  0
   19.4932   38.2835  -11.1394 H   0  0  0  0  0  0
   22.4696   39.9455   -6.0048 H   0  0  0  0  0  0
   21.2638   41.2361   -6.1473 H   0  0  0  0  0  0
   20.4701   40.7367   -3.8255 H   0  0  0  0  0  0
   21.6512   39.4524   -3.7066 H   0  0  0  0  0  0
   22.4464   41.3750   -2.4889 H   0  0  0  0  0  0
   23.5197   41.0787   -3.8248 H   0  0  0  0  0  0
   21.2684   43.1384   -3.9527 H   0  0  0  0  0  0
   22.8601   43.5418   -3.3292 H   0  0  0  0  0  0
  1  2  1  0  0  0
  1 35  1  0  0  0
  1 36  1  0  0  0
  1 37  1  0  0  0
  2  3  1  0  0  0
  2  4  1  0  0  0
  3 38  1  0  0  0
  3 39  1  0  0  0
  3 40  1  0  0  0
  4  5  2  0  0  0
  4  6  1  0  0  0
  6  7  1  0  0  0
  6  8  2  0  0  0
  7 11  2  0  0  0
  7 41  1  0  0  0
  8  9  1  0  0  0
  8 42  1  0  0  0
  9 10  2  0  0  0
  9 12  1  0  0  0
 10 11  1  0  0  0
 10 43  1  0  0  0
 11 32  1  0  0  0
 12 13  2  0  0  0
 12 14  1  0  0  0
 14 15  1  0  0  0
 14 44  1  0  0  0
 15 33  1  0  0  0
 15 16  1  0  0  0
 15 20  1  0  0  0
 16 34  1  0  0  0
 16 17  1  0  0  0
 16 18  1  0  0  0
 17 45  1  0  0  0
 18 19  1  0  0  0
 18 46  1  0  0  0
 18 47  1  0  0  0
 19 48  1  0  0  0
 20 21  1  0  0  0
 20 49  1  0  0  0
 20 50  1  0  0  0
 21 26  1  0  0  0
 21 22  2  0  0  0
 22 23  1  0  0  0
 22 51  1  0  0  0
 23 24  2  0  0  0
 23 27  1  0  0  0
 24 25  1  0  0  0
 24 52  1  0  0  0
 25 26  2  0  0  0
 25 53  1  0  0  0
 26 54  1  0  0  0
 27 28  1  0  0  0
 28 29  1  0  0  0
 28 55  1  0  0  0
 28 56  1  0  0  0
 29 30  1  0  0  0
 29 57  1  0  0  0
 29 58  1  0  0  0
 30 31  1  0  0  0
 30 59  1  0  0  0
 30 60  1  0  0  0
 31 32  1  0  0  0
 31 61  1  0  0  0
 31 62  1  0  0  0
M  END
> <s_m_source_file>
BACE_17.smi

> <i_m_source_file_index>
1

> <i_lp_mmshare_version>
42013

> <i_f3d_flags>
0

> <s_epik_input>
W0NIM11OKFtDSDNdKUMoPU8pYyhbY0hdYzEyKVtjSF1jKFtjSF0xKU9bQ0gyXVtDSDJdW0NIMl1bQ0gyXU9jM1tjSF1jKFtjSF1bY0hdW2NIXTMpW0NIMl1bQ0BIXShbTkhdQzI9TylbQ0BASF0oW09IXSlbQ0gyXVtPSF0=

> <s_epik_cmdline>
J2VwaWtfcHl0aG9uJywgJy1waCcsICc3LjAnLCAnLXRuJywgJzgnLCAnLW1hJywgJzIwMCcsICctaW1hZScsICc8aW5maWxlLm1hZT4nLCAnLW9tYWUnLCAnPG91dGZpbGUubWFlPic=

> <r_lp_tautomer_probability>
1

> <r_epik_Ionization_Penalty>
  0.0000

> <r_epik_Ionization_Penalty_Charging>
  0.0000

> <r_epik_Ionization_Penalty_Neutral>
  0.0000

> <r_epik_State_Penalty>
 -0.0000

> <r_epik_Charging_Adjusted_Penalty>
0

> <i_epik_Tot_Q>
0

> <i_epik_Tot_abs_Q>
0

> <s_lp_Force_Field>
OPLS_2005

> <r_lp_Energy>
47.913

> <b_lp_Chiralities_Consistent>
1

> <s_lp_Variant>
BACE_17.smi:1-1

> <chiral flag>
1

> <version>
0

> <r_i_glide_lipo>
-0.567811

> <r_i_glide_hbond>
0

> <r_i_glide_metal>
-0

> <r_i_glide_rewards>
-0.490634

> <r_i_glide_erotb>
0.306172

> <r_i_glide_esite>
-0.00811059

> <chiral flag>
1

> <s_i_glide_gridfile>
second_dock_grid_2

> <i_i_glide_lignum>
34

> <i_i_glide_rotatable_bonds>
6

> <r_i_docking_score>
-5.17891

> <r_i_glide_ligand_efficiency>
-0.161841

> <r_i_glide_ligand_efficiency_sa>
-0.513813

> <r_i_glide_ligand_efficiency_ln>
-1.1597

> <r_glide_XP_GScore>
-5.17891

> <r_i_glide_gscore>
-5.17891

> <r_i_glide_evdw>
-36.9683

> <r_i_glide_ecoul>
-6.3421

> <r_i_glide_energy>
-43.3104

> <r_i_glide_einternal>
7.31544

> <r_i_glide_emodel>
-53.1888

> <r_glide_XP_HBond>
-1.21716

> <i_i_glide_confnum>
1

> <i_i_glide_posenum>
11

> <r_i_glide_eff_state_penalty>
-0

> <i_glide_XP_PoseRank>
3

$$$$
BACE_17.smi:1
                    3D
 Structure written by MMmdl.
 62 64  0  0  1  0            999 V2000
   17.6697   48.2394   -6.6092 C   0  0  0  0  0  0
   18.4609   47.0344   -6.8686 N   0  0  0  0  0  0
   17.6922   45.9096   -7.4118 C   0  0  0  0  0  0
   19.7715   46.9717   -6.5260 C   0  0  0  0  0  0
   20.3448   47.8774   -5.9195 O   0  0  0  0  0  0
   20.5469   45.7334   -6.8800 C   0  0  0  0  0  0
   21.2282   45.0259   -5.8652 C   0  0  0  0  0  0
   20.6369   45.2872   -8.2191 C   0  0  0  0  0  0
   21.3619   44.1189   -8.5334 C   0  0  0  0  0  0
   22.0576   43.4410   -7.5117 C   0  0  0  0  0  0
   21.9747   43.8665   -6.1761 C   0  0  0  0  0  0
   21.3883   43.5891   -9.9334 C   0  0  0  0  0  0
   21.4579   44.3376  -10.9071 O   0  0  0  0  0  0
   21.2578   42.2566  -10.0072 N   0  0  0  0  0  0
   21.2459   41.4353  -11.2116 C   0  0  2  0  0  0
   19.9452   41.6668  -12.0319 C   0  0  1  0  0  0
   20.0601   40.9500  -13.2399 O   0  0  0  0  0  0
   18.6111   41.3120  -11.3360 C   0  0  0  0  0  0
   17.5619   42.1489  -11.7852 O   0  0  0  0  0  0
   21.5756   39.9553  -10.8602 C   0  0  0  0  0  0
   20.7193   39.3321   -9.7627 C   0  0  0  0  0  0
   20.9779   39.6145   -8.4026 C   0  0  0  0  0  0
   20.1404   39.0960   -7.3837 C   0  0  0  0  0  0
   19.0590   38.2680   -7.7472 C   0  0  0  0  0  0
   18.8259   37.9408   -9.0959 C   0  0  0  0  0  0
   19.6603   38.4637  -10.0999 C   0  0  0  0  0  0
   20.3091   39.3502   -6.0401 O   0  0  0  0  0  0
   21.2611   40.3291   -5.6436 C   0  0  0  0  0  0
   21.1451   40.5483   -4.1270 C   0  0  0  0  0  0
   22.1825   41.5110   -3.5135 C   0  0  0  0  0  0
   22.0447   42.9755   -3.9578 C   0  0  0  0  0  0
   22.6349   43.1038   -5.2438 O   0  0  0  0  0  0
   22.0700   41.7855  -11.8375 H   0  0  0  0  0  0
   19.9060   42.7223  -12.2945 H   0  0  0  0  0  0
   17.1636   48.1506   -5.6473 H   0  0  0  0  0  0
   16.9177   48.3853   -7.3855 H   0  0  0  0  0  0
   18.2769   49.1461   -6.5891 H   0  0  0  0  0  0
   17.8504   45.8173   -8.4862 H   0  0  0  0  0  0
   16.6220   46.0408   -7.2538 H   0  0  0  0  0  0
   17.9621   44.9641   -6.9384 H   0  0  0  0  0  0
   21.1731   45.3777   -4.8466 H   0  0  0  0  0  0
   20.1309   45.8272   -9.0069 H   0  0  0  0  0  0
   22.6397   42.5587   -7.7365 H   0  0  0  0  0  0
   21.1480   41.7608   -9.1349 H   0  0  0  0  0  0
   19.9481   40.0301  -13.0514 H   0  0  0  0  0  0
   18.3261   40.2749  -11.5071 H   0  0  0  0  0  0
   18.6906   41.4513  -10.2571 H   0  0  0  0  0  0
   16.8077   41.9753  -11.2420 H   0  0  0  0  0  0
   21.5336   39.3348  -11.7551 H   0  0  0  0  0  0
   22.6139   39.8980  -10.5294 H   0  0  0  0  0  0
   21.8206   40.2419   -8.1575 H   0  0  0  0  0  0
   18.4074   37.8689   -6.9818 H   0  0  0  0  0  0
   18.0019   37.2930   -9.3578 H   0  0  0  0  0  0
   19.4658   38.2117  -11.1323 H   0  0  0  0  0  0
   22.2708   40.0054   -5.9015 H   0  0  0  0  0  0
   21.0477   41.2592   -6.1658 H   0  0  0  0  0  0
   20.1371   40.8892   -3.8859 H   0  0  0  0  0  0
   21.2606   39.5826   -3.6398 H   0  0  0  0  0  0
   22.0585   41.4781   -2.4321 H   0  0  0  0  0  0
   23.1949   41.1536   -3.7067 H   0  0  0  0  0  0
   20.9922   43.2628   -3.9273 H   0  0  0  0  0  0
   22.5817   43.6300   -3.2703 H   0  0  0  0  0  0
  1  2  1  0  0  0
  1 35  1  0  0  0
  1 36  1  0  0  0
  1 37  1  0  0  0
  2  3  1  0  0  0
  2  4  1  0  0  0
  3 38  1  0  0  0
  3 39  1  0  0  0
  3 40  1  0  0  0
  4  5  2  0  0  0
  4  6  1  0  0  0
  6  7  1  0  0  0
  6  8  2  0  0  0
  7 11  2  0  0  0
  7 41  1  0  0  0
  8  9  1  0  0  0
  8 42  1  0  0  0
  9 10  2  0  0  0
  9 12  1  0  0  0
 10 11  1  0  0  0
 10 43  1  0  0  0
 11 32  1  0  0  0
 12 13  2  0  0  0
 12 14  1  0  0  0
 14 15  1  0  0  0
 14 44  1  0  0  0
 15 33  1  0  0  0
 15 16  1  0  0  0
 15 20  1  0  0  0
 16 34  1  0  0  0
 16 17  1  0  0  0
 16 18  1  0  0  0
 17 45  1  0  0  0
 18 19  1  0  0  0
 18 46  1  0  0  0
 18 47  1  0  0  0
 19 48  1  0  0  0
 20 21  1  0  0  0
 20 49  1  0  0  0
 20 50  1  0  0  0
 21 26  1  0  0  0
 21 22  2  0  0  0
 22 23  1  0  0  0
 22 51  1  0  0  0
 23 24  2  0  0  0
 23 27  1  0  0  0
 24 25  1  0  0  0
 24 52  1  0  0  0
 25 26  2  0  0  0
 25 53  1  0  0  0
 26 54  1  0  0  0
 27 28  1  0  0  0
 28 29  1  0  0  0
 28 55  1  0  0  0
 28 56  1  0  0  0
 29 30  1  0  0  0
 29 57  1  0  0  0
 29 58  1  0  0  0
 30 31  1  0  0  0
 30 59  1  0  0  0
 30 60  1  0  0  0
 31 32  1  0  0  0
 31 61  1  0  0  0
 31 62  1  0  0  0
M  END
> <s_m_source_file>
BACE_17.smi

> <i_m_source_file_index>
1

> <i_lp_mmshare_version>
42013

> <i_f3d_flags>
0

> <s_epik_input>
W0NIM11OKFtDSDNdKUMoPU8pYyhbY0hdYzEyKVtjSF1jKFtjSF0xKU9bQ0gyXVtDSDJdW0NIMl1bQ0gyXU9jM1tjSF1jKFtjSF1bY0hdW2NIXTMpW0NIMl1bQ0BIXShbTkhdQzI9TylbQ0BASF0oW09IXSlbQ0gyXVtPSF0=

> <s_epik_cmdline>
J2VwaWtfcHl0aG9uJywgJy1waCcsICc3LjAnLCAnLXRuJywgJzgnLCAnLW1hJywgJzIwMCcsICctaW1hZScsICc8aW5maWxlLm1hZT4nLCAnLW9tYWUnLCAnPG91dGZpbGUubWFlPic=

> <r_lp_tautomer_probability>
1

> <r_epik_Ionization_Penalty>
  0.0000

> <r_epik_Ionization_Penalty_Charging>
  0.0000

> <r_epik_Ionization_Penalty_Neutral>
  0.0000

> <r_epik_State_Penalty>
 -0.0000

> <r_epik_Charging_Adjusted_Penalty>
0

> <i_epik_Tot_Q>
0

> <i_epik_Tot_abs_Q>
0

> <s_lp_Force_Field>
OPLS_2005

> <r_lp_Energy>
47.913

> <b_lp_Chiralities_Consistent>
1

> <s_lp_Variant>
BACE_17.smi:1-1

> <chiral flag>
1

> <version>
0

> <r_i_glide_lipo>
-0.567811

> <r_i_glide_hbond>
0

> <r_i_glide_metal>
-0

> <r_i_glide_rewards>
-0.490634

> <r_i_glide_erotb>
0.306172

> <r_i_glide_esite>
-0.00811059

> <chiral flag>
1

> <s_i_glide_gridfile>
second_dock_grid_2

> <i_i_glide_lignum>
34

> <i_i_glide_rotatable_bonds>
6

> <r_i_docking_score>
-5.09401

> <r_i_glide_ligand_efficiency>
-0.159188

> <r_i_glide_ligand_efficiency_sa>
-0.50539

> <r_i_glide_ligand_efficiency_ln>
-1.14069

> <r_glide_XP_GScore>
-5.09401

> <r_i_glide_gscore>
-5.09401

> <r_i_glide_evdw>
-37.0439

> <r_i_glide_ecoul>
-6.42162

> <r_i_glide_energy>
-43.4655

> <r_i_glide_einternal>
9.07415

> <r_i_glide_emodel>
-52.4306

> <r_glide_XP_HBond>
-1.21716

> <i_i_glide_confnum>
1

> <i_i_glide_posenum>
14

> <r_i_glide_eff_state_penalty>
-0

> <i_glide_XP_PoseRank>
4

$$$$
BACE_17.smi:1
                    3D
 Structure written by MMmdl.
 62 64  0  0  1  0            999 V2000
   18.0070   46.1363   -7.3563 C   0  0  0  0  0  0
   18.8138   47.1612   -6.6833 N   0  0  0  0  0  0
   18.0609   48.3342   -6.2393 C   0  0  0  0  0  0
   20.1238   47.0219   -6.3599 C   0  0  0  0  0  0
   20.7248   47.8359   -5.6558 O   0  0  0  0  0  0
   20.8576   45.7970   -6.8284 C   0  0  0  0  0  0
   21.5482   45.0093   -5.8802 C   0  0  0  0  0  0
   20.9047   45.4409   -8.1966 C   0  0  0  0  0  0
   21.5846   44.2740   -8.6041 C   0  0  0  0  0  0
   22.2973   43.5198   -7.6479 C   0  0  0  0  0  0
   22.2613   43.8592   -6.2855 C   0  0  0  0  0  0
   21.5365   43.8182  -10.0306 C   0  0  0  0  0  0
   21.5475   44.6098  -10.9726 O   0  0  0  0  0  0
   21.4071   42.4918  -10.1580 N   0  0  0  0  0  0
   21.3962   41.7160  -11.3887 C   0  0  2  0  0  0
   20.0096   41.7939  -12.0967 C   0  0  1  0  0  0
   20.0598   40.9677  -13.2398 O   0  0  0  0  0  0
   18.7476   41.4458  -11.2670 C   0  0  0  0  0  0
   17.6408   42.2243  -11.6811 O   0  0  0  0  0  0
   21.9406   40.2935  -11.0898 C   0  0  0  0  0  0
   21.1479   39.5169  -10.0438 C   0  0  0  0  0  0
   21.4073   39.7123   -8.6694 C   0  0  0  0  0  0
   20.6069   39.0828   -7.6835 C   0  0  0  0  0  0
   19.5618   38.2333   -8.1007 C   0  0  0  0  0  0
   19.3315   37.9916   -9.4677 C   0  0  0  0  0  0
   20.1314   38.6213  -10.4377 C   0  0  0  0  0  0
   20.7752   39.2531   -6.3257 O   0  0  0  0  0  0
   21.6953   40.2375   -5.8761 C   0  0  0  0  0  0
   21.5834   40.3768   -4.3500 C   0  0  0  0  0  0
   22.5712   41.3744   -3.7126 C   0  0  0  0  0  0
   22.3572   42.8387   -4.1263 C   0  0  0  0  0  0
   22.9216   43.0227   -5.4182 O   0  0  0  0  0  0
   22.1190   42.1733  -12.0677 H   0  0  0  0  0  0
   19.8799   42.8196  -12.4381 H   0  0  0  0  0  0
   18.2063   46.1247   -8.4268 H   0  0  0  0  0  0
   16.9387   46.3140   -7.2413 H   0  0  0  0  0  0
   18.2073   45.1418   -6.9532 H   0  0  0  0  0  0
   17.6617   48.1500   -5.2431 H   0  0  0  0  0  0
   17.2317   48.5563   -6.9112 H   0  0  0  0  0  0
   18.6795   49.2333   -6.1985 H   0  0  0  0  0  0
   21.5244   45.2938   -4.8400 H   0  0  0  0  0  0
   20.3962   46.0440   -8.9365 H   0  0  0  0  0  0
   22.8502   42.6397   -7.9408 H   0  0  0  0  0  0
   21.3470   41.9575   -9.3038 H   0  0  0  0  0  0
   20.1376   40.0693  -12.9552 H   0  0  0  0  0  0
   18.4652   40.3983  -11.3634 H   0  0  0  0  0  0
   18.9033   41.6431  -10.2050 H   0  0  0  0  0  0
   16.9032   41.9843  -11.1387 H   0  0  0  0  0  0
   22.0312   39.7250  -12.0141 H   0  0  0  0  0  0
   22.9660   40.3777  -10.7275 H   0  0  0  0  0  0
   22.2173   40.3676   -8.3893 H   0  0  0  0  0  0
   18.9355   37.7514   -7.3632 H   0  0  0  0  0  0
   18.5347   37.3269   -9.7693 H   0  0  0  0  0  0
   19.9311   38.4411  -11.4827 H   0  0  0  0  0  0
   22.7144   39.9640   -6.1564 H   0  0  0  0  0  0
   21.4465   41.1866   -6.3485 H   0  0  0  0  0  0
   20.5609   40.6523   -4.0874 H   0  0  0  0  0  0
   21.7559   39.3991   -3.9034 H   0  0  0  0  0  0
   22.4555   41.3123   -2.6307 H   0  0  0  0  0  0
   23.6000   41.0759   -3.9176 H   0  0  0  0  0  0
   21.2914   43.0712   -4.0891 H   0  0  0  0  0  0
   22.8602   43.5083   -3.4292 H   0  0  0  0  0  0
  1  2  1  0  0  0
  1 35  1  0  0  0
  1 36  1  0  0  0
  1 37  1  0  0  0
  2  3  1  0  0  0
  2  4  1  0  0  0
  3 38  1  0  0  0
  3 39  1  0  0  0
  3 40  1  0  0  0
  4  5  2  0  0  0
  4  6  1  0  0  0
  6  7  1  0  0  0
  6  8  2  0  0  0
  7 11  2  0  0  0
  7 41  1  0  0  0
  8  9  1  0  0  0
  8 42  1  0  0  0
  9 10  2  0  0  0
  9 12  1  0  0  0
 10 11  1  0  0  0
 10 43  1  0  0  0
 11 32  1  0  0  0
 12 13  2  0  0  0
 12 14  1  0  0  0
 14 15  1  0  0  0
 14 44  1  0  0  0
 15 33  1  0  0  0
 15 16  1  0  0  0
 15 20  1  0  0  0
 16 34  1  0  0  0
 16 17  1  0  0  0
 16 18  1  0  0  0
 17 45  1  0  0  0
 18 19  1  0  0  0
 18 46  1  0  0  0
 18 47  1  0  0  0
 19 48  1  0  0  0
 20 21  1  0  0  0
 20 49  1  0  0  0
 20 50  1  0  0  0
 21 26  1  0  0  0
 21 22  2  0  0  0
 22 23  1  0  0  0
 22 51  1  0  0  0
 23 24  2  0  0  0
 23 27  1  0  0  0
 24 25  1  0  0  0
 24 52  1  0  0  0
 25 26  2  0  0  0
 25 53  1  0  0  0
 26 54  1  0  0  0
 27 28  1  0  0  0
 28 29  1  0  0  0
 28 55  1  0  0  0
 28 56  1  0  0  0
 29 30  1  0  0  0
 29 57  1  0  0  0
 29 58  1  0  0  0
 30 31  1  0  0  0
 30 59  1  0  0  0
 30 60  1  0  0  0
 31 32  1  0  0  0
 31 61  1  0  0  0
 31 62  1  0  0  0
M  END
> <s_m_source_file>
BACE_17.smi

> <i_m_source_file_index>
1

> <i_lp_mmshare_version>
42013

> <i_f3d_flags>
0

> <s_epik_input>
W0NIM11OKFtDSDNdKUMoPU8pYyhbY0hdYzEyKVtjSF1jKFtjSF0xKU9bQ0gyXVtDSDJdW0NIMl1bQ0gyXU9jM1tjSF1jKFtjSF1bY0hdW2NIXTMpW0NIMl1bQ0BIXShbTkhdQzI9TylbQ0BASF0oW09IXSlbQ0gyXVtPSF0=

> <s_epik_cmdline>
J2VwaWtfcHl0aG9uJywgJy1waCcsICc3LjAnLCAnLXRuJywgJzgnLCAnLW1hJywgJzIwMCcsICctaW1hZScsICc8aW5maWxlLm1hZT4nLCAnLW9tYWUnLCAnPG91dGZpbGUubWFlPic=

> <r_lp_tautomer_probability>
1

> <r_epik_Ionization_Penalty>
  0.0000

> <r_epik_Ionization_Penalty_Charging>
  0.0000

> <r_epik_Ionization_Penalty_Neutral>
  0.0000

> <r_epik_State_Penalty>
 -0.0000

> <r_epik_Charging_Adjusted_Penalty>
0

> <i_epik_Tot_Q>
0

> <i_epik_Tot_abs_Q>
0

> <s_lp_Force_Field>
OPLS_2005

> <r_lp_Energy>
47.913

> <b_lp_Chiralities_Consistent>
1

> <s_lp_Variant>
BACE_17.smi:1-1

> <chiral flag>
1

> <version>
0

> <r_i_glide_lipo>
-0.567811

> <r_i_glide_hbond>
0

> <r_i_glide_metal>
-0

> <r_i_glide_rewards>
-0.490634

> <r_i_glide_erotb>
0.306172

> <r_i_glide_esite>
-0.00811059

> <chiral flag>
1

> <s_i_glide_gridfile>
second_dock_grid_2

> <i_i_glide_lignum>
34

> <i_i_glide_rotatable_bonds>
6

> <r_i_docking_score>
-5.08105

> <r_i_glide_ligand_efficiency>
-0.158783

> <r_i_glide_ligand_efficiency_sa>
-0.504104

> <r_i_glide_ligand_efficiency_ln>
-1.13779

> <r_glide_XP_GScore>
-5.08105

> <r_i_glide_gscore>
-5.08105

> <r_i_glide_evdw>
-36.0637

> <r_i_glide_ecoul>
-6.117

> <r_i_glide_energy>
-42.1807

> <r_i_glide_einternal>
6.96992

> <r_i_glide_emodel>
-52.1883

> <r_glide_XP_HBond>
-1.21716

> <i_i_glide_confnum>
1

> <i_i_glide_posenum>
13

> <r_i_glide_eff_state_penalty>
-0

> <i_glide_XP_PoseRank>
5

$$$$
BACE_17.smi:1
                    3D
 Structure written by MMmdl.
 62 64  0  0  1  0            999 V2000
   20.3784   48.2936   -8.4402 C   0  0  0  0  0  0
   19.5700   48.0720   -7.2373 N   0  0  0  0  0  0
   18.7953   49.2310   -6.7891 C   0  0  0  0  0  0
   19.4444   46.8831   -6.5995 C   0  0  0  0  0  0
   18.7214   46.7320   -5.6106 O   0  0  0  0  0  0
   20.2393   45.7069   -7.1024 C   0  0  0  0  0  0
   21.0711   44.9690   -6.2283 C   0  0  0  0  0  0
   20.0609   45.2572   -8.4299 C   0  0  0  0  0  0
   20.6623   44.0601   -8.8688 C   0  0  0  0  0  0
   21.5159   43.3567   -7.9964 C   0  0  0  0  0  0
   21.7123   43.7887   -6.6729 C   0  0  0  0  0  0
   20.3630   43.5041  -10.2271 C   0  0  0  0  0  0
   20.5130   44.1732  -11.2484 O   0  0  0  0  0  0
   19.9165   42.2382  -10.2011 N   0  0  0  0  0  0
   19.6237   41.3696  -11.3428 C   0  0  2  0  0  0
   18.0969   41.3688  -11.6433 C   0  0  1  0  0  0
   17.3935   40.9636  -10.4847 O   0  0  0  0  0  0
   17.5146   42.7527  -12.0072 C   0  0  0  0  0  0
   18.0601   43.2087  -13.2300 O   0  0  0  0  0  0
   20.1952   39.9625  -11.0160 C   0  0  0  0  0  0
   19.6059   39.3186   -9.7637 C   0  0  0  0  0  0
   20.1731   39.5757   -8.4950 C   0  0  0  0  0  0
   19.5913   39.0398   -7.3175 C   0  0  0  0  0  0
   18.4601   38.2092   -7.4383 C   0  0  0  0  0  0
   17.9117   37.9179   -8.7010 C   0  0  0  0  0  0
   18.4810   38.4730   -9.8612 C   0  0  0  0  0  0
   20.0497   39.2821   -6.0400 O   0  0  0  0  0  0
   21.0989   40.2246   -5.8663 C   0  0  0  0  0  0
   21.2135   40.5754   -4.3776 C   0  0  0  0  0  0
   22.4015   41.4914   -4.0171 C   0  0  0  0  0  0
   22.2366   42.9449   -4.4882 C   0  0  0  0  0  0
   22.5123   42.9988   -5.8813 O   0  0  0  0  0  0
   20.1498   41.7459  -12.2223 H   0  0  0  0  0  0
   17.8877   40.6528  -12.4399 H   0  0  0  0  0  0
   21.3831   48.6175   -8.1676 H   0  0  0  0  0  0
   19.9402   49.0665   -9.0730 H   0  0  0  0  0  0
   20.4567   47.3992   -9.0598 H   0  0  0  0  0  0
   17.7440   49.1112   -7.0589 H   0  0  0  0  0  0
   19.1545   50.1614   -7.2315 H   0  0  0  0  0  0
   18.8598   49.3502   -5.7057 H   0  0  0  0  0  0
   21.1933   45.3044   -5.2090 H   0  0  0  0  0  0
   19.3947   45.7925   -9.0921 H   0  0  0  0  0  0
   21.9969   42.4471   -8.3260 H   0  0  0  0  0  0
   19.7728   41.8325   -9.2881 H   0  0  0  0  0  0
   17.6713   41.5339   -9.7775 H   0  0  0  0  0  0
   16.4274   42.7099  -12.0809 H   0  0  0  0  0  0
   17.7500   43.5051  -11.2573 H   0  0  0  0  0  0
   18.9867   43.3928  -13.0865 H   0  0  0  0  0  0
   20.0735   39.2853  -11.8604 H   0  0  0  0  0  0
   21.2746   40.0417  -10.8788 H   0  0  0  0  0  0
   21.0482   40.2049   -8.4442 H   0  0  0  0  0  0
   18.0051   37.7975   -6.5493 H   0  0  0  0  0  0
   17.0439   37.2786   -8.7796 H   0  0  0  0  0  0
   18.0349   38.2555  -10.8204 H   0  0  0  0  0  0
   22.0368   39.8122   -6.2406 H   0  0  0  0  0  0
   20.8697   41.1315   -6.4215 H   0  0  0  0  0  0
   20.2811   41.0377   -4.0549 H   0  0  0  0  0  0
   21.2995   39.6547   -3.8041 H   0  0  0  0  0  0
   22.5038   41.4982   -2.9313 H   0  0  0  0  0  0
   23.3351   41.0739   -4.3954 H   0  0  0  0  0  0
   21.2336   43.2860   -4.2295 H   0  0  0  0  0  0
   22.9453   43.5935   -3.9723 H   0  0  0  0  0  0
  1  2  1  0  0  0
  1 35  1  0  0  0
  1 36  1  0  0  0
  1 37  1  0  0  0
  2  3  1  0  0  0
  2  4  1  0  0  0
  3 38  1  0  0  0
  3 39  1  0  0  0
  3 40  1  0  0  0
  4  5  2  0  0  0
  4  6  1  0  0  0
  6  7  1  0  0  0
  6  8  2  0  0  0
  7 11  2  0  0  0
  7 41  1  0  0  0
  8  9  1  0  0  0
  8 42  1  0  0  0
  9 10  2  0  0  0
  9 12  1  0  0  0
 10 11  1  0  0  0
 10 43  1  0  0  0
 11 32  1  0  0  0
 12 13  2  0  0  0
 12 14  1  0  0  0
 14 15  1  0  0  0
 14 44  1  0  0  0
 15 33  1  0  0  0
 15 16  1  0  0  0
 15 20  1  0  0  0
 16 34  1  0  0  0
 16 17  1  0  0  0
 16 18  1  0  0  0
 17 45  1  0  0  0
 18 19  1  0  0  0
 18 46  1  0  0  0
 18 47  1  0  0  0
 19 48  1  0  0  0
 20 21  1  0  0  0
 20 49  1  0  0  0
 20 50  1  0  0  0
 21 26  1  0  0  0
 21 22  2  0  0  0
 22 23  1  0  0  0
 22 51  1  0  0  0
 23 24  2  0  0  0
 23 27  1  0  0  0
 24 25  1  0  0  0
 24 52  1  0  0  0
 25 26  2  0  0  0
 25 53  1  0  0  0
 26 54  1  0  0  0
 27 28  1  0  0  0
 28 29  1  0  0  0
 28 55  1  0  0  0
 28 56  1  0  0  0
 29 30  1  0  0  0
 29 57  1  0  0  0
 29 58  1  0  0  0
 30 31  1  0  0  0
 30 59  1  0  0  0
 30 60  1  0  0  0
 31 32  1  0  0  0
 31 61  1  0  0  0
 31 62  1  0  0  0
M  END
> <s_m_source_file>
BACE_17.smi

> <i_m_source_file_index>
1

> <i_lp_mmshare_version>
42013

> <i_f3d_flags>
0

> <s_epik_input>
W0NIM11OKFtDSDNdKUMoPU8pYyhbY0hdYzEyKVtjSF1jKFtjSF0xKU9bQ0gyXVtDSDJdW0NIMl1bQ0gyXU9jM1tjSF1jKFtjSF1bY0hdW2NIXTMpW0NIMl1bQ0BIXShbTkhdQzI9TylbQ0BASF0oW09IXSlbQ0gyXVtPSF0=

> <s_epik_cmdline>
J2VwaWtfcHl0aG9uJywgJy1waCcsICc3LjAnLCAnLXRuJywgJzgnLCAnLW1hJywgJzIwMCcsICctaW1hZScsICc8aW5maWxlLm1hZT4nLCAnLW9tYWUnLCAnPG91dGZpbGUubWFlPic=

> <r_lp_tautomer_probability>
1

> <r_epik_Ionization_Penalty>
  0.0000

> <r_epik_Ionization_Penalty_Charging>
  0.0000

> <r_epik_Ionization_Penalty_Neutral>
  0.0000

> <r_epik_State_Penalty>
 -0.0000

> <r_epik_Charging_Adjusted_Penalty>
0

> <i_epik_Tot_Q>
0

> <i_epik_Tot_abs_Q>
0

> <s_lp_Force_Field>
OPLS_2005

> <r_lp_Energy>
47.913

> <b_lp_Chiralities_Consistent>
1

> <s_lp_Variant>
BACE_17.smi:1-1

> <chiral flag>
1

> <version>
0

> <r_i_glide_lipo>
-0.567811

> <r_i_glide_hbond>
0

> <r_i_glide_metal>
-0

> <r_i_glide_rewards>
-0.490634

> <r_i_glide_erotb>
0.306172

> <r_i_glide_esite>
-0.00811059

> <chiral flag>
1

> <s_i_glide_gridfile>
second_dock_grid_2

> <i_i_glide_lignum>
34

> <i_i_glide_rotatable_bonds>
6

> <r_i_docking_score>
-4.50081

> <r_i_glide_ligand_efficiency>
-0.14065

> <r_i_glide_ligand_efficiency_sa>
-0.446537

> <r_i_glide_ligand_efficiency_ln>
-1.00785

> <r_glide_XP_GScore>
-4.50081

> <r_i_glide_gscore>
-4.50081

> <r_i_glide_evdw>
-34.8373

> <r_i_glide_ecoul>
-5.56112

> <r_i_glide_energy>
-40.3984

> <r_i_glide_einternal>
5.14518

> <r_i_glide_emodel>
-54.1525

> <r_glide_XP_HBond>
-1.21716

> <i_i_glide_confnum>
1

> <i_i_glide_posenum>
6

> <r_i_glide_eff_state_penalty>
-0

> <i_glide_XP_PoseRank>
6

$$$$
BACE_17.smi:1
                    3D
 Structure written by MMmdl.
 62 64  0  0  1  0            999 V2000
   18.4203   49.2357   -7.1675 C   0  0  0  0  0  0
   19.3881   48.1402   -7.2789 N   0  0  0  0  0  0
   20.5118   48.4376   -8.1721 C   0  0  0  0  0  0
   19.2711   47.0026   -6.5468 C   0  0  0  0  0  0
   18.4601   46.8857   -5.6268 O   0  0  0  0  0  0
   20.1665   45.8372   -6.8808 C   0  0  0  0  0  0
   20.8792   45.1682   -5.8575 C   0  0  0  0  0  0
   20.2452   45.3478   -8.2058 C   0  0  0  0  0  0
   21.0688   44.2470   -8.5182 C   0  0  0  0  0  0
   21.8280   43.6421   -7.4976 C   0  0  0  0  0  0
   21.7101   44.0634   -6.1630 C   0  0  0  0  0  0
   21.1391   43.7184   -9.9164 C   0  0  0  0  0  0
   21.1487   44.4712  -10.8912 O   0  0  0  0  0  0
   21.1117   42.3807   -9.9931 N   0  0  0  0  0  0
   21.1689   41.5641  -11.1987 C   0  0  2  0  0  0
   19.8974   41.7390  -12.0846 C   0  0  1  0  0  0
   20.0603   40.9500  -13.2398 O   0  0  0  0  0  0
   18.4993   41.4650  -11.4808 C   0  0  0  0  0  0
   18.1232   42.4461  -10.5359 O   0  0  0  0  0  0
   21.5743   40.1020  -10.8447 C   0  0  0  0  0  0
   20.7436   39.4403   -9.7526 C   0  0  0  0  0  0
   20.9844   39.7380   -8.3936 C   0  0  0  0  0  0
   20.1585   39.1950   -7.3792 C   0  0  0  0  0  0
   19.1098   38.3294   -7.7461 C   0  0  0  0  0  0
   18.9024   37.9817   -9.0938 C   0  0  0  0  0  0
   19.7256   38.5265  -10.0946 C   0  0  0  0  0  0
   20.3065   39.4639   -6.0371 O   0  0  0  0  0  0
   21.2087   40.4883   -5.6423 C   0  0  0  0  0  0
   21.0783   40.7121   -4.1279 C   0  0  0  0  0  0
   22.0907   41.7070   -3.5205 C   0  0  0  0  0  0
   21.8973   43.1747   -3.9404 C   0  0  0  0  0  0
   22.4409   43.3545   -5.2403 O   0  0  0  0  0  0
   21.9965   41.9540  -11.7949 H   0  0  0  0  0  0
   19.8688   42.7658  -12.4399 H   0  0  0  0  0  0
   17.9787   49.4334   -8.1452 H   0  0  0  0  0  0
   18.9187   50.1472   -6.8370 H   0  0  0  0  0  0
   17.6028   49.0365   -6.4749 H   0  0  0  0  0  0
   21.4586   48.0958   -7.7500 H   0  0  0  0  0  0
   20.6124   49.5100   -8.3506 H   0  0  0  0  0  0
   20.3769   47.9632   -9.1456 H   0  0  0  0  0  0
   20.7991   45.5183   -4.8403 H   0  0  0  0  0  0
   19.6566   45.8032   -8.9893 H   0  0  0  0  0  0
   22.4822   42.8117   -7.7219 H   0  0  0  0  0  0
   21.0077   41.8783   -9.1235 H   0  0  0  0  0  0
   20.0534   40.0394  -12.9822 H   0  0  0  0  0  0
   17.7547   41.4888  -12.2758 H   0  0  0  0  0  0
   18.4197   40.4845  -11.0260 H   0  0  0  0  0  0
   18.2243   43.3032  -10.9220 H   0  0  0  0  0  0
   21.5802   39.4726  -11.7348 H   0  0  0  0  0  0
   22.6097   40.1015  -10.5008 H   0  0  0  0  0  0
   21.7973   40.4026   -8.1481 H   0  0  0  0  0  0
   18.4626   37.9223   -6.9825 H   0  0  0  0  0  0
   18.1022   37.3057   -9.3575 H   0  0  0  0  0  0
   19.5456   38.2664  -11.1276 H   0  0  0  0  0  0
   22.2338   40.2119   -5.8933 H   0  0  0  0  0  0
   20.9544   41.4056   -6.1686 H   0  0  0  0  0  0
   20.0591   41.0266   -3.8913 H   0  0  0  0  0  0
   21.2158   39.7499   -3.6352 H   0  0  0  0  0  0
   21.9899   41.6549   -2.4385 H   0  0  0  0  0  0
   23.1116   41.3877   -3.7377 H   0  0  0  0  0  0
   20.8404   43.4374   -3.8631 H   0  0  0  0  0  0
   22.4545   43.8212   -3.2604 H   0  0  0  0  0  0
  1  2  1  0  0  0
  1 35  1  0  0  0
  1 36  1  0  0  0
  1 37  1  0  0  0
  2  3  1  0  0  0
  2  4  1  0  0  0
  3 38  1  0  0  0
  3 39  1  0  0  0
  3 40  1  0  0  0
  4  5  2  0  0  0
  4  6  1  0  0  0
  6  7  1  0  0  0
  6  8  2  0  0  0
  7 11  2  0  0  0
  7 41  1  0  0  0
  8  9  1  0  0  0
  8 42  1  0  0  0
  9 10  2  0  0  0
  9 12  1  0  0  0
 10 11  1  0  0  0
 10 43  1  0  0  0
 11 32  1  0  0  0
 12 13  2  0  0  0
 12 14  1  0  0  0
 14 15  1  0  0  0
 14 44  1  0  0  0
 15 33  1  0  0  0
 15 16  1  0  0  0
 15 20  1  0  0  0
 16 34  1  0  0  0
 16 17  1  0  0  0
 16 18  1  0  0  0
 17 45  1  0  0  0
 18 19  1  0  0  0
 18 46  1  0  0  0
 18 47  1  0  0  0
 19 48  1  0  0  0
 20 21  1  0  0  0
 20 49  1  0  0  0
 20 50  1  0  0  0
 21 26  1  0  0  0
 21 22  2  0  0  0
 22 23  1  0  0  0
 22 51  1  0  0  0
 23 24  2  0  0  0
 23 27  1  0  0  0
 24 25  1  0  0  0
 24 52  1  0  0  0
 25 26  2  0  0  0
 25 53  1  0  0  0
 26 54  1  0  0  0
 27 28  1  0  0  0
 28 29  1  0  0  0
 28 55  1  0  0  0
 28 56  1  0  0  0
 29 30  1  0  0  0
 29 57  1  0  0  0
 29 58  1  0  0  0
 30 31  1  0  0  0
 30 59  1  0  0  0
 30 60  1  0  0  0
 31 32  1  0  0  0
 31 61  1  0  0  0
 31 62  1  0  0  0
M  END
> <s_m_source_file>
BACE_17.smi

> <i_m_source_file_index>
1

> <i_lp_mmshare_version>
42013

> <i_f3d_flags>
0

> <s_epik_input>
W0NIM11OKFtDSDNdKUMoPU8pYyhbY0hdYzEyKVtjSF1jKFtjSF0xKU9bQ0gyXVtDSDJdW0NIMl1bQ0gyXU9jM1tjSF1jKFtjSF1bY0hdW2NIXTMpW0NIMl1bQ0BIXShbTkhdQzI9TylbQ0BASF0oW09IXSlbQ0gyXVtPSF0=

> <s_epik_cmdline>
J2VwaWtfcHl0aG9uJywgJy1waCcsICc3LjAnLCAnLXRuJywgJzgnLCAnLW1hJywgJzIwMCcsICctaW1hZScsICc8aW5maWxlLm1hZT4nLCAnLW9tYWUnLCAnPG91dGZpbGUubWFlPic=

> <r_lp_tautomer_probability>
1

> <r_epik_Ionization_Penalty>
  0.0000

> <r_epik_Ionization_Penalty_Charging>
  0.0000

> <r_epik_Ionization_Penalty_Neutral>
  0.0000

> <r_epik_State_Penalty>
 -0.0000

> <r_epik_Charging_Adjusted_Penalty>
0

> <i_epik_Tot_Q>
0

> <i_epik_Tot_abs_Q>
0

> <s_lp_Force_Field>
OPLS_2005

> <r_lp_Energy>
47.913

> <b_lp_Chiralities_Consistent>
1

> <s_lp_Variant>
BACE_17.smi:1-1

> <chiral flag>
1

> <version>
0

> <r_i_glide_lipo>
-0.567811

> <r_i_glide_hbond>
0

> <r_i_glide_metal>
-0

> <r_i_glide_rewards>
-0.490634

> <r_i_glide_erotb>
0.306172

> <r_i_glide_esite>
-0.00811059

> <chiral flag>
1

> <s_i_glide_gridfile>
second_dock_grid_2

> <i_i_glide_lignum>
34

> <i_i_glide_rotatable_bonds>
6

> <r_i_docking_score>
-4.38396

> <r_i_glide_ligand_efficiency>
-0.136999

> <r_i_glide_ligand_efficiency_sa>
-0.434943

> <r_i_glide_ligand_efficiency_ln>
-0.981687

> <r_glide_XP_GScore>
-4.38396

> <r_i_glide_gscore>
-4.38396

> <r_i_glide_evdw>
-35.331

> <r_i_glide_ecoul>
-5.81307

> <r_i_glide_energy>
-41.1441

> <r_i_glide_einternal>
3.08989

> <r_i_glide_emodel>
-53.9881

> <r_glide_XP_HBond>
-1.21716

> <i_i_glide_confnum>
1

> <i_i_glide_posenum>
9

> <r_i_glide_eff_state_penalty>
-0

> <i_glide_XP_PoseRank>
7

$$$$
BACE_17.smi:1
                    3D
 Structure written by MMmdl.
 62 64  0  0  1  0            999 V2000
   17.5622   45.9379   -7.6882 C   0  0  0  0  0  0
   18.2983   47.0576   -7.0902 N   0  0  0  0  0  0
   17.5044   48.2767   -6.9230 C   0  0  0  0  0  0
   19.5700   46.9813   -6.6233 C   0  0  0  0  0  0
   20.0852   47.8755   -5.9513 O   0  0  0  0  0  0
   20.3800   45.7523   -6.9318 C   0  0  0  0  0  0
   21.0288   45.0576   -5.8852 C   0  0  0  0  0  0
   20.5487   45.3123   -8.2650 C   0  0  0  0  0  0
   21.3079   44.1584   -8.5452 C   0  0  0  0  0  0
   21.9711   43.4951   -7.4939 C   0  0  0  0  0  0
   21.8220   43.9204   -6.1643 C   0  0  0  0  0  0
   21.3957   43.6246   -9.9401 C   0  0  0  0  0  0
   21.4848   44.3695  -10.9156 O   0  0  0  0  0  0
   21.2694   42.2926  -10.0122 N   0  0  0  0  0  0
   21.2544   41.4722  -11.2149 C   0  0  2  0  0  0
   19.9796   41.7308  -12.0751 C   0  0  1  0  0  0
   20.0600   40.9461  -13.2398 O   0  0  0  0  0  0
   18.5845   41.5438  -11.4336 C   0  0  0  0  0  0
   18.2870   42.5626  -10.5011 O   0  0  0  0  0  0
   21.5648   39.9880  -10.8601 C   0  0  0  0  0  0
   20.7050   39.3662   -9.7650 C   0  0  0  0  0  0
   20.9572   39.6472   -8.4026 C   0  0  0  0  0  0
   20.1291   39.1075   -7.3865 C   0  0  0  0  0  0
   19.0614   38.2645   -7.7561 C   0  0  0  0  0  0
   18.8321   37.9441   -9.1071 C   0  0  0  0  0  0
   19.6587   38.4847  -10.1080 C   0  0  0  0  0  0
   20.2964   39.3499   -6.0400 O   0  0  0  0  0  0
   21.2051   40.3656   -5.6354 C   0  0  0  0  0  0
   21.0858   40.5547   -4.1140 C   0  0  0  0  0  0
   22.0576   41.5750   -3.4863 C   0  0  0  0  0  0
   21.8511   43.0282   -3.9432 C   0  0  0  0  0  0
   22.4738   43.1784   -5.2100 O   0  0  0  0  0  0
   22.0967   41.8041  -11.8263 H   0  0  0  0  0  0
   20.0100   42.7554  -12.4354 H   0  0  0  0  0  0
   17.8176   45.8241   -8.7415 H   0  0  0  0  0  0
   16.4834   46.0904   -7.6392 H   0  0  0  0  0  0
   17.7710   44.9960   -7.1773 H   0  0  0  0  0  0
   16.8719   48.1872   -6.0401 H   0  0  0  0  0  0
   16.8605   48.4393   -7.7883 H   0  0  0  0  0  0
   18.1166   49.1735   -6.8134 H   0  0  0  0  0  0
   20.9197   45.4051   -4.8686 H   0  0  0  0  0  0
   20.0753   45.8445   -9.0775 H   0  0  0  0  0  0
   22.5801   42.6248   -7.6929 H   0  0  0  0  0  0
   21.1121   41.8024   -9.1439 H   0  0  0  0  0  0
   19.9651   40.0375  -12.9933 H   0  0  0  0  0  0
   17.8194   41.5950  -12.2091 H   0  0  0  0  0  0
   18.4653   40.5757  -10.9594 H   0  0  0  0  0  0
   18.4337   43.4021  -10.9090 H   0  0  0  0  0  0
   21.5273   39.3627  -11.7525 H   0  0  0  0  0  0
   22.6011   39.9246  -10.5232 H   0  0  0  0  0  0
   21.7907   40.2848   -8.1523 H   0  0  0  0  0  0
   18.4162   37.8505   -6.9932 H   0  0  0  0  0  0
   18.0166   37.2875   -9.3734 H   0  0  0  0  0  0
   19.4663   38.2391  -11.1423 H   0  0  0  0  0  0
   22.2274   40.0935   -5.9012 H   0  0  0  0  0  0
   20.9451   41.2913   -6.1444 H   0  0  0  0  0  0
   20.0604   40.8287   -3.8654 H   0  0  0  0  0  0
   21.2639   39.5916   -3.6403 H   0  0  0  0  0  0
   21.9172   41.5403   -2.4065 H   0  0  0  0  0  0
   23.0907   41.2716   -3.6604 H   0  0  0  0  0  0
   20.7845   43.2604   -3.9507 H   0  0  0  0  0  0
   22.3331   43.7127   -3.2447 H   0  0  0  0  0  0
  1  2  1  0  0  0
  1 35  1  0  0  0
  1 36  1  0  0  0
  1 37  1  0  0  0
  2  3  1  0  0  0
  2  4  1  0  0  0
  3 38  1  0  0  0
  3 39  1  0  0  0
  3 40  1  0  0  0
  4  5  2  0  0  0
  4  6  1  0  0  0
  6  7  1  0  0  0
  6  8  2  0  0  0
  7 11  2  0  0  0
  7 41  1  0  0  0
  8  9  1  0  0  0
  8 42  1  0  0  0
  9 10  2  0  0  0
  9 12  1  0  0  0
 10 11  1  0  0  0
 10 43  1  0  0  0
 11 32  1  0  0  0
 12 13  2  0  0  0
 12 14  1  0  0  0
 14 15  1  0  0  0
 14 44  1  0  0  0
 15 33  1  0  0  0
 15 16  1  0  0  0
 15 20  1  0  0  0
 16 34  1  0  0  0
 16 17  1  0  0  0
 16 18  1  0  0  0
 17 45  1  0  0  0
 18 19  1  0  0  0
 18 46  1  0  0  0
 18 47  1  0  0  0
 19 48  1  0  0  0
 20 21  1  0  0  0
 20 49  1  0  0  0
 20 50  1  0  0  0
 21 26  1  0  0  0
 21 22  2  0  0  0
 22 23  1  0  0  0
 22 51  1  0  0  0
 23 24  2  0  0  0
 23 27  1  0  0  0
 24 25  1  0  0  0
 24 52  1  0  0  0
 25 26  2  0  0  0
 25 53  1  0  0  0
 26 54  1  0  0  0
 27 28  1  0  0  0
 28 29  1  0  0  0
 28 55  1  0  0  0
 28 56  1  0  0  0
 29 30  1  0  0  0
 29 57  1  0  0  0
 29 58  1  0  0  0
 30 31  1  0  0  0
 30 59  1  0  0  0
 30 60  1  0  0  0
 31 32  1  0  0  0
 31 61  1  0  0  0
 31 62  1  0  0  0
M  END
> <s_m_source_file>
BACE_17.smi

> <i_m_source_file_index>
1

> <i_lp_mmshare_version>
42013

> <i_f3d_flags>
0

> <s_epik_input>
W0NIM11OKFtDSDNdKUMoPU8pYyhbY0hdYzEyKVtjSF1jKFtjSF0xKU9bQ0gyXVtDSDJdW0NIMl1bQ0gyXU9jM1tjSF1jKFtjSF1bY0hdW2NIXTMpW0NIMl1bQ0BIXShbTkhdQzI9TylbQ0BASF0oW09IXSlbQ0gyXVtPSF0=

> <s_epik_cmdline>
J2VwaWtfcHl0aG9uJywgJy1waCcsICc3LjAnLCAnLXRuJywgJzgnLCAnLW1hJywgJzIwMCcsICctaW1hZScsICc8aW5maWxlLm1hZT4nLCAnLW9tYWUnLCAnPG91dGZpbGUubWFlPic=

> <r_lp_tautomer_probability>
1

> <r_epik_Ionization_Penalty>
  0.0000

> <r_epik_Ionization_Penalty_Charging>
  0.0000

> <r_epik_Ionization_Penalty_Neutral>
  0.0000

> <r_epik_State_Penalty>
 -0.0000

> <r_epik_Charging_Adjusted_Penalty>
0

> <i_epik_Tot_Q>
0

> <i_epik_Tot_abs_Q>
0

> <s_lp_Force_Field>
OPLS_2005

> <r_lp_Energy>
47.913

> <b_lp_Chiralities_Consistent>
1

> <s_lp_Variant>
BACE_17.smi:1-1

> <chiral flag>
1

> <version>
0

> <r_i_glide_lipo>
-0.567811

> <r_i_glide_hbond>
0

> <r_i_glide_metal>
-0

> <r_i_glide_rewards>
-0.490634

> <r_i_glide_erotb>
0.306172

> <r_i_glide_esite>
-0.00811059

> <chiral flag>
1

> <s_i_glide_gridfile>
second_dock_grid_2

> <i_i_glide_lignum>
34

> <i_i_glide_rotatable_bonds>
6

> <r_i_docking_score>
-3.87889

> <r_i_glide_ligand_efficiency>
-0.121215

> <r_i_glide_ligand_efficiency_sa>
-0.384834

> <r_i_glide_ligand_efficiency_ln>
-0.868588

> <r_glide_XP_GScore>
-3.87889

> <r_i_glide_gscore>
-3.87889

> <r_i_glide_evdw>
-35.8972

> <r_i_glide_ecoul>
-3.7169

> <r_i_glide_energy>
-39.614

> <r_i_glide_einternal>
5.62912

> <r_i_glide_emodel>
-51.2415

> <r_glide_XP_HBond>
-1.21716

> <i_i_glide_confnum>
1

> <i_i_glide_posenum>
10

> <r_i_glide_eff_state_penalty>
-0

> <i_glide_XP_PoseRank>
8

$$$$
BACE_17.smi:1
                    3D
 Structure written by MMmdl.
 62 64  0  0  1  0            999 V2000
   21.6157   43.6959   -6.6065 C   0  0  0  0  0  0
   20.9672   44.9427   -6.1797 N   0  0  0  0  0  0
   21.7902   45.7379   -5.2704 C   0  0  0  0  0  0
   19.7200   45.3308   -6.5523 C   0  0  0  0  0  0
   19.0703   46.1895   -5.9486 O   0  0  0  0  0  0
   19.1280   44.6847   -7.7747 C   0  0  0  0  0  0
   19.8842   44.5765   -8.9655 C   0  0  0  0  0  0
   17.8113   44.1788   -7.7414 C   0  0  0  0  0  0
   17.2940   43.4931   -8.8580 C   0  0  0  0  0  0
   18.0780   43.3495  -10.0217 C   0  0  0  0  0  0
   19.3861   43.8625  -10.0792 C   0  0  0  0  0  0
   15.9635   42.8222   -8.7801 C   0  0  0  0  0  0
   14.9180   43.4531   -8.6244 O   0  0  0  0  0  0
   16.0645   41.4937   -8.8908 N   0  0  0  0  0  0
   15.0052   40.4971   -8.8505 C   0  0  2  0  0  0
   14.8550   39.8872   -7.4170 C   0  0  1  0  0  0
   14.4570   38.5477   -7.4380 O   0  0  0  0  0  0
   16.0432   39.9243   -6.4511 C   0  0  0  0  0  0
   17.0369   38.9503   -6.7411 O   0  0  0  0  0  0
   15.2509   39.4852  -10.0006 C   0  0  0  0  0  0
   16.5714   38.7406   -9.8961 C   0  0  0  0  0  0
   17.7841   39.3483  -10.2968 C   0  0  0  0  0  0
   19.0190   38.6923  -10.0709 C   0  0  0  0  0  0
   19.0067   37.4298   -9.4550 C   0  0  0  0  0  0
   17.8014   36.7892   -9.1214 C   0  0  0  0  0  0
   16.5828   37.4391   -9.3557 C   0  0  0  0  0  0
   20.2571   39.2009  -10.3980 O   0  0  0  0  0  0
   20.3265   40.5083  -10.9409 C   0  0  0  0  0  0
   21.8029   40.9115  -11.0575 C   0  0  0  0  0  0
   22.0527   42.2296  -11.8102 C   0  0  0  0  0  0
   21.5380   43.4903  -11.0934 C   0  0  0  0  0  0
   20.1194   43.5969  -11.2163 O   0  0  0  0  0  0
   14.0599   40.9863   -9.0897 H   0  0  0  0  0  0
   14.0639   40.4411   -6.9166 H   0  0  0  0  0  0
   22.2258   43.2728   -5.8063 H   0  0  0  0  0  0
   22.2736   43.8784   -7.4566 H   0  0  0  0  0  0
   20.8963   42.9223   -6.8847 H   0  0  0  0  0  0
   22.6553   46.1290   -5.8060 H   0  0  0  0  0  0
   22.1614   45.1180   -4.4552 H   0  0  0  0  0  0
   21.2629   46.5890   -4.8404 H   0  0  0  0  0  0
   20.8713   45.0126   -8.9981 H   0  0  0  0  0  0
   17.2190   44.2534   -6.8398 H   0  0  0  0  0  0
   17.6936   42.7970  -10.8670 H   0  0  0  0  0  0
   16.9987   41.1134   -8.9457 H   0  0  0  0  0  0
   14.5095   38.2052   -6.5517 H   0  0  0  0  0  0
   16.4591   40.9245   -6.4414 H   0  0  0  0  0  0
   15.6601   39.7494   -5.4471 H   0  0  0  0  0  0
   16.6440   38.0857   -6.6406 H   0  0  0  0  0  0
   14.4323   38.7676  -10.0384 H   0  0  0  0  0  0
   15.2251   40.0043  -10.9591 H   0  0  0  0  0  0
   17.7497   40.3252  -10.7513 H   0  0  0  0  0  0
   19.9479   36.9499   -9.2402 H   0  0  0  0  0  0
   17.8100   35.8159   -8.6546 H   0  0  0  0  0  0
   15.6629   36.9564   -9.0623 H   0  0  0  0  0  0
   19.8406   40.5359  -11.9174 H   0  0  0  0  0  0
   19.8139   41.1980  -10.2744 H   0  0  0  0  0  0
   22.2495   40.9574  -10.0637 H   0  0  0  0  0  0
   22.3363   40.1246  -11.5876 H   0  0  0  0  0  0
   23.1310   42.3400  -11.9284 H   0  0  0  0  0  0
   21.6599   42.1502  -12.8220 H   0  0  0  0  0  0
   21.8953   43.4478  -10.0651 H   0  0  0  0  0  0
   21.9794   44.3784  -11.5454 H   0  0  0  0  0  0
  1  2  1  0  0  0
  1 35  1  0  0  0
  1 36  1  0  0  0
  1 37  1  0  0  0
  2  3  1  0  0  0
  2  4  1  0  0  0
  3 38  1  0  0  0
  3 39  1  0  0  0
  3 40  1  0  0  0
  4  5  2  0  0  0
  4  6  1  0  0  0
  6  7  1  0  0  0
  6  8  2  0  0  0
  7 11  2  0  0  0
  7 41  1  0  0  0
  8  9  1  0  0  0
  8 42  1  0  0  0
  9 10  2  0  0  0
  9 12  1  0  0  0
 10 11  1  0  0  0
 10 43  1  0  0  0
 11 32  1  0  0  0
 12 13  2  0  0  0
 12 14  1  0  0  0
 14 15  1  0  0  0
 14 44  1  0  0  0
 15 33  1  0  0  0
 15 16  1  0  0  0
 15 20  1  0  0  0
 16 34  1  0  0  0
 16 17  1  0  0  0
 16 18  1  0  0  0
 17 45  1  0  0  0
 18 19  1  0  0  0
 18 46  1  0  0  0
 18 47  1  0  0  0
 19 48  1  0  0  0
 20 21  1  0  0  0
 20 49  1  0  0  0
 20 50  1  0  0  0
 21 26  1  0  0  0
 21 22  2  0  0  0
 22 23  1  0  0  0
 22 51  1  0  0  0
 23 24  2  0  0  0
 23 27  1  0  0  0
 24 25  1  0  0  0
 24 52  1  0  0  0
 25 26  2  0  0  0
 25 53  1  0  0  0
 26 54  1  0  0  0
 27 28  1  0  0  0
 28 29  1  0  0  0
 28 55  1  0  0  0
 28 56  1  0  0  0
 29 30  1  0  0  0
 29 57  1  0  0  0
 29 58  1  0  0  0
 30 31  1  0  0  0
 30 59  1  0  0  0
 30 60  1  0  0  0
 31 32  1  0  0  0
 31 61  1  0  0  0
 31 62  1  0  0  0
M  END
> <s_m_source_file>
BACE_17.smi

> <i_m_source_file_index>
1

> <i_lp_mmshare_version>
42013

> <i_f3d_flags>
0

> <s_epik_input>
W0NIM11OKFtDSDNdKUMoPU8pYyhbY0hdYzEyKVtjSF1jKFtjSF0xKU9bQ0gyXVtDSDJdW0NIMl1bQ0gyXU9jM1tjSF1jKFtjSF1bY0hdW2NIXTMpW0NIMl1bQ0BIXShbTkhdQzI9TylbQ0BASF0oW09IXSlbQ0gyXVtPSF0=

> <s_epik_cmdline>
J2VwaWtfcHl0aG9uJywgJy1waCcsICc3LjAnLCAnLXRuJywgJzgnLCAnLW1hJywgJzIwMCcsICctaW1hZScsICc8aW5maWxlLm1hZT4nLCAnLW9tYWUnLCAnPG91dGZpbGUubWFlPic=

> <r_lp_tautomer_probability>
1

> <r_epik_Ionization_Penalty>
  0.0000

> <r_epik_Ionization_Penalty_Charging>
  0.0000

> <r_epik_Ionization_Penalty_Neutral>
  0.0000

> <r_epik_State_Penalty>
 -0.0000

> <r_epik_Charging_Adjusted_Penalty>
0

> <i_epik_Tot_Q>
0

> <i_epik_Tot_abs_Q>
0

> <s_lp_Force_Field>
OPLS_2005

> <r_lp_Energy>
47.913

> <b_lp_Chiralities_Consistent>
1

> <s_lp_Variant>
BACE_17.smi:1-1

> <chiral flag>
1

> <version>
0

> <r_i_glide_lipo>
-0.567811

> <r_i_glide_hbond>
0

> <r_i_glide_metal>
-0

> <r_i_glide_rewards>
-0.490634

> <r_i_glide_erotb>
0.306172

> <r_i_glide_esite>
-0.00811059

> <chiral flag>
1

> <s_i_glide_gridfile>
second_dock_grid_2

> <i_i_glide_lignum>
34

> <i_i_glide_rotatable_bonds>
6

> <r_i_docking_score>
-3.68621

> <r_i_glide_ligand_efficiency>
-0.115194

> <r_i_glide_ligand_efficiency_sa>
-0.365718

> <r_i_glide_ligand_efficiency_ln>
-0.825443

> <r_glide_XP_GScore>
-3.68621

> <r_i_glide_gscore>
-3.68621

> <r_i_glide_evdw>
-32.8927

> <r_i_glide_ecoul>
-8.13761

> <r_i_glide_energy>
-41.0303

> <r_i_glide_einternal>
6.40259

> <r_i_glide_emodel>
-52.9891

> <r_glide_XP_HBond>
-1.21716

> <i_i_glide_confnum>
1

> <i_i_glide_posenum>
5

> <r_i_glide_eff_state_penalty>
-0

> <i_glide_XP_PoseRank>
9

$$$$
BACE_17.smi:1
                    3D
 Structure written by MMmdl.
 62 64  0  0  1  0            999 V2000
   19.7910   48.6678   -9.8358 C   0  0  0  0  0  0
   19.8820   47.2097   -9.9362 N   0  0  0  0  0  0
   19.1847   46.4754   -8.8740 C   0  0  0  0  0  0
   20.6542   46.6348  -10.8910 C   0  0  0  0  0  0
   21.3880   47.2861  -11.6347 O   0  0  0  0  0  0
   20.6150   45.1401  -11.0423 C   0  0  0  0  0  0
   21.8236   44.4077  -11.0452 C   0  0  0  0  0  0
   19.3892   44.4640  -11.2449 C   0  0  0  0  0  0
   19.3686   43.0629  -11.3953 C   0  0  0  0  0  0
   20.5798   42.3468  -11.4005 C   0  0  0  0  0  0
   21.8059   43.0053  -11.2191 C   0  0  0  0  0  0
   18.0828   42.3274  -11.5752 C   0  0  0  0  0  0
   17.2599   42.6823  -12.4188 O   0  0  0  0  0  0
   17.9463   41.2840  -10.7457 N   0  0  0  0  0  0
   16.9006   40.2644  -10.7397 C   0  0  2  0  0  0
   15.7020   40.6356   -9.8178 C   0  0  1  0  0  0
   16.1609   41.2591   -8.6309 O   0  0  0  0  0  0
   14.6831   41.5792  -10.4866 C   0  0  0  0  0  0
   14.0600   40.9500  -11.5916 O   0  0  0  0  0  0
   17.5205   38.8844  -10.4065 C   0  0  0  0  0  0
   18.3912   38.8515   -9.1603 C   0  0  0  0  0  0
   19.7796   39.1063   -9.2446 C   0  0  0  0  0  0
   20.5810   39.1048   -8.0757 C   0  0  0  0  0  0
   19.9741   38.8253   -6.8392 C   0  0  0  0  0  0
   18.5975   38.5497   -6.7507 C   0  0  0  0  0  0
   17.8071   38.5582   -7.9116 C   0  0  0  0  0  0
   21.9335   39.3650   -8.0538 O   0  0  0  0  0  0
   22.4957   40.0443   -9.1654 C   0  0  0  0  0  0
   23.8687   40.5972   -8.7538 C   0  0  0  0  0  0
   24.6603   41.2905   -9.8834 C   0  0  0  0  0  0
   24.0166   42.5847  -10.4079 C   0  0  0  0  0  0
   22.9276   42.2181  -11.2391 O   0  0  0  0  0  0
   16.5148   40.1706  -11.7512 H   0  0  0  0  0  0
   15.1768   39.7249   -9.5256 H   0  0  0  0  0  0
   20.6817   49.0672   -9.3496 H   0  0  0  0  0  0
   18.9192   48.9821   -9.2608 H   0  0  0  0  0  0
   19.7059   49.1312  -10.8208 H   0  0  0  0  0  0
   18.1879   46.1804   -9.2026 H   0  0  0  0  0  0
   19.0693   47.0853   -7.9771 H   0  0  0  0  0  0
   19.7273   45.5792   -8.5678 H   0  0  0  0  0  0
   22.7625   44.9289  -10.9247 H   0  0  0  0  0  0
   18.4606   45.0161  -11.2743 H   0  0  0  0  0  0
   20.5794   41.2761  -11.5453 H   0  0  0  0  0  0
   18.6610   41.1622  -10.0426 H   0  0  0  0  0  0
   15.5058   41.1667   -7.9523 H   0  0  0  0  0  0
   13.9040   41.8625   -9.7772 H   0  0  0  0  0  0
   15.1611   42.5017  -10.8138 H   0  0  0  0  0  0
   13.3981   40.3576  -11.2417 H   0  0  0  0  0  0
   16.7377   38.1299  -10.3195 H   0  0  0  0  0  0
   18.1432   38.5619  -11.2401 H   0  0  0  0  0  0
   20.2161   39.3042  -10.2114 H   0  0  0  0  0  0
   20.5777   38.8330   -5.9454 H   0  0  0  0  0  0
   18.1424   38.3349   -5.7942 H   0  0  0  0  0  0
   16.7495   38.3490   -7.8310 H   0  0  0  0  0  0
   22.5850   39.3687  -10.0176 H   0  0  0  0  0  0
   21.8431   40.8692   -9.4419 H   0  0  0  0  0  0
   23.7442   41.2885   -7.9197 H   0  0  0  0  0  0
   24.4601   39.7670   -8.3688 H   0  0  0  0  0  0
   25.6526   41.5321   -9.5028 H   0  0  0  0  0  0
   24.8228   40.5953  -10.7088 H   0  0  0  0  0  0
   23.7178   43.2115   -9.5660 H   0  0  0  0  0  0
   24.7325   43.1506  -11.0043 H   0  0  0  0  0  0
  1  2  1  0  0  0
  1 35  1  0  0  0
  1 36  1  0  0  0
  1 37  1  0  0  0
  2  3  1  0  0  0
  2  4  1  0  0  0
  3 38  1  0  0  0
  3 39  1  0  0  0
  3 40  1  0  0  0
  4  5  2  0  0  0
  4  6  1  0  0  0
  6  7  1  0  0  0
  6  8  2  0  0  0
  7 11  2  0  0  0
  7 41  1  0  0  0
  8  9  1  0  0  0
  8 42  1  0  0  0
  9 10  2  0  0  0
  9 12  1  0  0  0
 10 11  1  0  0  0
 10 43  1  0  0  0
 11 32  1  0  0  0
 12 13  2  0  0  0
 12 14  1  0  0  0
 14 15  1  0  0  0
 14 44  1  0  0  0
 15 33  1  0  0  0
 15 16  1  0  0  0
 15 20  1  0  0  0
 16 34  1  0  0  0
 16 17  1  0  0  0
 16 18  1  0  0  0
 17 45  1  0  0  0
 18 19  1  0  0  0
 18 46  1  0  0  0
 18 47  1  0  0  0
 19 48  1  0  0  0
 20 21  1  0  0  0
 20 49  1  0  0  0
 20 50  1  0  0  0
 21 26  1  0  0  0
 21 22  2  0  0  0
 22 23  1  0  0  0
 22 51  1  0  0  0
 23 24  2  0  0  0
 23 27  1  0  0  0
 24 25  1  0  0  0
 24 52  1  0  0  0
 25 26  2  0  0  0
 25 53  1  0  0  0
 26 54  1  0  0  0
 27 28  1  0  0  0
 28 29  1  0  0  0
 28 55  1  0  0  0
 28 56  1  0  0  0
 29 30  1  0  0  0
 29 57  1  0  0  0
 29 58  1  0  0  0
 30 31  1  0  0  0
 30 59  1  0  0  0
 30 60  1  0  0  0
 31 32  1  0  0  0
 31 61  1  0  0  0
 31 62  1  0  0  0
M  END
> <s_m_source_file>
BACE_17.smi

> <i_m_source_file_index>
1

> <i_lp_mmshare_version>
42013

> <i_f3d_flags>
0

> <s_epik_input>
W0NIM11OKFtDSDNdKUMoPU8pYyhbY0hdYzEyKVtjSF1jKFtjSF0xKU9bQ0gyXVtDSDJdW0NIMl1bQ0gyXU9jM1tjSF1jKFtjSF1bY0hdW2NIXTMpW0NIMl1bQ0BIXShbTkhdQzI9TylbQ0BASF0oW09IXSlbQ0gyXVtPSF0=

> <s_epik_cmdline>
J2VwaWtfcHl0aG9uJywgJy1waCcsICc3LjAnLCAnLXRuJywgJzgnLCAnLW1hJywgJzIwMCcsICctaW1hZScsICc8aW5maWxlLm1hZT4nLCAnLW9tYWUnLCAnPG91dGZpbGUubWFlPic=

> <r_lp_tautomer_probability>
1

> <r_epik_Ionization_Penalty>
  0.0000

> <r_epik_Ionization_Penalty_Charging>
  0.0000

> <r_epik_Ionization_Penalty_Neutral>
  0.0000

> <r_epik_State_Penalty>
 -0.0000

> <r_epik_Charging_Adjusted_Penalty>
0

> <i_epik_Tot_Q>
0

> <i_epik_Tot_abs_Q>
0

> <s_lp_Force_Field>
OPLS_2005

> <r_lp_Energy>
47.913

> <b_lp_Chiralities_Consistent>
1

> <s_lp_Variant>
BACE_17.smi:1-1

> <chiral flag>
1

> <version>
0

> <r_i_glide_lipo>
-0.567811

> <r_i_glide_hbond>
0

> <r_i_glide_metal>
-0

> <r_i_glide_rewards>
-0.490634

> <r_i_glide_erotb>
0.306172

> <r_i_glide_esite>
-0.00811059

> <chiral flag>
1

> <s_i_glide_gridfile>
second_dock_grid_2

> <i_i_glide_lignum>
34

> <i_i_glide_rotatable_bonds>
6

> <r_i_docking_score>
0.204126

> <r_i_glide_ligand_efficiency>
0.00637892

> <r_i_glide_ligand_efficiency_sa>
0.0202518

> <r_i_glide_ligand_efficiency_ln>
0.0457093

> <r_glide_XP_GScore>
0.204126

> <r_i_glide_gscore>
0.204126

> <r_i_glide_evdw>
-29.6961

> <r_i_glide_ecoul>
-15.7374

> <r_i_glide_energy>
-45.4335

> <r_i_glide_einternal>
0

> <r_i_glide_emodel>
-57.2329

> <r_glide_XP_HBond>
-1.21716

> <i_i_glide_confnum>
1

> <i_i_glide_posenum>
15

> <r_i_glide_eff_state_penalty>
-0

> <i_glide_XP_PoseRank>
10

$$$$
