BACE_3.smi:1
                    3D
 Structure written by MMmdl.
 85 86  0  0  1  0            999 V2000
   21.6644   39.3113   -8.4748 C   0  0  0  0  0  0
   22.7076   40.2543   -8.4771 C   0  0  0  0  0  0
   22.8579   41.1402   -7.3948 C   0  0  0  0  0  0
   21.9734   41.0842   -6.2970 C   0  0  0  0  0  0
   22.1650   42.0242   -5.1132 C   0  0  0  0  0  0
   20.9128   42.8761   -4.8433 C   0  0  0  0  0  0
   22.6030   41.2557   -3.8590 C   0  0  0  0  0  0
   20.9245   40.1402   -6.3036 C   0  0  0  0  0  0
   20.7655   39.2586   -7.3912 C   0  0  0  0  0  0
   19.6356   38.2531   -7.4023 C   0  0  0  0  0  0
   18.3511   38.8656   -7.7020 N   0  0  0  0  0  0
   17.4487   37.9816   -8.4402 C   0  0  0  0  0  0
   16.0260   38.5761   -8.5451 C   0  0  0  0  0  0
   15.4923   38.5500   -7.2403 O   0  0  0  0  0  0
   15.2794   37.7536   -9.4111 O   0  0  0  0  0  0
   15.9415   40.0395   -9.0704 C   0  0  1  0  0  0
   16.8270   40.2513  -10.2207 N   0  0  0  0  0  0
   17.8121   41.1622  -10.2843 C   0  0  0  0  0  0
   18.0950   41.9124   -9.3506 O   0  0  0  0  0  0
   18.5595   41.2724  -11.6285 C   0  0  2  0  0  0
   19.6615   40.1900  -11.6709 C   0  0  0  0  0  0
   14.4854   40.4964   -9.3697 C   0  0  0  0  0  0
   14.1964   42.0109   -9.5632 C   0  0  2  0  0  0
   14.6980   42.5368  -10.9164 C   0  0  0  0  0  0
   14.5714   42.8699   -8.3263 C   0  0  0  0  0  0
   14.6248   44.3974   -8.5295 C   0  0  0  0  0  0
   16.0707   44.8755   -8.7365 C   0  0  0  0  0  0
   16.1828   46.3415   -9.1696 C   0  0  0  0  0  0
   17.6339   46.8457   -9.2849 C   0  0  0  0  0  0
   18.5301   46.0185  -10.2214 C   0  0  0  0  0  0
   18.0857   46.0364  -11.6944 C   0  0  0  0  0  0
   18.8592   45.0430  -12.5772 C   0  0  0  0  0  0
   18.3595   43.5951  -12.4260 C   0  0  0  0  0  0
   17.2606   43.3474  -12.9235 O   0  0  0  0  0  0
   19.1089   42.6434  -11.8019 N   0  0  0  0  0  0
   20.4011   42.9480  -11.1564 C   0  0  0  0  0  0
   16.3137   40.6412   -8.2427 H   0  0  0  0  0  0
   17.8631   41.0379  -12.4371 H   0  0  0  0  0  0
   13.1111   42.0812   -9.6436 H   0  0  0  0  0  0
   21.5548   38.6357   -9.3093 H   0  0  0  0  0  0
   23.3974   40.2920   -9.3096 H   0  0  0  0  0  0
   23.6626   41.8594   -7.4081 H   0  0  0  0  0  0
   22.9713   42.7130   -5.3661 H   0  0  0  0  0  0
   20.6245   43.4386   -5.7296 H   0  0  0  0  0  0
   21.0941   43.5917   -4.0413 H   0  0  0  0  0  0
   20.0601   42.2628   -4.5481 H   0  0  0  0  0  0
   23.5294   40.7091   -4.0372 H   0  0  0  0  0  0
   21.8501   40.5349   -3.5421 H   0  0  0  0  0  0
   22.7780   41.9356   -3.0235 H   0  0  0  0  0  0
   20.2364   40.0896   -5.4731 H   0  0  0  0  0  0
   19.5881   37.7492   -6.4386 H   0  0  0  0  0  0
   19.8739   37.4936   -8.1472 H   0  0  0  0  0  0
   17.8835   39.1140   -6.8338 H   0  0  0  0  0  0
   17.3995   37.0039   -7.9583 H   0  0  0  0  0  0
   17.8484   37.8086   -9.4398 H   0  0  0  0  0  0
   15.6598   37.6906   -6.8333 H   0  0  0  0  0  0
   14.3944   38.0923   -9.4158 H   0  0  0  0  0  0
   16.6818   39.6474  -11.0154 H   0  0  0  0  0  0
   19.2209   39.1936  -11.6826 H   0  0  0  0  0  0
   20.3279   40.2187  -10.8100 H   0  0  0  0  0  0
   20.2696   40.2832  -12.5712 H   0  0  0  0  0  0
   14.1006   39.9547  -10.2338 H   0  0  0  0  0  0
   13.8816   40.1480   -8.5375 H   0  0  0  0  0  0
   14.1553   43.4234  -11.2362 H   0  0  0  0  0  0
   14.5628   41.7826  -11.6817 H   0  0  0  0  0  0
   15.7473   42.7955  -10.8912 H   0  0  0  0  0  0
   13.8423   42.6590   -7.5470 H   0  0  0  0  0  0
   15.5193   42.5579   -7.8933 H   0  0  0  0  0  0
   14.2305   44.8893   -7.6403 H   0  0  0  0  0  0
   13.9782   44.6997   -9.3512 H   0  0  0  0  0  0
   16.6311   44.7227   -7.8124 H   0  0  0  0  0  0
   16.5496   44.2469   -9.4819 H   0  0  0  0  0  0
   15.6605   46.9519   -8.4405 H   0  0  0  0  0  0
   15.6641   46.4897  -10.1158 H   0  0  0  0  0  0
   17.6284   47.8843   -9.6171 H   0  0  0  0  0  0
   18.0810   46.8502   -8.2899 H   0  0  0  0  0  0
   18.5897   44.9953   -9.8530 H   0  0  0  0  0  0
   19.5496   46.4030  -10.1625 H   0  0  0  0  0  0
   17.0205   45.8255  -11.7754 H   0  0  0  0  0  0
   18.2191   47.0435  -12.0882 H   0  0  0  0  0  0
   19.9316   45.1532  -12.4358 H   0  0  0  0  0  0
   18.6760   45.3195  -13.6146 H   0  0  0  0  0  0
   20.5774   42.3163  -10.2873 H   0  0  0  0  0  0
   20.4703   43.9588  -10.7652 H   0  0  0  0  0  0
   21.2282   42.7910  -11.8482 H   0  0  0  0  0  0
  1  9  1  0  0  0
  1  2  2  0  0  0
  1 40  1  0  0  0
  2  3  1  0  0  0
  2 41  1  0  0  0
  3  4  2  0  0  0
  3 42  1  0  0  0
  4  5  1  0  0  0
  4  8  1  0  0  0
  5  6  1  0  0  0
  5  7  1  0  0  0
  5 43  1  0  0  0
  6 44  1  0  0  0
  6 45  1  0  0  0
  6 46  1  0  0  0
  7 47  1  0  0  0
  7 48  1  0  0  0
  7 49  1  0  0  0
  8  9  2  0  0  0
  8 50  1  0  0  0
  9 10  1  0  0  0
 10 11  1  0  0  0
 10 51  1  0  0  0
 10 52  1  0  0  0
 11 12  1  0  0  0
 11 53  1  0  0  0
 12 13  1  0  0  0
 12 54  1  0  0  0
 12 55  1  0  0  0
 13 14  1  0  0  0
 13 15  1  0  0  0
 13 16  1  0  0  0
 14 56  1  0  0  0
 15 57  1  0  0  0
 16 37  1  0  0  0
 16 17  1  0  0  0
 16 22  1  0  0  0
 17 18  1  0  0  0
 17 58  1  0  0  0
 18 19  2  0  0  0
 18 20  1  0  0  0
 20 38  1  0  0  0
 20 35  1  0  0  0
 20 21  1  0  0  0
 21 59  1  0  0  0
 21 60  1  0  0  0
 21 61  1  0  0  0
 22 23  1  0  0  0
 22 62  1  0  0  0
 22 63  1  0  0  0
 23 39  1  0  0  0
 23 24  1  0  0  0
 23 25  1  0  0  0
 24 64  1  0  0  0
 24 65  1  0  0  0
 24 66  1  0  0  0
 25 26  1  0  0  0
 25 67  1  0  0  0
 25 68  1  0  0  0
 26 27  1  0  0  0
 26 69  1  0  0  0
 26 70  1  0  0  0
 27 28  1  0  0  0
 27 71  1  0  0  0
 27 72  1  0  0  0
 28 29  1  0  0  0
 28 73  1  0  0  0
 28 74  1  0  0  0
 29 30  1  0  0  0
 29 75  1  0  0  0
 29 76  1  0  0  0
 30 31  1  0  0  0
 30 77  1  0  0  0
 30 78  1  0  0  0
 31 32  1  0  0  0
 31 79  1  0  0  0
 31 80  1  0  0  0
 32 33  1  0  0  0
 32 81  1  0  0  0
 32 82  1  0  0  0
 33 34  2  0  0  0
 33 35  1  0  0  0
 35 36  1  0  0  0
 36 83  1  0  0  0
 36 84  1  0  0  0
 36 85  1  0  0  0
M  END
> <s_m_source_file>
BACE_3.smi

> <i_m_source_file_index>
1

> <i_lp_mmshare_version>
42013

> <i_f3d_flags>
0

> <s_epik_input>
W0NIM11bQ0hdKFtDSDNdKWMxW2NIXVtjSF1bY0hdYyhbY0hdMSlbQ0gyXVtOSF1bQ0gyXUMoW09IXSkoW09IXSlbQ0BIXTJbTkhdQyg9TylbQ0BIXShbQ0gzXSlOKFtDSDNdKUMoPU8pW0NIMl1bQ0gyXVtDSDJdW0NIMl1bQ0gyXVtDSDJdW0NIMl1bQ0gyXVtDQEhdKFtDSDJdMilbQ0gzXQ==

> <s_epik_cmdline>
J2VwaWtfcHl0aG9uJywgJy1waCcsICc3LjAnLCAnLXRuJywgJzgnLCAnLW1hJywgJzIwMCcsICctaW1hZScsICc8aW5maWxlLm1hZT4nLCAnLW9tYWUnLCAnPG91dGZpbGUubWFlPic=

> <r_epik_Ionization_Penalty>
  2.0740

> <r_epik_Ionization_Penalty_Charging>
  0.0000

> <r_epik_Ionization_Penalty_Neutral>
  2.0740

> <r_epik_State_Penalty>
  2.2081

> <r_epik_Charging_Adjusted_Penalty>
2.20813

> <i_epik_Tot_Q>
0

> <i_epik_Tot_abs_Q>
0

> <s_lp_Force_Field>
OPLS_2005

> <r_lp_Energy>
49.929

> <b_lp_Chiralities_Consistent>
1

> <s_lp_Variant>
BACE_3.smi:1-2

> <chiral flag>
1

> <version>
0

> <r_i_glide_lipo>
-0.428916

> <r_i_glide_hbond>
-0.0522614

> <r_i_glide_metal>
-0

> <r_i_glide_rewards>
-0.0327321

> <r_i_glide_erotb>
0.402825

> <r_i_glide_esite>
-0.0410514

> <chiral flag>
1

> <s_i_glide_gridfile>
second_dock_grid_2

> <i_i_glide_lignum>
5

> <i_i_glide_rotatable_bonds>
8

> <r_i_docking_score>
-2.46649

> <r_i_glide_ligand_efficiency>
-0.0685136

> <r_i_glide_ligand_efficiency_sa>
-0.226227

> <r_i_glide_ligand_efficiency_ln>
-0.538121

> <r_glide_XP_GScore>
-4.67459

> <r_i_glide_gscore>
-4.67459

> <r_i_glide_evdw>
-38.1475

> <r_i_glide_ecoul>
-10.5298

> <r_i_glide_energy>
-48.6773

> <r_i_glide_einternal>
2.22945

> <r_i_glide_emodel>
-61.3838

> <r_glide_XP_HBond>
-1.625

> <i_i_glide_confnum>
1

> <i_i_glide_posenum>
2

> <r_i_glide_eff_state_penalty>
2.2081

> <i_glide_XP_PoseRank>
1

$$$$
BACE_3.smi:1
                    3D
 Structure written by MMmdl.
 85 86  0  0  1  0            999 V2000
   21.6814   39.4199   -8.4313 C   0  0  0  0  0  0
   22.6973   40.3919   -8.4115 C   0  0  0  0  0  0
   22.8286   41.2487   -7.3032 C   0  0  0  0  0  0
   21.9558   41.1301   -6.1991 C   0  0  0  0  0  0
   22.1421   42.0308   -4.9846 C   0  0  0  0  0  0
   20.8608   42.8037   -4.6320 C   0  0  0  0  0  0
   22.6724   41.2348   -3.7830 C   0  0  0  0  0  0
   20.9294   40.1594   -6.2315 C   0  0  0  0  0  0
   20.7881   39.3100   -7.3470 C   0  0  0  0  0  0
   19.6784   38.2825   -7.3908 C   0  0  0  0  0  0
   18.3872   38.8788   -7.7047 N   0  0  0  0  0  0
   17.5248   37.9985   -8.4889 C   0  0  0  0  0  0
   16.1030   38.5765   -8.6793 C   0  0  0  0  0  0
   15.4731   38.5500   -7.4159 O   0  0  0  0  0  0
   15.4469   37.7520   -9.6256 O   0  0  0  0  0  0
   16.0192   40.0470   -9.1700 C   0  0  1  0  0  0
   16.9233   40.2861  -10.2944 N   0  0  0  0  0  0
   17.9315   41.1733  -10.3094 C   0  0  0  0  0  0
   18.2299   41.8773   -9.3439 O   0  0  0  0  0  0
   18.6803   41.3163  -11.6445 C   0  0  2  0  0  0
   19.8088   40.2633  -11.7102 C   0  0  0  0  0  0
   14.5625   40.4975   -9.4839 C   0  0  0  0  0  0
   14.2722   42.0136   -9.6370 C   0  0  2  0  0  0
   14.7457   42.5606  -10.9894 C   0  0  0  0  0  0
   14.7050   42.8400   -8.3992 C   0  0  0  0  0  0
   14.6945   44.3714   -8.5567 C   0  0  0  0  0  0
   16.1156   44.8943   -8.8199 C   0  0  0  0  0  0
   16.1828   46.3776   -9.1979 C   0  0  0  0  0  0
   17.6176   46.9219   -9.3121 C   0  0  0  0  0  0
   18.5334   46.1114  -10.2446 C   0  0  0  0  0  0
   18.0512   46.0694  -11.7050 C   0  0  0  0  0  0
   18.8600   45.0962  -12.5761 C   0  0  0  0  0  0
   18.4060   43.6327  -12.4320 C   0  0  0  0  0  0
   17.3178   43.3503  -12.9378 O   0  0  0  0  0  0
   19.1841   42.7053  -11.8085 N   0  0  0  0  0  0
   20.4730   43.0443  -11.1798 C   0  0  0  0  0  0
   16.3744   40.6234   -8.3194 H   0  0  0  0  0  0
   17.9813   41.0652  -12.4399 H   0  0  0  0  0  0
   13.1851   42.0936   -9.6793 H   0  0  0  0  0  0
   21.5852   38.7652   -9.2849 H   0  0  0  0  0  0
   23.3774   40.4743   -9.2469 H   0  0  0  0  0  0
   23.6169   41.9872   -7.2995 H   0  0  0  0  0  0
   22.9002   42.7745   -5.2356 H   0  0  0  0  0  0
   20.5021   43.3801   -5.4855 H   0  0  0  0  0  0
   21.0364   43.5003   -3.8118 H   0  0  0  0  0  0
   20.0598   42.1326   -4.3230 H   0  0  0  0  0  0
   23.6124   40.7378   -4.0274 H   0  0  0  0  0  0
   21.9664   40.4671   -3.4657 H   0  0  0  0  0  0
   22.8579   41.8896   -2.9311 H   0  0  0  0  0  0
   20.2450   40.0645   -5.4014 H   0  0  0  0  0  0
   19.6276   37.7501   -6.4417 H   0  0  0  0  0  0
   19.9464   37.5511   -8.1541 H   0  0  0  0  0  0
   17.8948   39.1042   -6.8431 H   0  0  0  0  0  0
   17.4568   37.0186   -8.0137 H   0  0  0  0  0  0
   17.9811   37.8298   -9.4662 H   0  0  0  0  0  0
   15.6596   37.7223   -6.9619 H   0  0  0  0  0  0
   15.5770   36.8558   -9.3646 H   0  0  0  0  0  0
   16.7649   39.7243  -11.1176 H   0  0  0  0  0  0
   19.3895   39.2570  -11.7503 H   0  0  0  0  0  0
   20.4703   40.2877  -10.8466 H   0  0  0  0  0  0
   20.4160   40.3917  -12.6070 H   0  0  0  0  0  0
   14.1979   39.9729  -10.3680 H   0  0  0  0  0  0
   13.9339   40.1328   -8.6765 H   0  0  0  0  0  0
   14.2704   43.5080  -11.2389 H   0  0  0  0  0  0
   14.4980   41.8578  -11.7800 H   0  0  0  0  0  0
   15.8163   42.7210  -11.0003 H   0  0  0  0  0  0
   14.0586   42.5592   -7.5707 H   0  0  0  0  0  0
   15.6996   42.5603   -8.0610 H   0  0  0  0  0  0
   14.3253   44.8286   -7.6397 H   0  0  0  0  0  0
   14.0022   44.6781   -9.3382 H   0  0  0  0  0  0
   16.7281   44.7159   -7.9342 H   0  0  0  0  0  0
   16.5642   44.3040   -9.6165 H   0  0  0  0  0  0
   15.6599   46.9504   -8.4408 H   0  0  0  0  0  0
   15.6480   46.5454  -10.1304 H   0  0  0  0  0  0
   17.5852   47.9595   -9.6456 H   0  0  0  0  0  0
   18.0689   46.9409   -8.3195 H   0  0  0  0  0  0
   18.6414   45.1004   -9.8514 H   0  0  0  0  0  0
   19.5366   46.5391  -10.2167 H   0  0  0  0  0  0
   16.9983   45.7941  -11.7575 H   0  0  0  0  0  0
   18.1169   47.0719  -12.1288 H   0  0  0  0  0  0
   19.9242   45.2410  -12.4092 H   0  0  0  0  0  0
   18.6879   45.3657  -13.6184 H   0  0  0  0  0  0
   20.7194   42.3792  -10.3539 H   0  0  0  0  0  0
   20.4833   44.0333  -10.7288 H   0  0  0  0  0  0
   21.2825   42.9867  -11.9055 H   0  0  0  0  0  0
  1  9  1  0  0  0
  1  2  2  0  0  0
  1 40  1  0  0  0
  2  3  1  0  0  0
  2 41  1  0  0  0
  3  4  2  0  0  0
  3 42  1  0  0  0
  4  5  1  0  0  0
  4  8  1  0  0  0
  5  6  1  0  0  0
  5  7  1  0  0  0
  5 43  1  0  0  0
  6 44  1  0  0  0
  6 45  1  0  0  0
  6 46  1  0  0  0
  7 47  1  0  0  0
  7 48  1  0  0  0
  7 49  1  0  0  0
  8  9  2  0  0  0
  8 50  1  0  0  0
  9 10  1  0  0  0
 10 11  1  0  0  0
 10 51  1  0  0  0
 10 52  1  0  0  0
 11 12  1  0  0  0
 11 53  1  0  0  0
 12 13  1  0  0  0
 12 54  1  0  0  0
 12 55  1  0  0  0
 13 14  1  0  0  0
 13 15  1  0  0  0
 13 16  1  0  0  0
 14 56  1  0  0  0
 15 57  1  0  0  0
 16 37  1  0  0  0
 16 17  1  0  0  0
 16 22  1  0  0  0
 17 18  1  0  0  0
 17 58  1  0  0  0
 18 19  2  0  0  0
 18 20  1  0  0  0
 20 38  1  0  0  0
 20 35  1  0  0  0
 20 21  1  0  0  0
 21 59  1  0  0  0
 21 60  1  0  0  0
 21 61  1  0  0  0
 22 23  1  0  0  0
 22 62  1  0  0  0
 22 63  1  0  0  0
 23 39  1  0  0  0
 23 24  1  0  0  0
 23 25  1  0  0  0
 24 64  1  0  0  0
 24 65  1  0  0  0
 24 66  1  0  0  0
 25 26  1  0  0  0
 25 67  1  0  0  0
 25 68  1  0  0  0
 26 27  1  0  0  0
 26 69  1  0  0  0
 26 70  1  0  0  0
 27 28  1  0  0  0
 27 71  1  0  0  0
 27 72  1  0  0  0
 28 29  1  0  0  0
 28 73  1  0  0  0
 28 74  1  0  0  0
 29 30  1  0  0  0
 29 75  1  0  0  0
 29 76  1  0  0  0
 30 31  1  0  0  0
 30 77  1  0  0  0
 30 78  1  0  0  0
 31 32  1  0  0  0
 31 79  1  0  0  0
 31 80  1  0  0  0
 32 33  1  0  0  0
 32 81  1  0  0  0
 32 82  1  0  0  0
 33 34  2  0  0  0
 33 35  1  0  0  0
 35 36  1  0  0  0
 36 83  1  0  0  0
 36 84  1  0  0  0
 36 85  1  0  0  0
M  END
> <s_m_source_file>
BACE_3.smi

> <i_m_source_file_index>
1

> <i_lp_mmshare_version>
42013

> <i_f3d_flags>
0

> <s_epik_input>
W0NIM11bQ0hdKFtDSDNdKWMxW2NIXVtjSF1bY0hdYyhbY0hdMSlbQ0gyXVtOSF1bQ0gyXUMoW09IXSkoW09IXSlbQ0BIXTJbTkhdQyg9TylbQ0BIXShbQ0gzXSlOKFtDSDNdKUMoPU8pW0NIMl1bQ0gyXVtDSDJdW0NIMl1bQ0gyXVtDSDJdW0NIMl1bQ0gyXVtDQEhdKFtDSDJdMilbQ0gzXQ==

> <s_epik_cmdline>
J2VwaWtfcHl0aG9uJywgJy1waCcsICc3LjAnLCAnLXRuJywgJzgnLCAnLW1hJywgJzIwMCcsICctaW1hZScsICc8aW5maWxlLm1hZT4nLCAnLW9tYWUnLCAnPG91dGZpbGUubWFlPic=

> <r_epik_Ionization_Penalty>
  2.0740

> <r_epik_Ionization_Penalty_Charging>
  0.0000

> <r_epik_Ionization_Penalty_Neutral>
  2.0740

> <r_epik_State_Penalty>
  2.2081

> <r_epik_Charging_Adjusted_Penalty>
2.20813

> <i_epik_Tot_Q>
0

> <i_epik_Tot_abs_Q>
0

> <s_lp_Force_Field>
OPLS_2005

> <r_lp_Energy>
49.929

> <b_lp_Chiralities_Consistent>
1

> <s_lp_Variant>
BACE_3.smi:1-2

> <chiral flag>
1

> <version>
0

> <r_i_glide_lipo>
-0.428916

> <r_i_glide_hbond>
-0.0522614

> <r_i_glide_metal>
-0

> <r_i_glide_rewards>
-0.0327321

> <r_i_glide_erotb>
0.402825

> <r_i_glide_esite>
-0.0410514

> <chiral flag>
1

> <s_i_glide_gridfile>
second_dock_grid_2

> <i_i_glide_lignum>
5

> <i_i_glide_rotatable_bonds>
8

> <r_i_docking_score>
-2.44946

> <r_i_glide_ligand_efficiency>
-0.0680407

> <r_i_glide_ligand_efficiency_sa>
-0.224665

> <r_i_glide_ligand_efficiency_ln>
-0.534407

> <r_glide_XP_GScore>
-4.65756

> <r_i_glide_gscore>
-4.65756

> <r_i_glide_evdw>
-39.5575

> <r_i_glide_ecoul>
-7.5498

> <r_i_glide_energy>
-47.1073

> <r_i_glide_einternal>
2.03184

> <r_i_glide_emodel>
-61.609

> <r_glide_XP_HBond>
-1.625

> <i_i_glide_confnum>
1

> <i_i_glide_posenum>
4

> <r_i_glide_eff_state_penalty>
2.2081

> <i_glide_XP_PoseRank>
2

$$$$
BACE_3.smi:1
                    3D
 Structure written by MMmdl.
 85 86  0  0  1  0            999 V2000
   21.3876   40.6486   -7.6381 C   0  0  0  0  0  0
   22.0595   41.8444   -7.3244 C   0  0  0  0  0  0
   22.0852   42.3144   -5.9966 C   0  0  0  0  0  0
   21.4489   41.5821   -4.9670 C   0  0  0  0  0  0
   21.4527   42.0617   -3.5163 C   0  0  0  0  0  0
   22.7562   42.7704   -3.1170 C   0  0  0  0  0  0
   20.2307   42.9433   -3.2109 C   0  0  0  0  0  0
   20.7833   40.3823   -5.2934 C   0  0  0  0  0  0
   20.7351   39.9188   -6.6252 C   0  0  0  0  0  0
   19.9761   38.6502   -6.9655 C   0  0  0  0  0  0
   18.8514   38.9027   -7.8631 N   0  0  0  0  0  0
   17.5879   38.3235   -7.4015 C   0  0  0  0  0  0
   16.3974   38.5386   -8.3751 C   0  0  0  0  0  0
   15.2654   38.1500   -7.6401 O   0  0  0  0  0  0
   16.5868   37.6808   -9.4819 O   0  0  0  0  0  0
   16.1913   40.0137   -8.8552 C   0  0  1  0  0  0
   17.0360   40.2850  -10.0230 N   0  0  0  0  0  0
   18.0245   41.1866  -10.1061 C   0  0  0  0  0  0
   18.3917   41.8625   -9.1448 O   0  0  0  0  0  0
   18.6741   41.3478  -11.4941 C   0  0  2  0  0  0
   19.8050   40.3053  -11.6534 C   0  0  0  0  0  0
   14.7104   40.3706   -9.2158 C   0  0  0  0  0  0
   14.3618   41.8484   -9.5481 C   0  0  2  0  0  0
   14.8543   42.2981  -10.9298 C   0  0  0  0  0  0
   14.7174   42.7971   -8.3759 C   0  0  0  0  0  0
   14.6448   44.3113   -8.6483 C   0  0  0  0  0  0
   16.0559   44.8943   -8.8300 C   0  0  0  0  0  0
   16.0775   46.3590   -9.2835 C   0  0  0  0  0  0
   17.4940   46.9578   -9.3750 C   0  0  0  0  0  0
   18.4684   46.1675  -10.2677 C   0  0  0  0  0  0
   18.0526   46.1097  -11.7491 C   0  0  0  0  0  0
   18.8598   45.0930  -12.5724 C   0  0  0  0  0  0
   18.3880   43.6419  -12.3567 C   0  0  0  0  0  0
   17.2914   43.3500  -12.8403 O   0  0  0  0  0  0
   19.1627   42.7359  -11.6982 N   0  0  0  0  0  0
   20.4585   43.0966  -11.0956 C   0  0  0  0  0  0
   16.4900   40.6347   -8.0121 H   0  0  0  0  0  0
   17.9263   41.0936  -12.2477 H   0  0  0  0  0  0
   13.2744   41.8703   -9.6401 H   0  0  0  0  0  0
   21.3651   40.2946   -8.6582 H   0  0  0  0  0  0
   22.5520   42.4036   -8.1055 H   0  0  0  0  0  0
   22.5946   43.2414   -5.7827 H   0  0  0  0  0  0
   21.3803   41.1720   -2.8869 H   0  0  0  0  0  0
   23.6279   42.1628   -3.3612 H   0  0  0  0  0  0
   22.7802   42.9624   -2.0452 H   0  0  0  0  0  0
   22.8626   43.7338   -3.6140 H   0  0  0  0  0  0
   19.2981   42.3858   -3.2850 H   0  0  0  0  0  0
   20.1717   43.7828   -3.9018 H   0  0  0  0  0  0
   20.2753   43.3474   -2.1992 H   0  0  0  0  0  0
   20.2746   39.8287   -4.5180 H   0  0  0  0  0  0
   19.6368   38.1818   -6.0417 H   0  0  0  0  0  0
   20.6672   37.9449   -7.4292 H   0  0  0  0  0  0
   18.7361   39.9091   -7.9798 H   0  0  0  0  0  0
   17.3317   38.7663   -6.4352 H   0  0  0  0  0  0
   17.7158   37.2564   -7.2229 H   0  0  0  0  0  0
   15.5206   37.4901   -6.9845 H   0  0  0  0  0  0
   17.0021   36.8955   -9.1603 H   0  0  0  0  0  0
   16.8530   39.7012  -10.8256 H   0  0  0  0  0  0
   19.3938   39.2950  -11.6558 H   0  0  0  0  0  0
   20.5403   40.3388  -10.8505 H   0  0  0  0  0  0
   20.3323   40.4412  -12.5989 H   0  0  0  0  0  0
   14.3715   39.7242  -10.0274 H   0  0  0  0  0  0
   14.0703   40.1156   -8.3725 H   0  0  0  0  0  0
   14.2486   43.1120  -11.3271 H   0  0  0  0  0  0
   14.8068   41.4757  -11.6401 H   0  0  0  0  0  0
   15.8773   42.6496  -10.8844 H   0  0  0  0  0  0
   14.0552   42.5516   -7.5473 H   0  0  0  0  0  0
   15.7112   42.5829   -7.9896 H   0  0  0  0  0  0
   14.1754   44.8064   -7.7978 H   0  0  0  0  0  0
   14.0132   44.5261   -9.5094 H   0  0  0  0  0  0
   16.6035   44.8005   -7.8911 H   0  0  0  0  0  0
   16.5958   44.2873   -9.5537 H   0  0  0  0  0  0
   15.5038   46.9495   -8.5762 H   0  0  0  0  0  0
   15.5685   46.4543  -10.2408 H   0  0  0  0  0  0
   17.4274   47.9844   -9.7342 H   0  0  0  0  0  0
   17.9168   47.0162   -8.3706 H   0  0  0  0  0  0
   18.5906   45.1642   -9.8614 H   0  0  0  0  0  0
   19.4576   46.6231  -10.1987 H   0  0  0  0  0  0
   16.9946   45.8678  -11.8420 H   0  0  0  0  0  0
   18.1645   47.1015  -12.1874 H   0  0  0  0  0  0
   19.9280   45.2382  -12.4314 H   0  0  0  0  0  0
   18.6830   45.3164  -13.6253 H   0  0  0  0  0  0
   20.7197   42.4470  -10.2614 H   0  0  0  0  0  0
   20.4687   44.0986  -10.6731 H   0  0  0  0  0  0
   21.2590   43.0235  -11.8306 H   0  0  0  0  0  0
  1  9  1  0  0  0
  1  2  2  0  0  0
  1 40  1  0  0  0
  2  3  1  0  0  0
  2 41  1  0  0  0
  3  4  2  0  0  0
  3 42  1  0  0  0
  4  5  1  0  0  0
  4  8  1  0  0  0
  5  6  1  0  0  0
  5  7  1  0  0  0
  5 43  1  0  0  0
  6 44  1  0  0  0
  6 45  1  0  0  0
  6 46  1  0  0  0
  7 47  1  0  0  0
  7 48  1  0  0  0
  7 49  1  0  0  0
  8  9  2  0  0  0
  8 50  1  0  0  0
  9 10  1  0  0  0
 10 11  1  0  0  0
 10 51  1  0  0  0
 10 52  1  0  0  0
 11 12  1  0  0  0
 11 53  1  0  0  0
 12 13  1  0  0  0
 12 54  1  0  0  0
 12 55  1  0  0  0
 13 14  1  0  0  0
 13 15  1  0  0  0
 13 16  1  0  0  0
 14 56  1  0  0  0
 15 57  1  0  0  0
 16 37  1  0  0  0
 16 17  1  0  0  0
 16 22  1  0  0  0
 17 18  1  0  0  0
 17 58  1  0  0  0
 18 19  2  0  0  0
 18 20  1  0  0  0
 20 38  1  0  0  0
 20 35  1  0  0  0
 20 21  1  0  0  0
 21 59  1  0  0  0
 21 60  1  0  0  0
 21 61  1  0  0  0
 22 23  1  0  0  0
 22 62  1  0  0  0
 22 63  1  0  0  0
 23 39  1  0  0  0
 23 24  1  0  0  0
 23 25  1  0  0  0
 24 64  1  0  0  0
 24 65  1  0  0  0
 24 66  1  0  0  0
 25 26  1  0  0  0
 25 67  1  0  0  0
 25 68  1  0  0  0
 26 27  1  0  0  0
 26 69  1  0  0  0
 26 70  1  0  0  0
 27 28  1  0  0  0
 27 71  1  0  0  0
 27 72  1  0  0  0
 28 29  1  0  0  0
 28 73  1  0  0  0
 28 74  1  0  0  0
 29 30  1  0  0  0
 29 75  1  0  0  0
 29 76  1  0  0  0
 30 31  1  0  0  0
 30 77  1  0  0  0
 30 78  1  0  0  0
 31 32  1  0  0  0
 31 79  1  0  0  0
 31 80  1  0  0  0
 32 33  1  0  0  0
 32 81  1  0  0  0
 32 82  1  0  0  0
 33 34  2  0  0  0
 33 35  1  0  0  0
 35 36  1  0  0  0
 36 83  1  0  0  0
 36 84  1  0  0  0
 36 85  1  0  0  0
M  END
> <s_m_source_file>
BACE_3.smi

> <i_m_source_file_index>
1

> <i_lp_mmshare_version>
42013

> <i_f3d_flags>
0

> <s_epik_input>
W0NIM11bQ0hdKFtDSDNdKWMxW2NIXVtjSF1bY0hdYyhbY0hdMSlbQ0gyXVtOSF1bQ0gyXUMoW09IXSkoW09IXSlbQ0BIXTJbTkhdQyg9TylbQ0BIXShbQ0gzXSlOKFtDSDNdKUMoPU8pW0NIMl1bQ0gyXVtDSDJdW0NIMl1bQ0gyXVtDSDJdW0NIMl1bQ0gyXVtDQEhdKFtDSDJdMilbQ0gzXQ==

> <s_epik_cmdline>
J2VwaWtfcHl0aG9uJywgJy1waCcsICc3LjAnLCAnLXRuJywgJzgnLCAnLW1hJywgJzIwMCcsICctaW1hZScsICc8aW5maWxlLm1hZT4nLCAnLW9tYWUnLCAnPG91dGZpbGUubWFlPic=

> <r_epik_Ionization_Penalty>
  2.0740

> <r_epik_Ionization_Penalty_Charging>
  0.0000

> <r_epik_Ionization_Penalty_Neutral>
  2.0740

> <r_epik_State_Penalty>
  2.2081

> <r_epik_Charging_Adjusted_Penalty>
2.20813

> <i_epik_Tot_Q>
0

> <i_epik_Tot_abs_Q>
0

> <s_lp_Force_Field>
OPLS_2005

> <r_lp_Energy>
49.929

> <b_lp_Chiralities_Consistent>
1

> <s_lp_Variant>
BACE_3.smi:1-2

> <chiral flag>
1

> <version>
0

> <r_i_glide_lipo>
-0.428916

> <r_i_glide_hbond>
-0.0522614

> <r_i_glide_metal>
-0

> <r_i_glide_rewards>
-0.0327321

> <r_i_glide_erotb>
0.402825

> <r_i_glide_esite>
-0.0410514

> <chiral flag>
1

> <s_i_glide_gridfile>
second_dock_grid_2

> <i_i_glide_lignum>
5

> <i_i_glide_rotatable_bonds>
8

> <r_i_docking_score>
-2.28552

> <r_i_glide_ligand_efficiency>
-0.0634865

> <r_i_glide_ligand_efficiency_sa>
-0.209628

> <r_i_glide_ligand_efficiency_ln>
-0.498638

> <r_glide_XP_GScore>
-4.49362

> <r_i_glide_gscore>
-4.49362

> <r_i_glide_evdw>
-38.5462

> <r_i_glide_ecoul>
-9.30661

> <r_i_glide_energy>
-47.8528

> <r_i_glide_einternal>
2.93325

> <r_i_glide_emodel>
-61.3131

> <r_glide_XP_HBond>
-1.625

> <i_i_glide_confnum>
1

> <i_i_glide_posenum>
1

> <r_i_glide_eff_state_penalty>
2.2081

> <i_glide_XP_PoseRank>
3

$$$$
BACE_3.smi:1
                    3D
 Structure written by MMmdl.
 85 86  0  0  1  0            999 V2000
   21.9125   39.5046   -8.7384 C   0  0  0  0  0  0
   22.8224   40.5727   -8.6822 C   0  0  0  0  0  0
   22.8732   41.3852   -7.5342 C   0  0  0  0  0  0
   22.0369   41.1250   -6.4240 C   0  0  0  0  0  0
   22.1627   41.9650   -5.1586 C   0  0  0  0  0  0
   20.8554   42.6992   -4.8167 C   0  0  0  0  0  0
   22.6563   41.1201   -3.9693 C   0  0  0  0  0  0
   21.1047   40.0668   -6.5044 C   0  0  0  0  0  0
   21.0379   39.2630   -7.6628 C   0  0  0  0  0  0
   20.0177   38.1537   -7.7642 C   0  0  0  0  0  0
   18.7731   38.6426   -8.3361 N   0  0  0  0  0  0
   17.5658   38.0556   -7.7512 C   0  0  0  0  0  0
   16.2773   38.4091   -8.5396 C   0  0  0  0  0  0
   15.2374   38.1500   -7.6405 O   0  0  0  0  0  0
   16.2190   37.5285   -9.6390 O   0  0  0  0  0  0
   16.1299   39.8919   -9.0162 C   0  0  1  0  0  0
   16.9521   40.1599  -10.2047 N   0  0  0  0  0  0
   17.9790   41.0239  -10.2680 C   0  0  0  0  0  0
   18.3984   41.6335   -9.2809 O   0  0  0  0  0  0
   18.6139   41.2372  -11.6543 C   0  0  2  0  0  0
   19.7261   40.1867  -11.8731 C   0  0  0  0  0  0
   14.6590   40.3000   -9.3300 C   0  0  0  0  0  0
   14.3418   41.7998   -9.5622 C   0  0  2  0  0  0
   14.8506   42.3246  -10.9084 C   0  0  0  0  0  0
   14.7133   42.6677   -8.3356 C   0  0  0  0  0  0
   14.6400   44.1951   -8.5245 C   0  0  0  0  0  0
   16.0548   44.7761   -8.6737 C   0  0  0  0  0  0
   16.0744   46.2260   -9.1580 C   0  0  0  0  0  0
   17.4930   46.8249   -9.2317 C   0  0  0  0  0  0
   18.4642   46.0411  -10.1371 C   0  0  0  0  0  0
   18.0577   46.0348  -11.6207 C   0  0  0  0  0  0
   18.8630   45.0426  -12.4761 C   0  0  0  0  0  0
   18.3695   43.5907  -12.3585 C   0  0  0  0  0  0
   17.2607   43.3534  -12.8433 O   0  0  0  0  0  0
   19.1372   42.6239  -11.7823 N   0  0  0  0  0  0
   20.4598   42.9210  -11.2027 C   0  0  0  0  0  0
   16.4670   40.4854   -8.1706 H   0  0  0  0  0  0
   17.8550   41.0379  -12.4143 H   0  0  0  0  0  0
   13.2563   41.8445   -9.6511 H   0  0  0  0  0  0
   21.8871   38.8747   -9.6149 H   0  0  0  0  0  0
   23.4786   40.7609   -9.5185 H   0  0  0  0  0  0
   23.5879   42.1906   -7.4980 H   0  0  0  0  0  0
   22.9160   42.7353   -5.3423 H   0  0  0  0  0  0
   20.5300   43.3200   -5.6504 H   0  0  0  0  0  0
   20.9798   43.3442   -3.9459 H   0  0  0  0  0  0
   20.0619   41.9899   -4.5942 H   0  0  0  0  0  0
   23.6130   40.6418   -4.1963 H   0  0  0  0  0  0
   21.9467   40.3307   -3.7088 H   0  0  0  0  0  0
   22.8010   41.7410   -3.0855 H   0  0  0  0  0  0
   20.4456   39.8684   -5.6726 H   0  0  0  0  0  0
   19.8514   37.7511   -6.7630 H   0  0  0  0  0  0
   20.4094   37.3507   -8.3913 H   0  0  0  0  0  0
   18.7272   39.6594   -8.2329 H   0  0  0  0  0  0
   17.4708   38.3954   -6.7147 H   0  0  0  0  0  0
   17.6700   36.9675   -7.7018 H   0  0  0  0  0  0
   15.5222   37.4764   -7.0145 H   0  0  0  0  0  0
   17.0577   37.5641  -10.0714 H   0  0  0  0  0  0
   16.6945   39.6789  -11.0503 H   0  0  0  0  0  0
   19.2874   39.2033  -12.0430 H   0  0  0  0  0  0
   20.3883   40.0882  -11.0140 H   0  0  0  0  0  0
   20.3361   40.4188  -12.7483 H   0  0  0  0  0  0
   14.2821   39.7077  -10.1687 H   0  0  0  0  0  0
   14.0280   40.0194   -8.4870 H   0  0  0  0  0  0
   14.2525   43.1633  -11.2596 H   0  0  0  0  0  0
   14.8047   41.5409  -11.6606 H   0  0  0  0  0  0
   15.8779   42.6618  -10.8359 H   0  0  0  0  0  0
   14.0599   42.3851   -7.5162 H   0  0  0  0  0  0
   15.7072   42.4237   -7.9664 H   0  0  0  0  0  0
   14.1742   44.6637   -7.6570 H   0  0  0  0  0  0
   14.0087   44.4503   -9.3736 H   0  0  0  0  0  0
   16.5877   44.7032   -7.7219 H   0  0  0  0  0  0
   16.6130   44.1573   -9.3783 H   0  0  0  0  0  0
   15.4614   46.8258   -8.4896 H   0  0  0  0  0  0
   15.5879   46.2878  -10.1308 H   0  0  0  0  0  0
   17.4235   47.8546   -9.5803 H   0  0  0  0  0  0
   17.9074   46.8766   -8.2255 H   0  0  0  0  0  0
   18.5788   45.0253   -9.7648 H   0  0  0  0  0  0
   19.4551   46.4855  -10.0563 H   0  0  0  0  0  0
   16.9992   45.8017  -11.7292 H   0  0  0  0  0  0
   18.1785   47.0436  -12.0180 H   0  0  0  0  0  0
   19.9303   45.1626  -12.3074 H   0  0  0  0  0  0
   18.7150   45.3202  -13.5204 H   0  0  0  0  0  0
   20.7898   42.1614  -10.4933 H   0  0  0  0  0  0
   20.4752   43.8500  -10.6342 H   0  0  0  0  0  0
   21.2153   42.9795  -11.9815 H   0  0  0  0  0  0
  1  9  1  0  0  0
  1  2  2  0  0  0
  1 40  1  0  0  0
  2  3  1  0  0  0
  2 41  1  0  0  0
  3  4  2  0  0  0
  3 42  1  0  0  0
  4  5  1  0  0  0
  4  8  1  0  0  0
  5  6  1  0  0  0
  5  7  1  0  0  0
  5 43  1  0  0  0
  6 44  1  0  0  0
  6 45  1  0  0  0
  6 46  1  0  0  0
  7 47  1  0  0  0
  7 48  1  0  0  0
  7 49  1  0  0  0
  8  9  2  0  0  0
  8 50  1  0  0  0
  9 10  1  0  0  0
 10 11  1  0  0  0
 10 51  1  0  0  0
 10 52  1  0  0  0
 11 12  1  0  0  0
 11 53  1  0  0  0
 12 13  1  0  0  0
 12 54  1  0  0  0
 12 55  1  0  0  0
 13 14  1  0  0  0
 13 15  1  0  0  0
 13 16  1  0  0  0
 14 56  1  0  0  0
 15 57  1  0  0  0
 16 37  1  0  0  0
 16 17  1  0  0  0
 16 22  1  0  0  0
 17 18  1  0  0  0
 17 58  1  0  0  0
 18 19  2  0  0  0
 18 20  1  0  0  0
 20 38  1  0  0  0
 20 35  1  0  0  0
 20 21  1  0  0  0
 21 59  1  0  0  0
 21 60  1  0  0  0
 21 61  1  0  0  0
 22 23  1  0  0  0
 22 62  1  0  0  0
 22 63  1  0  0  0
 23 39  1  0  0  0
 23 24  1  0  0  0
 23 25  1  0  0  0
 24 64  1  0  0  0
 24 65  1  0  0  0
 24 66  1  0  0  0
 25 26  1  0  0  0
 25 67  1  0  0  0
 25 68  1  0  0  0
 26 27  1  0  0  0
 26 69  1  0  0  0
 26 70  1  0  0  0
 27 28  1  0  0  0
 27 71  1  0  0  0
 27 72  1  0  0  0
 28 29  1  0  0  0
 28 73  1  0  0  0
 28 74  1  0  0  0
 29 30  1  0  0  0
 29 75  1  0  0  0
 29 76  1  0  0  0
 30 31  1  0  0  0
 30 77  1  0  0  0
 30 78  1  0  0  0
 31 32  1  0  0  0
 31 79  1  0  0  0
 31 80  1  0  0  0
 32 33  1  0  0  0
 32 81  1  0  0  0
 32 82  1  0  0  0
 33 34  2  0  0  0
 33 35  1  0  0  0
 35 36  1  0  0  0
 36 83  1  0  0  0
 36 84  1  0  0  0
 36 85  1  0  0  0
M  END
> <s_m_source_file>
BACE_3.smi

> <i_m_source_file_index>
1

> <i_lp_mmshare_version>
42013

> <i_f3d_flags>
0

> <s_epik_input>
W0NIM11bQ0hdKFtDSDNdKWMxW2NIXVtjSF1bY0hdYyhbY0hdMSlbQ0gyXVtOSF1bQ0gyXUMoW09IXSkoW09IXSlbQ0BIXTJbTkhdQyg9TylbQ0BIXShbQ0gzXSlOKFtDSDNdKUMoPU8pW0NIMl1bQ0gyXVtDSDJdW0NIMl1bQ0gyXVtDSDJdW0NIMl1bQ0gyXVtDQEhdKFtDSDJdMilbQ0gzXQ==

> <s_epik_cmdline>
J2VwaWtfcHl0aG9uJywgJy1waCcsICc3LjAnLCAnLXRuJywgJzgnLCAnLW1hJywgJzIwMCcsICctaW1hZScsICc8aW5maWxlLm1hZT4nLCAnLW9tYWUnLCAnPG91dGZpbGUubWFlPic=

> <r_epik_Ionization_Penalty>
  2.0740

> <r_epik_Ionization_Penalty_Charging>
  0.0000

> <r_epik_Ionization_Penalty_Neutral>
  2.0740

> <r_epik_State_Penalty>
  2.2081

> <r_epik_Charging_Adjusted_Penalty>
2.20813

> <i_epik_Tot_Q>
0

> <i_epik_Tot_abs_Q>
0

> <s_lp_Force_Field>
OPLS_2005

> <r_lp_Energy>
49.929

> <b_lp_Chiralities_Consistent>
1

> <s_lp_Variant>
BACE_3.smi:1-2

> <chiral flag>
1

> <version>
0

> <r_i_glide_lipo>
-0.428916

> <r_i_glide_hbond>
-0.0522614

> <r_i_glide_metal>
-0

> <r_i_glide_rewards>
-0.0327321

> <r_i_glide_erotb>
0.402825

> <r_i_glide_esite>
-0.0410514

> <chiral flag>
1

> <s_i_glide_gridfile>
second_dock_grid_2

> <i_i_glide_lignum>
5

> <i_i_glide_rotatable_bonds>
8

> <r_i_docking_score>
-1.67207

> <r_i_glide_ligand_efficiency>
-0.0464463

> <r_i_glide_ligand_efficiency_sa>
-0.153362

> <r_i_glide_ligand_efficiency_ln>
-0.3648

> <r_glide_XP_GScore>
-3.88017

> <r_i_glide_gscore>
-3.88017

> <r_i_glide_evdw>
-38.2583

> <r_i_glide_ecoul>
-10.4656

> <r_i_glide_energy>
-48.7238

> <r_i_glide_einternal>
1.94968

> <r_i_glide_emodel>
-61.5735

> <r_glide_XP_HBond>
-1.625

> <i_i_glide_confnum>
1

> <i_i_glide_posenum>
6

> <r_i_glide_eff_state_penalty>
2.2081

> <i_glide_XP_PoseRank>
4

$$$$
BACE_3.smi:1
                    3D
 Structure written by MMmdl.
 85 86  0  0  1  0            999 V2000
   21.4760   39.2192   -8.3792 C   0  0  0  0  0  0
   22.5455   40.1346   -8.3785 C   0  0  0  0  0  0
   22.7091   41.0221   -7.2987 C   0  0  0  0  0  0
   21.8129   40.9980   -6.2087 C   0  0  0  0  0  0
   22.0279   41.9375   -5.0257 C   0  0  0  0  0  0
   20.9185   42.9950   -4.9255 C   0  0  0  0  0  0
   22.2023   41.1637   -3.7065 C   0  0  0  0  0  0
   20.7273   40.0923   -6.2277 C   0  0  0  0  0  0
   20.5581   39.2025   -7.3095 C   0  0  0  0  0  0
   19.3996   38.2261   -7.3289 C   0  0  0  0  0  0
   18.1415   38.8587   -7.7003 N   0  0  0  0  0  0
   17.2717   37.9916   -8.4982 C   0  0  0  0  0  0
   15.8575   38.5908   -8.6804 C   0  0  0  0  0  0
   15.2410   38.5500   -7.4130 O   0  0  0  0  0  0
   15.1694   37.7816   -9.6043 O   0  0  0  0  0  0
   15.8027   40.0603   -9.1910 C   0  0  1  0  0  0
   16.7476   40.2789  -10.2906 N   0  0  0  0  0  0
   17.7474   41.1770  -10.3119 C   0  0  0  0  0  0
   18.0056   41.9254   -9.3682 O   0  0  0  0  0  0
   18.5414   41.2701  -11.6269 C   0  0  2  0  0  0
   19.6251   40.1687  -11.6295 C   0  0  0  0  0  0
   14.3669   40.5420   -9.5701 C   0  0  0  0  0  0
   14.1056   42.0717   -9.6825 C   0  0  2  0  0  0
   14.5378   42.6266  -11.0501 C   0  0  0  0  0  0
   14.5851   42.8786   -8.4444 C   0  0  0  0  0  0
   14.6152   44.4107   -8.5866 C   0  0  0  0  0  0
   16.0343   44.8873   -8.9329 C   0  0  0  0  0  0
   16.1615   46.3865   -9.2260 C   0  0  0  0  0  0
   17.6237   46.8671   -9.3111 C   0  0  0  0  0  0
   18.5252   46.0321  -10.2389 C   0  0  0  0  0  0
   18.0854   46.0423  -11.7131 C   0  0  0  0  0  0
   18.8600   45.0417  -12.5854 C   0  0  0  0  0  0
   18.3571   43.5934  -12.4343 C   0  0  0  0  0  0
   17.2600   43.3497  -12.9343 O   0  0  0  0  0  0
   19.1013   42.6389  -11.8096 N   0  0  0  0  0  0
   20.4265   42.9332  -11.2395 C   0  0  0  0  0  0
   16.1499   40.6305   -8.3338 H   0  0  0  0  0  0
   17.8583   41.0323  -12.4398 H   0  0  0  0  0  0
   13.0196   42.1784   -9.6868 H   0  0  0  0  0  0
   21.3603   38.5373   -9.2080 H   0  0  0  0  0  0
   23.2454   40.1468   -9.2028 H   0  0  0  0  0  0
   23.5372   41.7152   -7.3089 H   0  0  0  0  0  0
   22.9615   42.4741   -5.2003 H   0  0  0  0  0  0
   20.8427   43.5712   -5.8480 H   0  0  0  0  0  0
   21.1150   43.6950   -4.1139 H   0  0  0  0  0  0
   19.9437   42.5448   -4.7396 H   0  0  0  0  0  0
   23.0219   40.4491   -3.7779 H   0  0  0  0  0  0
   21.3014   40.6105   -3.4409 H   0  0  0  0  0  0
   22.4281   41.8407   -2.8818 H   0  0  0  0  0  0
   20.0215   40.0739   -5.4084 H   0  0  0  0  0  0
   19.3040   37.7502   -6.3532 H   0  0  0  0  0  0
   19.6459   37.4382   -8.0416 H   0  0  0  0  0  0
   17.6291   39.1110   -6.8568 H   0  0  0  0  0  0
   17.1902   37.0051   -8.0379 H   0  0  0  0  0  0
   17.7294   37.8274   -9.4744 H   0  0  0  0  0  0
   15.4607   37.7257   -6.9708 H   0  0  0  0  0  0
   14.2936   38.1353   -9.6681 H   0  0  0  0  0  0
   16.6351   39.6786  -11.0938 H   0  0  0  0  0  0
   19.1676   39.1807  -11.6780 H   0  0  0  0  0  0
   20.2424   40.1721  -10.7325 H   0  0  0  0  0  0
   20.2833   40.2611  -12.4937 H   0  0  0  0  0  0
   14.0604   40.0649  -10.5017 H   0  0  0  0  0  0
   13.6624   40.1472   -8.8401 H   0  0  0  0  0  0
   14.2112   43.6526  -11.2097 H   0  0  0  0  0  0
   14.0947   42.0365  -11.8492 H   0  0  0  0  0  0
   15.6130   42.6062  -11.1744 H   0  0  0  0  0  0
   13.9520   42.6102   -7.6039 H   0  0  0  0  0  0
   15.5784   42.5791   -8.1305 H   0  0  0  0  0  0
   14.3239   44.8641   -7.6401 H   0  0  0  0  0  0
   13.8826   44.7472   -9.3180 H   0  0  0  0  0  0
   16.6965   44.6325   -8.1030 H   0  0  0  0  0  0
   16.3956   44.3229   -9.7915 H   0  0  0  0  0  0
   15.6600   46.9465   -8.4412 H   0  0  0  0  0  0
   15.6388   46.6230  -10.1505 H   0  0  0  0  0  0
   17.6435   47.9120   -9.6220 H   0  0  0  0  0  0
   18.0561   46.8479   -8.3095 H   0  0  0  0  0  0
   18.5743   45.0086   -9.8661 H   0  0  0  0  0  0
   19.5461   46.4097  -10.1733 H   0  0  0  0  0  0
   17.0194   45.8285  -11.7946 H   0  0  0  0  0  0
   18.2149   47.0468  -12.1154 H   0  0  0  0  0  0
   19.9316   45.1521  -12.4382 H   0  0  0  0  0  0
   18.6855   45.3139  -13.6269 H   0  0  0  0  0  0
   20.7209   42.2318  -10.4607 H   0  0  0  0  0  0
   20.4649   43.9043  -10.7480 H   0  0  0  0  0  0
   21.1844   42.9115  -12.0267 H   0  0  0  0  0  0
  1  9  1  0  0  0
  1  2  2  0  0  0
  1 40  1  0  0  0
  2  3  1  0  0  0
  2 41  1  0  0  0
  3  4  2  0  0  0
  3 42  1  0  0  0
  4  5  1  0  0  0
  4  8  1  0  0  0
  5  6  1  0  0  0
  5  7  1  0  0  0
  5 43  1  0  0  0
  6 44  1  0  0  0
  6 45  1  0  0  0
  6 46  1  0  0  0
  7 47  1  0  0  0
  7 48  1  0  0  0
  7 49  1  0  0  0
  8  9  2  0  0  0
  8 50  1  0  0  0
  9 10  1  0  0  0
 10 11  1  0  0  0
 10 51  1  0  0  0
 10 52  1  0  0  0
 11 12  1  0  0  0
 11 53  1  0  0  0
 12 13  1  0  0  0
 12 54  1  0  0  0
 12 55  1  0  0  0
 13 14  1  0  0  0
 13 15  1  0  0  0
 13 16  1  0  0  0
 14 56  1  0  0  0
 15 57  1  0  0  0
 16 37  1  0  0  0
 16 17  1  0  0  0
 16 22  1  0  0  0
 17 18  1  0  0  0
 17 58  1  0  0  0
 18 19  2  0  0  0
 18 20  1  0  0  0
 20 38  1  0  0  0
 20 35  1  0  0  0
 20 21  1  0  0  0
 21 59  1  0  0  0
 21 60  1  0  0  0
 21 61  1  0  0  0
 22 23  1  0  0  0
 22 62  1  0  0  0
 22 63  1  0  0  0
 23 39  1  0  0  0
 23 24  1  0  0  0
 23 25  1  0  0  0
 24 64  1  0  0  0
 24 65  1  0  0  0
 24 66  1  0  0  0
 25 26  1  0  0  0
 25 67  1  0  0  0
 25 68  1  0  0  0
 26 27  1  0  0  0
 26 69  1  0  0  0
 26 70  1  0  0  0
 27 28  1  0  0  0
 27 71  1  0  0  0
 27 72  1  0  0  0
 28 29  1  0  0  0
 28 73  1  0  0  0
 28 74  1  0  0  0
 29 30  1  0  0  0
 29 75  1  0  0  0
 29 76  1  0  0  0
 30 31  1  0  0  0
 30 77  1  0  0  0
 30 78  1  0  0  0
 31 32  1  0  0  0
 31 79  1  0  0  0
 31 80  1  0  0  0
 32 33  1  0  0  0
 32 81  1  0  0  0
 32 82  1  0  0  0
 33 34  2  0  0  0
 33 35  1  0  0  0
 35 36  1  0  0  0
 36 83  1  0  0  0
 36 84  1  0  0  0
 36 85  1  0  0  0
M  END
> <s_m_source_file>
BACE_3.smi

> <i_m_source_file_index>
1

> <i_lp_mmshare_version>
42013

> <i_f3d_flags>
0

> <s_epik_input>
W0NIM11bQ0hdKFtDSDNdKWMxW2NIXVtjSF1bY0hdYyhbY0hdMSlbQ0gyXVtOSF1bQ0gyXUMoW09IXSkoW09IXSlbQ0BIXTJbTkhdQyg9TylbQ0BIXShbQ0gzXSlOKFtDSDNdKUMoPU8pW0NIMl1bQ0gyXVtDSDJdW0NIMl1bQ0gyXVtDSDJdW0NIMl1bQ0gyXVtDQEhdKFtDSDJdMilbQ0gzXQ==

> <s_epik_cmdline>
J2VwaWtfcHl0aG9uJywgJy1waCcsICc3LjAnLCAnLXRuJywgJzgnLCAnLW1hJywgJzIwMCcsICctaW1hZScsICc8aW5maWxlLm1hZT4nLCAnLW9tYWUnLCAnPG91dGZpbGUubWFlPic=

> <r_epik_Ionization_Penalty>
  2.0740

> <r_epik_Ionization_Penalty_Charging>
  0.0000

> <r_epik_Ionization_Penalty_Neutral>
  2.0740

> <r_epik_State_Penalty>
  2.2081

> <r_epik_Charging_Adjusted_Penalty>
2.20813

> <i_epik_Tot_Q>
0

> <i_epik_Tot_abs_Q>
0

> <s_lp_Force_Field>
OPLS_2005

> <r_lp_Energy>
49.929

> <b_lp_Chiralities_Consistent>
1

> <s_lp_Variant>
BACE_3.smi:1-2

> <chiral flag>
1

> <version>
0

> <r_i_glide_lipo>
-0.428916

> <r_i_glide_hbond>
-0.0522614

> <r_i_glide_metal>
-0

> <r_i_glide_rewards>
-0.0327321

> <r_i_glide_erotb>
0.402825

> <r_i_glide_esite>
-0.0410514

> <chiral flag>
1

> <s_i_glide_gridfile>
second_dock_grid_2

> <i_i_glide_lignum>
5

> <i_i_glide_rotatable_bonds>
8

> <r_i_docking_score>
-1.14733

> <r_i_glide_ligand_efficiency>
-0.0318702

> <r_i_glide_ligand_efficiency_sa>
-0.105233

> <r_i_glide_ligand_efficiency_ln>
-0.250316

> <r_glide_XP_GScore>
-3.35543

> <r_i_glide_gscore>
-3.35543

> <r_i_glide_evdw>
-39.5465

> <r_i_glide_ecoul>
-9.45511

> <r_i_glide_energy>
-49.0016

> <r_i_glide_einternal>
2.51685

> <r_i_glide_emodel>
-62.6628

> <r_glide_XP_HBond>
-1.625

> <i_i_glide_confnum>
1

> <i_i_glide_posenum>
10

> <r_i_glide_eff_state_penalty>
2.2081

> <i_glide_XP_PoseRank>
5

$$$$
BACE_4.smi:1
                    3D
 Structure written by MMmdl.
 89 91  0  0  1  0            999 V2000
   21.2763   44.9573   -5.2384 C   0  0  0  0  0  0
   22.5807   44.3463   -4.7344 C   0  0  2  0  0  0
   23.6938   44.5281   -5.7897 C   0  0  0  0  0  0
   23.5703   45.8369   -6.5930 C   0  0  0  0  0  0
   23.7085   47.1225   -5.7520 C   0  0  0  0  0  0
   23.4915   48.4253   -6.5541 C   0  0  0  0  0  0
   22.1075   48.5733   -7.2273 C   0  0  0  0  0  0
   20.9196   48.5478   -6.2430 C   0  0  0  0  0  0
   19.5354   48.6935   -6.9141 O   0  0  0  0  0  0
   19.0914   47.5037   -7.8101 C   0  0  0  0  0  0
   18.8914   46.1559   -7.1001 C   0  0  0  0  0  0
   18.6796   46.1112   -5.8994 O   0  0  0  0  0  0
   18.9392   45.0688   -7.8850 N   0  0  0  0  0  0
   18.8600   43.6935   -7.3447 C   0  0  2  0  0  0
   20.2701   43.1172   -7.0911 C   0  0  0  0  0  0
   21.1472   43.2032   -7.9348 O   0  0  0  0  0  0
   20.4507   42.5252   -5.8977 N   0  0  0  0  0  0
   21.7136   41.9552   -5.4124 C   0  0  1  0  0  0
   22.3238   42.8792   -4.3171 C   0  0  0  0  0  0
   21.5085   40.4706   -4.9757 C   0  0  1  0  0  0
   20.9750   39.5397   -6.0867 C   0  0  0  0  0  0
   19.5159   39.4166   -6.0417 N   0  0  0  0  0  0
   18.8816   38.9237   -7.2740 C   0  0  0  0  0  0
   17.3728   38.9299   -7.3346 C   0  0  0  0  0  0
   18.1174   37.6237   -7.1954 C   0  0  0  0  0  0
   19.6399   39.2190   -8.5601 C   0  0  0  0  0  0
   20.8326   38.5252   -8.8522 C   0  0  0  0  0  0
   21.5401   38.7958  -10.0359 C   0  0  0  0  0  0
   21.0630   39.7645  -10.9376 C   0  0  0  0  0  0
   19.8713   40.4843  -10.6751 C   0  0  0  0  0  0
   19.1735   40.1938   -9.4726 C   0  0  0  0  0  0
   19.3795   41.5449  -11.6890 C   0  0  0  0  0  0
   19.9687   41.2456  -13.0872 C   0  0  0  0  0  0
   17.8353   41.5161  -11.7693 C   0  0  0  0  0  0
   19.7934   42.9902  -11.3153 C   0  0  0  0  0  0
   22.7336   39.9181   -4.5317 O   0  0  0  0  0  0
   18.1805   42.7989   -8.3774 C   0  0  0  0  0  0
   19.1958   45.2692   -9.2969 C   0  0  0  0  0  0
   22.8396   44.9277   -3.8495 H   0  0  0  0  0  0
   18.2421   43.6331   -6.4488 H   0  0  0  0  0  0
   22.4030   41.9516   -6.2563 H   0  0  0  0  0  0
   20.8145   40.4181   -4.1357 H   0  0  0  0  0  0
   21.4055   46.0016   -5.5221 H   0  0  0  0  0  0
   20.4975   44.9363   -4.4769 H   0  0  0  0  0  0
   20.8964   44.4264   -6.1121 H   0  0  0  0  0  0
   24.6727   44.4617   -5.3149 H   0  0  0  0  0  0
   23.6600   43.7074   -6.5062 H   0  0  0  0  0  0
   22.6072   45.8247   -7.1033 H   0  0  0  0  0  0
   24.3219   45.8444   -7.3824 H   0  0  0  0  0  0
   23.0151   47.0985   -4.9113 H   0  0  0  0  0  0
   24.7015   47.1457   -5.3031 H   0  0  0  0  0  0
   24.2641   48.5022   -7.3191 H   0  0  0  0  0  0
   23.6552   49.2758   -5.8922 H   0  0  0  0  0  0
   22.0886   49.5134   -7.7786 H   0  0  0  0  0  0
   21.9872   47.7975   -7.9834 H   0  0  0  0  0  0
   21.0459   49.3569   -5.5236 H   0  0  0  0  0  0
   20.9366   47.6303   -5.6548 H   0  0  0  0  0  0
   19.7984   47.3810   -8.6305 H   0  0  0  0  0  0
   18.1386   47.7520   -8.2776 H   0  0  0  0  0  0
   19.6566   42.5048   -5.2740 H   0  0  0  0  0  0
   21.6580   42.8744   -3.4542 H   0  0  0  0  0  0
   23.2546   42.4385   -3.9598 H   0  0  0  0  0  0
   21.4198   38.5517   -5.9617 H   0  0  0  0  0  0
   21.2991   39.8937   -7.0649 H   0  0  0  0  0  0
   19.0891   40.2906   -5.7516 H   0  0  0  0  0  0
   16.8340   39.2993   -6.4620 H   0  0  0  0  0  0
   16.9071   39.1456   -8.2963 H   0  0  0  0  0  0
   18.1496   36.9660   -8.0640 H   0  0  0  0  0  0
   18.0766   37.1197   -6.2298 H   0  0  0  0  0  0
   21.2105   37.7798   -8.1674 H   0  0  0  0  0  0
   22.4520   38.2592  -10.2535 H   0  0  0  0  0  0
   21.6321   39.9466  -11.8369 H   0  0  0  0  0  0
   18.2636   40.7131   -9.2169 H   0  0  0  0  0  0
   21.0594   41.2455  -13.0664 H   0  0  0  0  0  0
   19.6599   41.9926  -13.8197 H   0  0  0  0  0  0
   19.6510   40.2780  -13.4760 H   0  0  0  0  0  0
   17.3837   41.7115  -10.7957 H   0  0  0  0  0  0
   17.4529   40.5569  -12.1183 H   0  0  0  0  0  0
   17.4564   42.2721  -12.4584 H   0  0  0  0  0  0
   19.3835   43.2969  -10.3520 H   0  0  0  0  0  0
   19.4300   43.7101  -12.0500 H   0  0  0  0  0  0
   20.8773   43.1082  -11.2764 H   0  0  0  0  0  0
   23.0054   40.3789   -3.7527 H   0  0  0  0  0  0
   18.0733   41.7783   -8.0074 H   0  0  0  0  0  0
   18.7407   42.7521   -9.3118 H   0  0  0  0  0  0
   17.1789   43.1599   -8.6141 H   0  0  0  0  0  0
   19.0574   44.3701   -9.8944 H   0  0  0  0  0  0
   20.2162   45.6152   -9.4663 H   0  0  0  0  0  0
   18.5026   45.9953   -9.7236 H   0  0  0  0  0  0
  1  2  1  0  0  0
  1 43  1  0  0  0
  1 44  1  0  0  0
  1 45  1  0  0  0
  2 39  1  0  0  0
  2 19  1  0  0  0
  2  3  1  0  0  0
  3  4  1  0  0  0
  3 46  1  0  0  0
  3 47  1  0  0  0
  4  5  1  0  0  0
  4 48  1  0  0  0
  4 49  1  0  0  0
  5  6  1  0  0  0
  5 50  1  0  0  0
  5 51  1  0  0  0
  6  7  1  0  0  0
  6 52  1  0  0  0
  6 53  1  0  0  0
  7  8  1  0  0  0
  7 54  1  0  0  0
  7 55  1  0  0  0
  8  9  1  0  0  0
  8 56  1  0  0  0
  8 57  1  0  0  0
  9 10  1  0  0  0
 10 11  1  0  0  0
 10 58  1  0  0  0
 10 59  1  0  0  0
 11 12  2  0  0  0
 11 13  1  0  0  0
 13 14  1  0  0  0
 13 38  1  0  0  0
 14 40  1  0  0  0
 14 15  1  0  0  0
 14 37  1  0  0  0
 15 16  2  0  0  0
 15 17  1  0  0  0
 17 18  1  0  0  0
 17 60  1  0  0  0
 18 41  1  0  0  0
 18 19  1  0  0  0
 18 20  1  0  0  0
 19 61  1  0  0  0
 19 62  1  0  0  0
 20 42  1  0  0  0
 20 21  1  0  0  0
 20 36  1  0  0  0
 21 22  1  0  0  0
 21 63  1  0  0  0
 21 64  1  0  0  0
 22 23  1  0  0  0
 22 65  1  0  0  0
 23 25  1  0  0  0
 23 24  1  0  0  0
 23 26  1  0  0  0
 24 25  1  0  0  0
 24 66  1  0  0  0
 24 67  1  0  0  0
 25 68  1  0  0  0
 25 69  1  0  0  0
 26 31  1  0  0  0
 26 27  2  0  0  0
 27 28  1  0  0  0
 27 70  1  0  0  0
 28 29  2  0  0  0
 28 71  1  0  0  0
 29 30  1  0  0  0
 29 72  1  0  0  0
 30 31  2  0  0  0
 30 32  1  0  0  0
 31 73  1  0  0  0
 32 33  1  0  0  0
 32 34  1  0  0  0
 32 35  1  0  0  0
 33 74  1  0  0  0
 33 75  1  0  0  0
 33 76  1  0  0  0
 34 77  1  0  0  0
 34 78  1  0  0  0
 34 79  1  0  0  0
 35 80  1  0  0  0
 35 81  1  0  0  0
 35 82  1  0  0  0
 36 83  1  0  0  0
 37 84  1  0  0  0
 37 85  1  0  0  0
 37 86  1  0  0  0
 38 87  1  0  0  0
 38 88  1  0  0  0
 38 89  1  0  0  0
M  END
> <s_m_source_file>
BACE_4.smi

> <i_m_source_file_index>
1

> <i_lp_mmshare_version>
42013

> <i_f3d_flags>
0

> <s_epik_input>
W0NIM11bQ0BASF0xW0NIMl1bQ0gyXVtDSDJdW0NIMl1bQ0gyXVtDSDJdT1tDSDJdQyg9TylOKFtDSDNdKVtDQEBIXShbQ0gzXSlDKD1PKVtOSF1bQ0BASF0oW0NIMl0xKVtDQEhdKFtPSF0pW0NIMl1bTkhdQzIoW0NIMl1bQ0gyXTIpYzNbY0hdW2NIXVtjSF1jKFtjSF0zKUMoW0NIM10pKFtDSDNdKVtDSDNd

> <s_epik_cmdline>
J2VwaWtfcHl0aG9uJywgJy1waCcsICc3LjAnLCAnLXRuJywgJzgnLCAnLW1hJywgJzIwMCcsICctaW1hZScsICc8aW5maWxlLm1hZT4nLCAnLW9tYWUnLCAnPG91dGZpbGUubWFlPic=

> <r_epik_Ionization_Penalty>
  0.3385

> <r_epik_Ionization_Penalty_Charging>
  0.0000

> <r_epik_Ionization_Penalty_Neutral>
  0.3385

> <r_epik_State_Penalty>
  0.3341

> <r_epik_Charging_Adjusted_Penalty>
0.334061

> <i_epik_Tot_Q>
0

> <i_epik_Tot_abs_Q>
0

> <s_lp_Force_Field>
OPLS_2005

> <r_lp_Energy>
57.6864

> <b_lp_Chiralities_Consistent>
1

> <s_lp_Variant>
BACE_4.smi:1-1

> <chiral flag>
1

> <version>
0

> <r_i_glide_lipo>
-1.06031

> <r_i_glide_hbond>
-0.243742

> <r_i_glide_metal>
-0

> <r_i_glide_rewards>
0

> <r_i_glide_erotb>
0.36719

> <r_i_glide_esite>
-0.00466178

> <chiral flag>
1

> <s_i_glide_gridfile>
second_dock_grid_2

> <i_i_glide_lignum>
6

> <i_i_glide_rotatable_bonds>
7

> <r_i_docking_score>
-3.75413

> <r_i_glide_ligand_efficiency>
-0.098793

> <r_i_glide_ligand_efficiency_sa>
-0.332139

> <r_i_glide_ligand_efficiency_ln>
-0.809501

> <r_glide_XP_GScore>
-4.08823

> <r_i_glide_gscore>
-4.08823

> <r_i_glide_evdw>
-34.3035

> <r_i_glide_ecoul>
-8.71538

> <r_i_glide_energy>
-43.0189

> <r_i_glide_einternal>
6.8403

> <r_i_glide_emodel>
-63.65

> <r_glide_XP_HBond>
-0.990889

> <i_i_glide_confnum>
1

> <i_i_glide_posenum>
3

> <r_i_glide_eff_state_penalty>
0.3341

> <i_glide_XP_PoseRank>
1

$$$$
BACE_4.smi:1
                    3D
 Structure written by MMmdl.
 89 91  0  0  1  0            999 V2000
   21.2223   45.4610   -5.2401 C   0  0  0  0  0  0
   22.4370   44.5336   -5.0662 C   0  0  2  0  0  0
   23.5309   44.5895   -6.1810 C   0  0  0  0  0  0
   23.3389   45.5667   -7.3637 C   0  0  0  0  0  0
   23.5069   47.0617   -7.0246 C   0  0  0  0  0  0
   23.0861   48.0157   -8.1611 C   0  0  0  0  0  0
   21.5801   48.0350   -8.4989 C   0  0  0  0  0  0
   20.6725   48.5273   -7.3508 C   0  0  0  0  0  0
   19.3113   48.7541   -7.7272 O   0  0  0  0  0  0
   18.6060   47.7058   -8.4016 C   0  0  0  0  0  0
   18.4717   46.4122   -7.5614 C   0  0  0  0  0  0
   18.4606   46.5167   -6.3325 O   0  0  0  0  0  0
   18.3535   45.2126   -8.1964 N   0  0  0  0  0  0
   18.3648   43.9415   -7.4166 C   0  0  2  0  0  0
   19.7890   43.3590   -7.2582 C   0  0  0  0  0  0
   20.6276   43.5131   -8.1450 O   0  0  0  0  0  0
   20.0599   42.7216   -6.1040 N   0  0  0  0  0  0
   21.3460   42.1616   -5.6804 C   0  0  1  0  0  0
   22.0425   43.0903   -4.6392 C   0  0  0  0  0  0
   21.1207   40.7156   -5.1365 C   0  0  1  0  0  0
   20.7098   39.7152   -6.2340 C   0  0  0  0  0  0
   19.2611   39.6311   -6.4426 N   0  0  0  0  0  0
   18.7285   38.8820   -7.5880 C   0  0  0  0  0  0
   17.2204   38.7506   -7.6518 C   0  0  0  0  0  0
   18.0719   37.5494   -7.3282 C   0  0  0  0  0  0
   19.5256   39.1016   -8.8408 C   0  0  0  0  0  0
   20.7684   38.4615   -9.0018 C   0  0  0  0  0  0
   21.6292   38.8367  -10.0399 C   0  0  0  0  0  0
   21.2264   39.8054  -10.9718 C   0  0  0  0  0  0
   19.9450   40.4021  -10.8860 C   0  0  0  0  0  0
   19.1066   40.0323   -9.8099 C   0  0  0  0  0  0
   19.5230   41.4855  -11.8880 C   0  0  0  0  0  0
   20.0665   41.1628  -13.2855 C   0  0  0  0  0  0
   17.9877   41.6279  -12.0107 C   0  0  0  0  0  0
   20.1137   42.8239  -11.4256 C   0  0  0  0  0  0
   22.3396   40.2224   -4.6176 O   0  0  0  0  0  0
   17.4634   42.8492   -8.0212 C   0  0  0  0  0  0
   18.2374   45.1659   -9.6662 C   0  0  0  0  0  0
   22.9286   44.9309   -4.1794 H   0  0  0  0  0  0
   17.9454   44.1363   -6.4400 H   0  0  0  0  0  0
   22.0010   42.0809   -6.5480 H   0  0  0  0  0  0
   20.3974   40.7162   -4.3216 H   0  0  0  0  0  0
   21.4264   46.4552   -4.8519 H   0  0  0  0  0  0
   20.3574   45.0883   -4.6935 H   0  0  0  0  0  0
   20.9195   45.5694   -6.2735 H   0  0  0  0  0  0
   24.4983   44.7887   -5.7186 H   0  0  0  0  0  0
   23.6472   43.5954   -6.6122 H   0  0  0  0  0  0
   22.3824   45.3762   -7.8418 H   0  0  0  0  0  0
   24.0761   45.3172   -8.1279 H   0  0  0  0  0  0
   22.9749   47.3282   -6.1164 H   0  0  0  0  0  0
   24.5579   47.2395   -6.7917 H   0  0  0  0  0  0
   23.6422   47.7522   -9.0602 H   0  0  0  0  0  0
   23.3999   49.0266   -7.9024 H   0  0  0  0  0  0
   21.4301   48.6879   -9.3595 H   0  0  0  0  0  0
   21.2674   47.0453   -8.8260 H   0  0  0  0  0  0
   21.0555   49.4779   -6.9824 H   0  0  0  0  0  0
   20.7118   47.8504   -6.5031 H   0  0  0  0  0  0
   19.0852   47.5382   -9.3623 H   0  0  0  0  0  0
   17.6034   48.0691   -8.6179 H   0  0  0  0  0  0
   19.2928   42.5852   -5.4609 H   0  0  0  0  0  0
   21.4134   43.1471   -3.7482 H   0  0  0  0  0  0
   22.9626   42.6153   -4.2985 H   0  0  0  0  0  0
   21.0838   38.7108   -6.0248 H   0  0  0  0  0  0
   21.2142   40.0440   -7.1396 H   0  0  0  0  0  0
   18.7120   40.4428   -6.1544 H   0  0  0  0  0  0
   16.6239   39.1440   -6.8300 H   0  0  0  0  0  0
   16.7320   38.7518   -8.6250 H   0  0  0  0  0  0
   18.1267   36.7768   -8.0949 H   0  0  0  0  0  0
   18.0601   37.1937   -6.3001 H   0  0  0  0  0  0
   21.1020   37.7509   -8.2648 H   0  0  0  0  0  0
   22.5994   38.3721  -10.1187 H   0  0  0  0  0  0
   21.9265   40.0817  -11.7443 H   0  0  0  0  0  0
   18.1366   40.4760   -9.6792 H   0  0  0  0  0  0
   21.1498   41.2645  -13.3465 H   0  0  0  0  0  0
   19.6403   41.8172  -14.0393 H   0  0  0  0  0  0
   19.8128   40.1487  -13.5727 H   0  0  0  0  0  0
   17.5248   41.9885  -11.0959 H   0  0  0  0  0  0
   17.5242   40.6730  -12.2599 H   0  0  0  0  0  0
   17.7172   42.3482  -12.7832 H   0  0  0  0  0  0
   19.8016   43.0316  -10.4079 H   0  0  0  0  0  0
   19.7864   43.6611  -12.0397 H   0  0  0  0  0  0
   21.2032   42.8050  -11.4308 H   0  0  0  0  0  0
   22.9648   40.1800   -5.3233 H   0  0  0  0  0  0
   17.3369   42.0195   -7.3221 H   0  0  0  0  0  0
   17.8851   42.4387   -8.9331 H   0  0  0  0  0  0
   16.4661   43.2294   -8.2440 H   0  0  0  0  0  0
   17.9131   44.2162  -10.0750 H   0  0  0  0  0  0
   19.1971   45.3961  -10.1287 H   0  0  0  0  0  0
   17.5011   45.8855  -10.0229 H   0  0  0  0  0  0
  1  2  1  0  0  0
  1 43  1  0  0  0
  1 44  1  0  0  0
  1 45  1  0  0  0
  2 39  1  0  0  0
  2 19  1  0  0  0
  2  3  1  0  0  0
  3  4  1  0  0  0
  3 46  1  0  0  0
  3 47  1  0  0  0
  4  5  1  0  0  0
  4 48  1  0  0  0
  4 49  1  0  0  0
  5  6  1  0  0  0
  5 50  1  0  0  0
  5 51  1  0  0  0
  6  7  1  0  0  0
  6 52  1  0  0  0
  6 53  1  0  0  0
  7  8  1  0  0  0
  7 54  1  0  0  0
  7 55  1  0  0  0
  8  9  1  0  0  0
  8 56  1  0  0  0
  8 57  1  0  0  0
  9 10  1  0  0  0
 10 11  1  0  0  0
 10 58  1  0  0  0
 10 59  1  0  0  0
 11 12  2  0  0  0
 11 13  1  0  0  0
 13 14  1  0  0  0
 13 38  1  0  0  0
 14 40  1  0  0  0
 14 15  1  0  0  0
 14 37  1  0  0  0
 15 16  2  0  0  0
 15 17  1  0  0  0
 17 18  1  0  0  0
 17 60  1  0  0  0
 18 41  1  0  0  0
 18 19  1  0  0  0
 18 20  1  0  0  0
 19 61  1  0  0  0
 19 62  1  0  0  0
 20 42  1  0  0  0
 20 21  1  0  0  0
 20 36  1  0  0  0
 21 22  1  0  0  0
 21 63  1  0  0  0
 21 64  1  0  0  0
 22 23  1  0  0  0
 22 65  1  0  0  0
 23 25  1  0  0  0
 23 24  1  0  0  0
 23 26  1  0  0  0
 24 25  1  0  0  0
 24 66  1  0  0  0
 24 67  1  0  0  0
 25 68  1  0  0  0
 25 69  1  0  0  0
 26 31  1  0  0  0
 26 27  2  0  0  0
 27 28  1  0  0  0
 27 70  1  0  0  0
 28 29  2  0  0  0
 28 71  1  0  0  0
 29 30  1  0  0  0
 29 72  1  0  0  0
 30 31  2  0  0  0
 30 32  1  0  0  0
 31 73  1  0  0  0
 32 33  1  0  0  0
 32 34  1  0  0  0
 32 35  1  0  0  0
 33 74  1  0  0  0
 33 75  1  0  0  0
 33 76  1  0  0  0
 34 77  1  0  0  0
 34 78  1  0  0  0
 34 79  1  0  0  0
 35 80  1  0  0  0
 35 81  1  0  0  0
 35 82  1  0  0  0
 36 83  1  0  0  0
 37 84  1  0  0  0
 37 85  1  0  0  0
 37 86  1  0  0  0
 38 87  1  0  0  0
 38 88  1  0  0  0
 38 89  1  0  0  0
M  END
> <s_m_source_file>
BACE_4.smi

> <i_m_source_file_index>
1

> <i_lp_mmshare_version>
42013

> <i_f3d_flags>
0

> <s_epik_input>
W0NIM11bQ0BASF0xW0NIMl1bQ0gyXVtDSDJdW0NIMl1bQ0gyXVtDSDJdT1tDSDJdQyg9TylOKFtDSDNdKVtDQEBIXShbQ0gzXSlDKD1PKVtOSF1bQ0BASF0oW0NIMl0xKVtDQEhdKFtPSF0pW0NIMl1bTkhdQzIoW0NIMl1bQ0gyXTIpYzNbY0hdW2NIXVtjSF1jKFtjSF0zKUMoW0NIM10pKFtDSDNdKVtDSDNd

> <s_epik_cmdline>
J2VwaWtfcHl0aG9uJywgJy1waCcsICc3LjAnLCAnLXRuJywgJzgnLCAnLW1hJywgJzIwMCcsICctaW1hZScsICc8aW5maWxlLm1hZT4nLCAnLW9tYWUnLCAnPG91dGZpbGUubWFlPic=

> <r_epik_Ionization_Penalty>
  0.3385

> <r_epik_Ionization_Penalty_Charging>
  0.0000

> <r_epik_Ionization_Penalty_Neutral>
  0.3385

> <r_epik_State_Penalty>
  0.3341

> <r_epik_Charging_Adjusted_Penalty>
0.334061

> <i_epik_Tot_Q>
0

> <i_epik_Tot_abs_Q>
0

> <s_lp_Force_Field>
OPLS_2005

> <r_lp_Energy>
57.6864

> <b_lp_Chiralities_Consistent>
1

> <s_lp_Variant>
BACE_4.smi:1-1

> <chiral flag>
1

> <version>
0

> <r_i_glide_lipo>
-1.06031

> <r_i_glide_hbond>
-0.243742

> <r_i_glide_metal>
-0

> <r_i_glide_rewards>
0

> <r_i_glide_erotb>
0.36719

> <r_i_glide_esite>
-0.00466178

> <chiral flag>
1

> <s_i_glide_gridfile>
second_dock_grid_2

> <i_i_glide_lignum>
6

> <i_i_glide_rotatable_bonds>
7

> <r_i_docking_score>
-3.21918

> <r_i_glide_ligand_efficiency>
-0.0847154

> <r_i_glide_ligand_efficiency_sa>
-0.284811

> <r_i_glide_ligand_efficiency_ln>
-0.694151

> <r_glide_XP_GScore>
-3.55328

> <r_i_glide_gscore>
-3.55328

> <r_i_glide_evdw>
-33.6479

> <r_i_glide_ecoul>
-8.38594

> <r_i_glide_energy>
-42.0339

> <r_i_glide_einternal>
3.20406

> <r_i_glide_emodel>
-64.6681

> <r_glide_XP_HBond>
-0.990889

> <i_i_glide_confnum>
1

> <i_i_glide_posenum>
2

> <r_i_glide_eff_state_penalty>
0.3341

> <i_glide_XP_PoseRank>
2

$$$$
BACE_4.smi:1
                    3D
 Structure written by MMmdl.
 89 91  0  0  1  0            999 V2000
   21.2127   44.8319   -5.2032 C   0  0  0  0  0  0
   22.4959   44.1800   -4.6961 C   0  0  2  0  0  0
   23.6264   44.3576   -5.7333 C   0  0  0  0  0  0
   23.5438   45.6854   -6.5102 C   0  0  0  0  0  0
   23.7011   46.9495   -5.6404 C   0  0  0  0  0  0
   23.5248   48.2736   -6.4173 C   0  0  0  0  0  0
   22.1535   48.4682   -7.1044 C   0  0  0  0  0  0
   20.9526   48.4501   -6.1357 C   0  0  0  0  0  0
   19.5810   48.6423   -6.8207 O   0  0  0  0  0  0
   19.1211   47.4823   -7.7472 C   0  0  0  0  0  0
   18.8805   46.1250   -7.0685 C   0  0  0  0  0  0
   18.6523   46.0602   -5.8718 O   0  0  0  0  0  0
   18.9132   45.0537   -7.8757 N   0  0  0  0  0  0
   18.7951   43.6697   -7.3657 C   0  0  2  0  0  0
   20.1879   43.0552   -7.1069 C   0  0  0  0  0  0
   21.0776   43.1381   -7.9376 O   0  0  0  0  0  0
   20.3393   42.4342   -5.9242 N   0  0  0  0  0  0
   21.5822   41.8246   -5.4354 C   0  0  1  0  0  0
   22.1996   42.7109   -4.3132 C   0  0  0  0  0  0
   21.3370   40.3365   -5.0329 C   0  0  1  0  0  0
   20.8409   39.4313   -6.1819 C   0  0  0  0  0  0
   19.3785   39.3536   -6.2230 N   0  0  0  0  0  0
   18.8036   38.8645   -7.4855 C   0  0  0  0  0  0
   17.2986   38.7977   -7.5890 C   0  0  0  0  0  0
   18.1039   37.5265   -7.4633 C   0  0  0  0  0  0
   19.5808   39.2328   -8.7412 C   0  0  0  0  0  0
   20.8240   38.6221   -9.0071 C   0  0  0  0  0  0
   21.5489   38.9604  -10.1625 C   0  0  0  0  0  0
   21.0387   39.9146  -11.0616 C   0  0  0  0  0  0
   19.7958   40.5518  -10.8248 C   0  0  0  0  0  0
   19.0812   40.1938   -9.6506 C   0  0  0  0  0  0
   19.2685   41.5989  -11.8350 C   0  0  0  0  0  0
   19.6430   43.0215  -11.3582 C   0  0  0  0  0  0
   19.8945   41.3458  -13.2263 C   0  0  0  0  0  0
   17.7296   41.5627  -12.0099 C   0  0  0  0  0  0
   22.5330   39.7590   -4.5438 O   0  0  0  0  0  0
   18.1083   42.8131   -8.4255 C   0  0  0  0  0  0
   19.1927   45.2775   -9.2797 C   0  0  0  0  0  0
   22.7568   44.7364   -3.7959 H   0  0  0  0  0  0
   18.1644   43.6051   -6.4790 H   0  0  0  0  0  0
   22.2822   41.8225   -6.2705 H   0  0  0  0  0  0
   20.6054   40.2809   -4.2256 H   0  0  0  0  0  0
   21.3698   45.8786   -5.4630 H   0  0  0  0  0  0
   20.4238   44.8133   -4.4521 H   0  0  0  0  0  0
   20.8318   44.3285   -6.0926 H   0  0  0  0  0  0
   24.5973   44.2582   -5.2479 H   0  0  0  0  0  0
   23.5828   43.5531   -6.4675 H   0  0  0  0  0  0
   22.5874   45.7066   -7.0325 H   0  0  0  0  0  0
   24.3055   45.6917   -7.2899 H   0  0  0  0  0  0
   22.9965   46.9243   -4.8091 H   0  0  0  0  0  0
   24.6885   46.9400   -5.1788 H   0  0  0  0  0  0
   24.3088   48.3483   -7.1709 H   0  0  0  0  0  0
   23.6997   49.1059   -5.7356 H   0  0  0  0  0  0
   22.1636   49.4198   -7.6358 H   0  0  0  0  0  0
   22.0249   47.7114   -7.8782 H   0  0  0  0  0  0
   21.0884   49.2407   -5.3978 H   0  0  0  0  0  0
   20.9407   47.5203   -5.5669 H   0  0  0  0  0  0
   19.8356   47.3602   -8.5612 H   0  0  0  0  0  0
   18.1804   47.7627   -8.2211 H   0  0  0  0  0  0
   19.5370   42.4195   -5.3109 H   0  0  0  0  0  0
   21.5227   42.7038   -3.4589 H   0  0  0  0  0  0
   23.1151   42.2411   -3.9539 H   0  0  0  0  0  0
   21.2470   38.4290   -6.0405 H   0  0  0  0  0  0
   21.2324   39.7825   -7.1361 H   0  0  0  0  0  0
   18.9629   40.2441   -5.9686 H   0  0  0  0  0  0
   16.7184   39.1154   -6.7226 H   0  0  0  0  0  0
   16.8490   39.0167   -8.5575 H   0  0  0  0  0  0
   18.1928   36.8957   -8.3477 H   0  0  0  0  0  0
   18.0622   36.9944   -6.5129 H   0  0  0  0  0  0
   21.2275   37.8888   -8.3239 H   0  0  0  0  0  0
   22.4996   38.4873  -10.3602 H   0  0  0  0  0  0
   21.6225   40.1501  -11.9388 H   0  0  0  0  0  0
   18.1324   40.6491   -9.4151 H   0  0  0  0  0  0
   19.2276   43.2315  -10.3716 H   0  0  0  0  0  0
   19.2618   43.7846  -12.0381 H   0  0  0  0  0  0
   20.7210   43.1707  -11.2953 H   0  0  0  0  0  0
   19.6609   40.3443  -13.5902 H   0  0  0  0  0  0
   20.9801   41.4443  -13.2202 H   0  0  0  0  0  0
   19.5214   42.0537  -13.9676 H   0  0  0  0  0  0
   17.3830   40.5982  -12.3835 H   0  0  0  0  0  0
   17.3937   42.3119  -12.7283 H   0  0  0  0  0  0
   17.2067   41.7732  -11.0759 H   0  0  0  0  0  0
   22.3644   39.4019   -3.6853 H   0  0  0  0  0  0
   17.9726   41.7878   -8.0786 H   0  0  0  0  0  0
   18.6793   42.7727   -9.3537 H   0  0  0  0  0  0
   17.1186   43.2025   -8.6669 H   0  0  0  0  0  0
   19.0411   44.3947   -9.8978 H   0  0  0  0  0  0
   20.2229   45.6030   -9.4290 H   0  0  0  0  0  0
   18.5221   46.0285   -9.6995 H   0  0  0  0  0  0
  1  2  1  0  0  0
  1 43  1  0  0  0
  1 44  1  0  0  0
  1 45  1  0  0  0
  2 39  1  0  0  0
  2 19  1  0  0  0
  2  3  1  0  0  0
  3  4  1  0  0  0
  3 46  1  0  0  0
  3 47  1  0  0  0
  4  5  1  0  0  0
  4 48  1  0  0  0
  4 49  1  0  0  0
  5  6  1  0  0  0
  5 50  1  0  0  0
  5 51  1  0  0  0
  6  7  1  0  0  0
  6 52  1  0  0  0
  6 53  1  0  0  0
  7  8  1  0  0  0
  7 54  1  0  0  0
  7 55  1  0  0  0
  8  9  1  0  0  0
  8 56  1  0  0  0
  8 57  1  0  0  0
  9 10  1  0  0  0
 10 11  1  0  0  0
 10 58  1  0  0  0
 10 59  1  0  0  0
 11 12  2  0  0  0
 11 13  1  0  0  0
 13 14  1  0  0  0
 13 38  1  0  0  0
 14 40  1  0  0  0
 14 15  1  0  0  0
 14 37  1  0  0  0
 15 16  2  0  0  0
 15 17  1  0  0  0
 17 18  1  0  0  0
 17 60  1  0  0  0
 18 41  1  0  0  0
 18 19  1  0  0  0
 18 20  1  0  0  0
 19 61  1  0  0  0
 19 62  1  0  0  0
 20 42  1  0  0  0
 20 21  1  0  0  0
 20 36  1  0  0  0
 21 22  1  0  0  0
 21 63  1  0  0  0
 21 64  1  0  0  0
 22 23  1  0  0  0
 22 65  1  0  0  0
 23 25  1  0  0  0
 23 24  1  0  0  0
 23 26  1  0  0  0
 24 25  1  0  0  0
 24 66  1  0  0  0
 24 67  1  0  0  0
 25 68  1  0  0  0
 25 69  1  0  0  0
 26 31  1  0  0  0
 26 27  2  0  0  0
 27 28  1  0  0  0
 27 70  1  0  0  0
 28 29  2  0  0  0
 28 71  1  0  0  0
 29 30  1  0  0  0
 29 72  1  0  0  0
 30 31  2  0  0  0
 30 32  1  0  0  0
 31 73  1  0  0  0
 32 33  1  0  0  0
 32 34  1  0  0  0
 32 35  1  0  0  0
 33 74  1  0  0  0
 33 75  1  0  0  0
 33 76  1  0  0  0
 34 77  1  0  0  0
 34 78  1  0  0  0
 34 79  1  0  0  0
 35 80  1  0  0  0
 35 81  1  0  0  0
 35 82  1  0  0  0
 36 83  1  0  0  0
 37 84  1  0  0  0
 37 85  1  0  0  0
 37 86  1  0  0  0
 38 87  1  0  0  0
 38 88  1  0  0  0
 38 89  1  0  0  0
M  END
> <s_m_source_file>
BACE_4.smi

> <i_m_source_file_index>
1

> <i_lp_mmshare_version>
42013

> <i_f3d_flags>
0

> <s_epik_input>
W0NIM11bQ0BASF0xW0NIMl1bQ0gyXVtDSDJdW0NIMl1bQ0gyXVtDSDJdT1tDSDJdQyg9TylOKFtDSDNdKVtDQEBIXShbQ0gzXSlDKD1PKVtOSF1bQ0BASF0oW0NIMl0xKVtDQEhdKFtPSF0pW0NIMl1bTkhdQzIoW0NIMl1bQ0gyXTIpYzNbY0hdW2NIXVtjSF1jKFtjSF0zKUMoW0NIM10pKFtDSDNdKVtDSDNd

> <s_epik_cmdline>
J2VwaWtfcHl0aG9uJywgJy1waCcsICc3LjAnLCAnLXRuJywgJzgnLCAnLW1hJywgJzIwMCcsICctaW1hZScsICc8aW5maWxlLm1hZT4nLCAnLW9tYWUnLCAnPG91dGZpbGUubWFlPic=

> <r_epik_Ionization_Penalty>
  0.3385

> <r_epik_Ionization_Penalty_Charging>
  0.0000

> <r_epik_Ionization_Penalty_Neutral>
  0.3385

> <r_epik_State_Penalty>
  0.3341

> <r_epik_Charging_Adjusted_Penalty>
0.334061

> <i_epik_Tot_Q>
0

> <i_epik_Tot_abs_Q>
0

> <s_lp_Force_Field>
OPLS_2005

> <r_lp_Energy>
57.6864

> <b_lp_Chiralities_Consistent>
1

> <s_lp_Variant>
BACE_4.smi:1-1

> <chiral flag>
1

> <version>
0

> <r_i_glide_lipo>
-1.06031

> <r_i_glide_hbond>
-0.243742

> <r_i_glide_metal>
-0

> <r_i_glide_rewards>
0

> <r_i_glide_erotb>
0.36719

> <r_i_glide_esite>
-0.00466178

> <chiral flag>
1

> <s_i_glide_gridfile>
second_dock_grid_2

> <i_i_glide_lignum>
6

> <i_i_glide_rotatable_bonds>
7

> <r_i_docking_score>
-2.85992

> <r_i_glide_ligand_efficiency>
-0.0752611

> <r_i_glide_ligand_efficiency_sa>
-0.253026

> <r_i_glide_ligand_efficiency_ln>
-0.616683

> <r_glide_XP_GScore>
-3.19402

> <r_i_glide_gscore>
-3.19402

> <r_i_glide_evdw>
-34.3217

> <r_i_glide_ecoul>
-8.99448

> <r_i_glide_energy>
-43.3162

> <r_i_glide_einternal>
6.59313

> <r_i_glide_emodel>
-65.0806

> <r_glide_XP_HBond>
-0.990889

> <i_i_glide_confnum>
1

> <i_i_glide_posenum>
1

> <r_i_glide_eff_state_penalty>
0.3341

> <i_glide_XP_PoseRank>
3

$$$$
BACE_4.smi:1
                    3D
 Structure written by MMmdl.
 89 91  0  0  1  0            999 V2000
   21.3504   44.8350   -5.1765 C   0  0  0  0  0  0
   22.5980   44.0962   -4.7008 C   0  0  2  0  0  0
   23.7565   44.3151   -5.6986 C   0  0  0  0  0  0
   23.7385   45.7040   -6.3650 C   0  0  0  0  0  0
   23.9221   46.8862   -5.3914 C   0  0  0  0  0  0
   23.8104   48.2749   -6.0600 C   0  0  0  0  0  0
   22.4622   48.5762   -6.7542 C   0  0  0  0  0  0
   21.2407   48.5243   -5.8130 C   0  0  0  0  0  0
   19.8921   48.8231   -6.5054 O   0  0  0  0  0  0
   19.4110   47.7605   -7.5326 C   0  0  0  0  0  0
   19.1072   46.3625   -6.9724 C   0  0  0  0  0  0
   18.8509   46.2090   -5.7896 O   0  0  0  0  0  0
   19.1190   45.3601   -7.8642 N   0  0  0  0  0  0
   18.9401   43.9445   -7.4720 C   0  0  2  0  0  0
   20.3041   43.2591   -7.2387 C   0  0  0  0  0  0
   21.2140   43.3759   -8.0429 O   0  0  0  0  0  0
   20.4073   42.5386   -6.1084 N   0  0  0  0  0  0
   21.6166   41.8449   -5.6483 C   0  0  1  0  0  0
   22.2409   42.6130   -4.4456 C   0  0  0  0  0  0
   21.3094   40.3391   -5.3741 C   0  0  1  0  0  0
   20.8557   39.5377   -6.6141 C   0  0  0  0  0  0
   19.4298   39.7250   -6.8932 N   0  0  0  0  0  0
   19.0009   39.3910   -8.2601 C   0  0  0  0  0  0
   19.7130   38.2578   -8.9593 C   0  0  0  0  0  0
   19.9630   39.6845   -9.3863 C   0  0  0  0  0  0
   17.5150   39.5681   -8.5382 C   0  0  0  0  0  0
   16.5988   38.5710   -8.1440 C   0  0  0  0  0  0
   15.2259   38.7261   -8.4013 C   0  0  0  0  0  0
   14.7566   39.8785   -9.0576 C   0  0  0  0  0  0
   15.6481   40.8985   -9.4723 C   0  0  0  0  0  0
   17.0309   40.7196   -9.2014 C   0  0  0  0  0  0
   15.0951   42.1504  -10.1946 C   0  0  0  0  0  0
   14.5051   43.1350   -9.1583 C   0  0  0  0  0  0
   16.2328   42.8507  -10.9736 C   0  0  0  0  0  0
   13.9728   41.8266  -11.2122 C   0  0  0  0  0  0
   22.4599   39.6904   -4.8656 O   0  0  0  0  0  0
   18.2462   43.2036   -8.6114 C   0  0  0  0  0  0
   19.4367   45.6869   -9.2396 C   0  0  0  0  0  0
   22.8592   44.5672   -3.7531 H   0  0  0  0  0  0
   18.2884   43.8316   -6.6056 H   0  0  0  0  0  0
   22.3340   41.8845   -6.4675 H   0  0  0  0  0  0
   20.5318   40.2461   -4.6147 H   0  0  0  0  0  0
   21.5506   45.8927   -5.3464 H   0  0  0  0  0  0
   20.5452   44.7849   -4.4443 H   0  0  0  0  0  0
   20.9711   44.4204   -6.1112 H   0  0  0  0  0  0
   24.7124   44.1401   -5.2049 H   0  0  0  0  0  0
   23.7000   43.5753   -6.4971 H   0  0  0  0  0  0
   22.7950   45.8036   -6.9016 H   0  0  0  0  0  0
   24.5167   45.7452   -7.1271 H   0  0  0  0  0  0
   23.1992   46.8198   -4.5783 H   0  0  0  0  0  0
   24.8983   46.8020   -4.9138 H   0  0  0  0  0  0
   24.6128   48.3812   -6.7900 H   0  0  0  0  0  0
   24.0003   49.0417   -5.3090 H   0  0  0  0  0  0
   22.5180   49.5669   -7.2053 H   0  0  0  0  0  0
   22.3234   47.8903   -7.5899 H   0  0  0  0  0  0
   21.3888   49.2466   -5.0101 H   0  0  0  0  0  0
   21.1831   47.5524   -5.3229 H   0  0  0  0  0  0
   20.1382   47.6785   -8.3404 H   0  0  0  0  0  0
   18.4916   48.1138   -7.9994 H   0  0  0  0  0  0
   19.5918   42.5040   -5.5135 H   0  0  0  0  0  0
   21.5458   42.5617   -3.6076 H   0  0  0  0  0  0
   23.1309   42.0813   -4.1090 H   0  0  0  0  0  0
   21.0482   38.4787   -6.4382 H   0  0  0  0  0  0
   21.4548   39.8121   -7.4818 H   0  0  0  0  0  0
   19.1359   40.6661   -6.6522 H   0  0  0  0  0  0
   20.5070   37.7477   -8.4139 H   0  0  0  0  0  0
   19.1250   37.6270   -9.6259 H   0  0  0  0  0  0
   19.5421   40.0075  -10.3385 H   0  0  0  0  0  0
   20.9241   40.1282   -9.1265 H   0  0  0  0  0  0
   16.9464   37.6806   -7.6404 H   0  0  0  0  0  0
   14.5300   37.9589   -8.0949 H   0  0  0  0  0  0
   13.6957   39.9642   -9.2390 H   0  0  0  0  0  0
   17.7571   41.4598   -9.4978 H   0  0  0  0  0  0
   13.7055   42.6701   -8.5798 H   0  0  0  0  0  0
   14.0833   44.0179   -9.6404 H   0  0  0  0  0  0
   15.2523   43.4936   -8.4502 H   0  0  0  0  0  0
   16.6823   42.1803  -11.7074 H   0  0  0  0  0  0
   17.0323   43.2009  -10.3207 H   0  0  0  0  0  0
   15.8677   43.7243  -11.5155 H   0  0  0  0  0  0
   14.3191   41.1625  -12.0055 H   0  0  0  0  0  0
   13.6079   42.7304  -11.7022 H   0  0  0  0  0  0
   13.1086   41.3631  -10.7343 H   0  0  0  0  0  0
   23.1485   39.7523   -5.5098 H   0  0  0  0  0  0
   18.0663   42.1593   -8.3526 H   0  0  0  0  0  0
   18.8354   43.2175   -9.5289 H   0  0  0  0  0  0
   17.2766   43.6482   -8.8384 H   0  0  0  0  0  0
   19.2670   44.8637   -9.9310 H   0  0  0  0  0  0
   20.4809   45.9845   -9.3424 H   0  0  0  0  0  0
   18.8028   46.4942   -9.6086 H   0  0  0  0  0  0
  1  2  1  0  0  0
  1 43  1  0  0  0
  1 44  1  0  0  0
  1 45  1  0  0  0
  2 39  1  0  0  0
  2 19  1  0  0  0
  2  3  1  0  0  0
  3  4  1  0  0  0
  3 46  1  0  0  0
  3 47  1  0  0  0
  4  5  1  0  0  0
  4 48  1  0  0  0
  4 49  1  0  0  0
  5  6  1  0  0  0
  5 50  1  0  0  0
  5 51  1  0  0  0
  6  7  1  0  0  0
  6 52  1  0  0  0
  6 53  1  0  0  0
  7  8  1  0  0  0
  7 54  1  0  0  0
  7 55  1  0  0  0
  8  9  1  0  0  0
  8 56  1  0  0  0
  8 57  1  0  0  0
  9 10  1  0  0  0
 10 11  1  0  0  0
 10 58  1  0  0  0
 10 59  1  0  0  0
 11 12  2  0  0  0
 11 13  1  0  0  0
 13 14  1  0  0  0
 13 38  1  0  0  0
 14 40  1  0  0  0
 14 15  1  0  0  0
 14 37  1  0  0  0
 15 16  2  0  0  0
 15 17  1  0  0  0
 17 18  1  0  0  0
 17 60  1  0  0  0
 18 41  1  0  0  0
 18 19  1  0  0  0
 18 20  1  0  0  0
 19 61  1  0  0  0
 19 62  1  0  0  0
 20 42  1  0  0  0
 20 21  1  0  0  0
 20 36  1  0  0  0
 21 22  1  0  0  0
 21 63  1  0  0  0
 21 64  1  0  0  0
 22 23  1  0  0  0
 22 65  1  0  0  0
 23 25  1  0  0  0
 23 24  1  0  0  0
 23 26  1  0  0  0
 24 25  1  0  0  0
 24 66  1  0  0  0
 24 67  1  0  0  0
 25 68  1  0  0  0
 25 69  1  0  0  0
 26 31  1  0  0  0
 26 27  2  0  0  0
 27 28  1  0  0  0
 27 70  1  0  0  0
 28 29  2  0  0  0
 28 71  1  0  0  0
 29 30  1  0  0  0
 29 72  1  0  0  0
 30 31  2  0  0  0
 30 32  1  0  0  0
 31 73  1  0  0  0
 32 33  1  0  0  0
 32 34  1  0  0  0
 32 35  1  0  0  0
 33 74  1  0  0  0
 33 75  1  0  0  0
 33 76  1  0  0  0
 34 77  1  0  0  0
 34 78  1  0  0  0
 34 79  1  0  0  0
 35 80  1  0  0  0
 35 81  1  0  0  0
 35 82  1  0  0  0
 36 83  1  0  0  0
 37 84  1  0  0  0
 37 85  1  0  0  0
 37 86  1  0  0  0
 38 87  1  0  0  0
 38 88  1  0  0  0
 38 89  1  0  0  0
M  END
> <s_m_source_file>
BACE_4.smi

> <i_m_source_file_index>
1

> <i_lp_mmshare_version>
42013

> <i_f3d_flags>
0

> <s_epik_input>
W0NIM11bQ0BASF0xW0NIMl1bQ0gyXVtDSDJdW0NIMl1bQ0gyXVtDSDJdT1tDSDJdQyg9TylOKFtDSDNdKVtDQEBIXShbQ0gzXSlDKD1PKVtOSF1bQ0BASF0oW0NIMl0xKVtDQEhdKFtPSF0pW0NIMl1bTkhdQzIoW0NIMl1bQ0gyXTIpYzNbY0hdW2NIXVtjSF1jKFtjSF0zKUMoW0NIM10pKFtDSDNdKVtDSDNd

> <s_epik_cmdline>
J2VwaWtfcHl0aG9uJywgJy1waCcsICc3LjAnLCAnLXRuJywgJzgnLCAnLW1hJywgJzIwMCcsICctaW1hZScsICc8aW5maWxlLm1hZT4nLCAnLW9tYWUnLCAnPG91dGZpbGUubWFlPic=

> <r_epik_Ionization_Penalty>
  0.3385

> <r_epik_Ionization_Penalty_Charging>
  0.0000

> <r_epik_Ionization_Penalty_Neutral>
  0.3385

> <r_epik_State_Penalty>
  0.3341

> <r_epik_Charging_Adjusted_Penalty>
0.334061

> <i_epik_Tot_Q>
0

> <i_epik_Tot_abs_Q>
0

> <s_lp_Force_Field>
OPLS_2005

> <r_lp_Energy>
57.6864

> <b_lp_Chiralities_Consistent>
1

> <s_lp_Variant>
BACE_4.smi:1-1

> <chiral flag>
1

> <version>
0

> <r_i_glide_lipo>
-1.06031

> <r_i_glide_hbond>
-0.243742

> <r_i_glide_metal>
-0

> <r_i_glide_rewards>
0

> <r_i_glide_erotb>
0.36719

> <r_i_glide_esite>
-0.00466178

> <chiral flag>
1

> <s_i_glide_gridfile>
second_dock_grid_2

> <i_i_glide_lignum>
6

> <i_i_glide_rotatable_bonds>
7

> <r_i_docking_score>
-2.52021

> <r_i_glide_ligand_efficiency>
-0.0663212

> <r_i_glide_ligand_efficiency_sa>
-0.22297

> <r_i_glide_ligand_efficiency_ln>
-0.543431

> <r_glide_XP_GScore>
-2.85431

> <r_i_glide_gscore>
-2.85431

> <r_i_glide_evdw>
-35.8647

> <r_i_glide_ecoul>
-5.62661

> <r_i_glide_energy>
-41.4913

> <r_i_glide_einternal>
1.66577

> <r_i_glide_emodel>
-62.6051

> <r_glide_XP_HBond>
-0.990889

> <i_i_glide_confnum>
1

> <i_i_glide_posenum>
7

> <r_i_glide_eff_state_penalty>
0.3341

> <i_glide_XP_PoseRank>
4

$$$$
BACE_4.smi:1
                    3D
 Structure written by MMmdl.
 89 91  0  0  1  0            999 V2000
   21.8015   44.5538   -4.8389 C   0  0  0  0  0  0
   22.8852   43.5563   -5.2683 C   0  0  2  0  0  0
   23.6200   43.8694   -6.6062 C   0  0  0  0  0  0
   23.5257   45.3001   -7.1730 C   0  0  0  0  0  0
   24.2436   46.3980   -6.3666 C   0  0  0  0  0  0
   24.1103   47.8093   -6.9816 C   0  0  0  0  0  0
   22.6739   48.2745   -7.3033 C   0  0  0  0  0  0
   21.7013   48.2547   -6.1100 C   0  0  0  0  0  0
   20.4183   48.8001   -6.4162 O   0  0  0  0  0  0
   19.6057   48.0894   -7.3536 C   0  0  0  0  0  0
   19.1840   46.6959   -6.8270 C   0  0  0  0  0  0
   18.8585   46.6158   -5.6405 O   0  0  0  0  0  0
   19.1995   45.6142   -7.6556 N   0  0  0  0  0  0
   18.9076   44.2451   -7.1472 C   0  0  2  0  0  0
   20.0136   43.2056   -7.4126 C   0  0  0  0  0  0
   20.6304   43.1666   -8.4758 O   0  0  0  0  0  0
   20.2721   42.3723   -6.3987 N   0  0  0  0  0  0
   21.4475   41.5175   -6.2629 C   0  0  1  0  0  0
   22.3781   42.0937   -5.1512 C   0  0  0  0  0  0
   20.9870   40.0667   -5.9687 C   0  0  1  0  0  0
   20.5645   39.2732   -7.2170 C   0  0  0  0  0  0
   19.2661   39.7152   -7.7075 N   0  0  0  0  0  0
   18.7570   39.1288   -8.9504 C   0  0  0  0  0  0
   19.3208   37.8277   -9.4930 C   0  0  0  0  0  0
   19.6159   39.1320  -10.1974 C   0  0  0  0  0  0
   17.2934   39.4026   -9.0584 C   0  0  0  0  0  0
   16.3689   38.5368   -8.4429 C   0  0  0  0  0  0
   14.9929   38.8043   -8.5159 C   0  0  0  0  0  0
   14.5350   39.9378   -9.2092 C   0  0  0  0  0  0
   15.4429   40.8414   -9.8134 C   0  0  0  0  0  0
   16.8269   40.5561   -9.7206 C   0  0  0  0  0  0
   14.9167   42.0965  -10.5331 C   0  0  0  0  0  0
   14.4191   43.1149   -9.4928 C   0  0  0  0  0  0
   15.9942   42.7677  -11.4186 C   0  0  0  0  0  0
   13.7241   41.7149  -11.4284 C   0  0  0  0  0  0
   22.0598   39.3517   -5.4083 O   0  0  0  0  0  0
   17.5192   43.7712   -7.6012 C   0  0  0  0  0  0
   19.4552   45.7652   -9.0960 C   0  0  0  0  0  0
   23.6492   43.6426   -4.4918 H   0  0  0  0  0  0
   18.8351   44.2829   -6.0596 H   0  0  0  0  0  0
   22.0116   41.4839   -7.1962 H   0  0  0  0  0  0
   20.1846   40.0644   -5.2317 H   0  0  0  0  0  0
   22.2437   45.4599   -4.4409 H   0  0  0  0  0  0
   21.1651   44.1457   -4.0542 H   0  0  0  0  0  0
   21.1585   44.8529   -5.6529 H   0  0  0  0  0  0
   24.6684   43.5805   -6.5112 H   0  0  0  0  0  0
   23.2320   43.2263   -7.3935 H   0  0  0  0  0  0
   22.4781   45.5491   -7.3218 H   0  0  0  0  0  0
   23.9546   45.2868   -8.1756 H   0  0  0  0  0  0
   23.8910   46.4264   -5.3437 H   0  0  0  0  0  0
   25.2972   46.1440   -6.2887 H   0  0  0  0  0  0
   24.6914   47.8378   -7.9032 H   0  0  0  0  0  0
   24.5791   48.5293   -6.3101 H   0  0  0  0  0  0
   22.7146   49.2882   -7.7001 H   0  0  0  0  0  0
   22.2906   47.6615   -8.1153 H   0  0  0  0  0  0
   22.1146   48.8550   -5.3004 H   0  0  0  0  0  0
   21.5994   47.2517   -5.7031 H   0  0  0  0  0  0
   20.1103   48.0703   -8.3179 H   0  0  0  0  0  0
   18.6953   48.6654   -7.5027 H   0  0  0  0  0  0
   19.6399   42.3851   -5.6101 H   0  0  0  0  0  0
   21.8857   41.9651   -4.1861 H   0  0  0  0  0  0
   23.2601   41.4667   -5.0863 H   0  0  0  0  0  0
   20.4978   38.2120   -6.9674 H   0  0  0  0  0  0
   21.3276   39.3716   -7.9903 H   0  0  0  0  0  0
   19.2959   40.7240   -7.8119 H   0  0  0  0  0  0
   20.1678   37.3505   -9.0084 H   0  0  0  0  0  0
   18.6286   37.1478   -9.9890 H   0  0  0  0  0  0
   19.1267   39.2887  -11.1578 H   0  0  0  0  0  0
   20.6361   39.5027  -10.1371 H   0  0  0  0  0  0
   16.7143   37.6708   -7.8939 H   0  0  0  0  0  0
   14.2873   38.1472   -8.0292 H   0  0  0  0  0  0
   13.4738   40.1149   -9.2459 H   0  0  0  0  0  0
   17.5638   41.2207  -10.1433 H   0  0  0  0  0  0
   13.6322   42.6909   -8.8718 H   0  0  0  0  0  0
   14.0154   44.0110   -9.9666 H   0  0  0  0  0  0
   15.2166   43.4251   -8.8212 H   0  0  0  0  0  0
   16.4607   42.0416  -12.0852 H   0  0  0  0  0  0
   16.7881   43.2126  -10.8198 H   0  0  0  0  0  0
   15.5786   43.5701  -12.0309 H   0  0  0  0  0  0
   13.9720   40.8499  -12.0391 H   0  0  0  0  0  0
   13.4042   42.5354  -12.0687 H   0  0  0  0  0  0
   12.8608   41.4352  -10.8278 H   0  0  0  0  0  0
   21.7730   38.4665   -5.2540 H   0  0  0  0  0  0
   17.2483   42.8204   -7.1384 H   0  0  0  0  0  0
   17.4940   43.6328   -8.6808 H   0  0  0  0  0  0
   16.7510   44.4972   -7.3312 H   0  0  0  0  0  0
   19.1812   44.8759   -9.6652 H   0  0  0  0  0  0
   20.5154   45.9601   -9.2693 H   0  0  0  0  0  0
   18.8666   46.5790   -9.5222 H   0  0  0  0  0  0
  1  2  1  0  0  0
  1 43  1  0  0  0
  1 44  1  0  0  0
  1 45  1  0  0  0
  2 39  1  0  0  0
  2 19  1  0  0  0
  2  3  1  0  0  0
  3  4  1  0  0  0
  3 46  1  0  0  0
  3 47  1  0  0  0
  4  5  1  0  0  0
  4 48  1  0  0  0
  4 49  1  0  0  0
  5  6  1  0  0  0
  5 50  1  0  0  0
  5 51  1  0  0  0
  6  7  1  0  0  0
  6 52  1  0  0  0
  6 53  1  0  0  0
  7  8  1  0  0  0
  7 54  1  0  0  0
  7 55  1  0  0  0
  8  9  1  0  0  0
  8 56  1  0  0  0
  8 57  1  0  0  0
  9 10  1  0  0  0
 10 11  1  0  0  0
 10 58  1  0  0  0
 10 59  1  0  0  0
 11 12  2  0  0  0
 11 13  1  0  0  0
 13 14  1  0  0  0
 13 38  1  0  0  0
 14 40  1  0  0  0
 14 15  1  0  0  0
 14 37  1  0  0  0
 15 16  2  0  0  0
 15 17  1  0  0  0
 17 18  1  0  0  0
 17 60  1  0  0  0
 18 41  1  0  0  0
 18 19  1  0  0  0
 18 20  1  0  0  0
 19 61  1  0  0  0
 19 62  1  0  0  0
 20 42  1  0  0  0
 20 21  1  0  0  0
 20 36  1  0  0  0
 21 22  1  0  0  0
 21 63  1  0  0  0
 21 64  1  0  0  0
 22 23  1  0  0  0
 22 65  1  0  0  0
 23 25  1  0  0  0
 23 24  1  0  0  0
 23 26  1  0  0  0
 24 25  1  0  0  0
 24 66  1  0  0  0
 24 67  1  0  0  0
 25 68  1  0  0  0
 25 69  1  0  0  0
 26 31  1  0  0  0
 26 27  2  0  0  0
 27 28  1  0  0  0
 27 70  1  0  0  0
 28 29  2  0  0  0
 28 71  1  0  0  0
 29 30  1  0  0  0
 29 72  1  0  0  0
 30 31  2  0  0  0
 30 32  1  0  0  0
 31 73  1  0  0  0
 32 33  1  0  0  0
 32 34  1  0  0  0
 32 35  1  0  0  0
 33 74  1  0  0  0
 33 75  1  0  0  0
 33 76  1  0  0  0
 34 77  1  0  0  0
 34 78  1  0  0  0
 34 79  1  0  0  0
 35 80  1  0  0  0
 35 81  1  0  0  0
 35 82  1  0  0  0
 36 83  1  0  0  0
 37 84  1  0  0  0
 37 85  1  0  0  0
 37 86  1  0  0  0
 38 87  1  0  0  0
 38 88  1  0  0  0
 38 89  1  0  0  0
M  END
> <s_m_source_file>
BACE_4.smi

> <i_m_source_file_index>
1

> <i_lp_mmshare_version>
42013

> <i_f3d_flags>
0

> <s_epik_input>
W0NIM11bQ0BASF0xW0NIMl1bQ0gyXVtDSDJdW0NIMl1bQ0gyXVtDSDJdT1tDSDJdQyg9TylOKFtDSDNdKVtDQEBIXShbQ0gzXSlDKD1PKVtOSF1bQ0BASF0oW0NIMl0xKVtDQEhdKFtPSF0pW0NIMl1bTkhdQzIoW0NIMl1bQ0gyXTIpYzNbY0hdW2NIXVtjSF1jKFtjSF0zKUMoW0NIM10pKFtDSDNdKVtDSDNd

> <s_epik_cmdline>
J2VwaWtfcHl0aG9uJywgJy1waCcsICc3LjAnLCAnLXRuJywgJzgnLCAnLW1hJywgJzIwMCcsICctaW1hZScsICc8aW5maWxlLm1hZT4nLCAnLW9tYWUnLCAnPG91dGZpbGUubWFlPic=

> <r_epik_Ionization_Penalty>
  0.3385

> <r_epik_Ionization_Penalty_Charging>
  0.0000

> <r_epik_Ionization_Penalty_Neutral>
  0.3385

> <r_epik_State_Penalty>
  0.3341

> <r_epik_Charging_Adjusted_Penalty>
0.334061

> <i_epik_Tot_Q>
0

> <i_epik_Tot_abs_Q>
0

> <s_lp_Force_Field>
OPLS_2005

> <r_lp_Energy>
57.6864

> <b_lp_Chiralities_Consistent>
1

> <s_lp_Variant>
BACE_4.smi:1-1

> <chiral flag>
1

> <version>
0

> <r_i_glide_lipo>
-1.06031

> <r_i_glide_hbond>
-0.243742

> <r_i_glide_metal>
-0

> <r_i_glide_rewards>
0

> <r_i_glide_erotb>
0.36719

> <r_i_glide_esite>
-0.00466178

> <chiral flag>
1

> <s_i_glide_gridfile>
second_dock_grid_2

> <i_i_glide_lignum>
6

> <i_i_glide_rotatable_bonds>
7

> <r_i_docking_score>
-2.51882

> <r_i_glide_ligand_efficiency>
-0.0662847

> <r_i_glide_ligand_efficiency_sa>
-0.222847

> <r_i_glide_ligand_efficiency_ln>
-0.543131

> <r_glide_XP_GScore>
-2.85292

> <r_i_glide_gscore>
-2.85292

> <r_i_glide_evdw>
-35.0947

> <r_i_glide_ecoul>
-5.92788

> <r_i_glide_energy>
-41.0225

> <r_i_glide_einternal>
1.91014

> <r_i_glide_emodel>
-64.148

> <r_glide_XP_HBond>
-0.990889

> <i_i_glide_confnum>
1

> <i_i_glide_posenum>
5

> <r_i_glide_eff_state_penalty>
0.3341

> <i_glide_XP_PoseRank>
5

$$$$
BACE_4.smi:1
                    3D
 Structure written by MMmdl.
 89 91  0  0  1  0            999 V2000
   22.6721   44.4217   -7.5549 C   0  0  0  0  0  0
   22.2113   44.3052   -6.1047 C   0  0  2  0  0  0
   23.3346   44.8038   -5.1749 C   0  0  0  0  0  0
   23.6981   46.2833   -5.4146 C   0  0  0  0  0  0
   22.6776   47.2730   -4.8124 C   0  0  0  0  0  0
   22.8624   48.7369   -5.2661 C   0  0  0  0  0  0
   22.6205   49.0066   -6.7713 C   0  0  0  0  0  0
   21.2843   48.4825   -7.3426 C   0  0  0  0  0  0
   20.0272   49.1044   -6.6952 O   0  0  0  0  0  0
   18.6925   48.5126   -7.2159 C   0  0  0  0  0  0
   18.4369   47.0569   -6.8029 C   0  0  0  0  0  0
   18.5887   46.7212   -5.6398 O   0  0  0  0  0  0
   18.0415   46.2182   -7.7728 N   0  0  0  0  0  0
   17.8763   44.7658   -7.5424 C   0  0  2  0  0  0
   19.2015   44.0069   -7.7794 C   0  0  0  0  0  0
   19.8948   44.2355   -8.7569 O   0  0  0  0  0  0
   19.5281   43.0999   -6.8453 N   0  0  0  0  0  0
   20.7447   42.2784   -6.8435 C   0  0  1  0  0  0
   21.7692   42.8540   -5.8212 C   0  0  0  0  0  0
   20.3855   40.7739   -6.6328 C   0  0  1  0  0  0
   21.3008   39.7815   -7.3831 C   0  0  0  0  0  0
   21.7202   40.3039   -8.6860 N   0  0  0  0  0  0
   20.6824   40.3189   -9.7283 C   0  0  0  0  0  0
   21.1371   40.3774  -11.1671 C   0  0  0  0  0  0
   20.5087   41.5905  -10.5240 C   0  0  0  0  0  0
   19.4337   39.5066   -9.4162 C   0  0  0  0  0  0
   19.4608   38.1005   -9.5222 C   0  0  0  0  0  0
   18.3104   37.3445   -9.2394 C   0  0  0  0  0  0
   17.1211   37.9877   -8.8507 C   0  0  0  0  0  0
   17.0554   39.3985   -8.7382 C   0  0  0  0  0  0
   18.2306   40.1413   -9.0290 C   0  0  0  0  0  0
   15.7285   40.0705   -8.3111 C   0  0  0  0  0  0
   14.6270   39.7634   -9.3522 C   0  0  0  0  0  0
   15.2894   39.5314   -6.9297 C   0  0  0  0  0  0
   15.8315   41.6117   -8.1915 C   0  0  0  0  0  0
   20.4599   40.4414   -5.2591 O   0  0  0  0  0  0
   16.8543   44.2225   -8.5369 C   0  0  0  0  0  0
   17.9071   46.7525   -9.1130 C   0  0  0  0  0  0
   21.3456   44.9613   -6.0145 H   0  0  0  0  0  0
   17.4714   44.5521   -6.5532 H   0  0  0  0  0  0
   21.1882   42.3692   -7.8347 H   0  0  0  0  0  0
   19.3589   40.5845   -6.9493 H   0  0  0  0  0  0
   22.9943   45.4351   -7.7935 H   0  0  0  0  0  0
   21.8744   44.1763   -8.2551 H   0  0  0  0  0  0
   23.5097   43.7552   -7.7640 H   0  0  0  0  0  0
   23.0593   44.6549   -4.1309 H   0  0  0  0  0  0
   24.2208   44.1906   -5.3389 H   0  0  0  0  0  0
   23.8104   46.4487   -6.4861 H   0  0  0  0  0  0
   24.6776   46.4893   -4.9832 H   0  0  0  0  0  0
   21.6575   46.9593   -5.0341 H   0  0  0  0  0  0
   22.7518   47.2286   -3.7258 H   0  0  0  0  0  0
   23.8648   49.0725   -5.0005 H   0  0  0  0  0  0
   22.1903   49.3667   -4.6833 H   0  0  0  0  0  0
   22.6904   50.0792   -6.9523 H   0  0  0  0  0  0
   23.4373   48.5704   -7.3463 H   0  0  0  0  0  0
   21.2578   47.3964   -7.2535 H   0  0  0  0  0  0
   21.2617   48.6796   -8.4143 H   0  0  0  0  0  0
   18.6443   48.6188   -8.2996 H   0  0  0  0  0  0
   17.8586   49.0973   -6.8277 H   0  0  0  0  0  0
   18.8869   42.9886   -6.0729 H   0  0  0  0  0  0
   21.3553   42.7865   -4.8151 H   0  0  0  0  0  0
   22.6464   42.2069   -5.8194 H   0  0  0  0  0  0
   20.7591   38.8467   -7.5318 H   0  0  0  0  0  0
   22.1688   39.5323   -6.7734 H   0  0  0  0  0  0
   22.5471   39.8190   -9.0196 H   0  0  0  0  0  0
   22.2101   40.4054  -11.3566 H   0  0  0  0  0  0
   20.5468   39.8348  -11.9055 H   0  0  0  0  0  0
   19.4983   41.8590  -10.8324 H   0  0  0  0  0  0
   21.1616   42.4296  -10.2835 H   0  0  0  0  0  0
   20.3675   37.5945   -9.8210 H   0  0  0  0  0  0
   18.3393   36.2679   -9.3212 H   0  0  0  0  0  0
   16.2567   37.3756   -8.6415 H   0  0  0  0  0  0
   18.2393   41.2178   -8.9655 H   0  0  0  0  0  0
   14.9084   40.1196  -10.3442 H   0  0  0  0  0  0
   13.6842   40.2462   -9.0913 H   0  0  0  0  0  0
   14.4181   38.6970   -9.4370 H   0  0  0  0  0  0
   16.0497   39.7197   -6.1704 H   0  0  0  0  0  0
   15.1003   38.4580   -6.9410 H   0  0  0  0  0  0
   14.3685   40.0066   -6.5891 H   0  0  0  0  0  0
   16.5652   41.9158   -7.4436 H   0  0  0  0  0  0
   14.8800   42.0511   -7.8884 H   0  0  0  0  0  0
   16.0998   42.0786   -9.1402 H   0  0  0  0  0  0
   19.7010   40.7974   -4.8229 H   0  0  0  0  0  0
   16.6791   43.1571   -8.3819 H   0  0  0  0  0  0
   17.1766   44.3552   -9.5702 H   0  0  0  0  0  0
   15.8921   44.7240   -8.4273 H   0  0  0  0  0  0
   17.4286   46.0649   -9.8077 H   0  0  0  0  0  0
   18.8799   47.0107   -9.5332 H   0  0  0  0  0  0
   17.2735   47.6404   -9.1208 H   0  0  0  0  0  0
  1  2  1  0  0  0
  1 43  1  0  0  0
  1 44  1  0  0  0
  1 45  1  0  0  0
  2 39  1  0  0  0
  2 19  1  0  0  0
  2  3  1  0  0  0
  3  4  1  0  0  0
  3 46  1  0  0  0
  3 47  1  0  0  0
  4  5  1  0  0  0
  4 48  1  0  0  0
  4 49  1  0  0  0
  5  6  1  0  0  0
  5 50  1  0  0  0
  5 51  1  0  0  0
  6  7  1  0  0  0
  6 52  1  0  0  0
  6 53  1  0  0  0
  7  8  1  0  0  0
  7 54  1  0  0  0
  7 55  1  0  0  0
  8  9  1  0  0  0
  8 56  1  0  0  0
  8 57  1  0  0  0
  9 10  1  0  0  0
 10 11  1  0  0  0
 10 58  1  0  0  0
 10 59  1  0  0  0
 11 12  2  0  0  0
 11 13  1  0  0  0
 13 14  1  0  0  0
 13 38  1  0  0  0
 14 40  1  0  0  0
 14 15  1  0  0  0
 14 37  1  0  0  0
 15 16  2  0  0  0
 15 17  1  0  0  0
 17 18  1  0  0  0
 17 60  1  0  0  0
 18 41  1  0  0  0
 18 19  1  0  0  0
 18 20  1  0  0  0
 19 61  1  0  0  0
 19 62  1  0  0  0
 20 42  1  0  0  0
 20 21  1  0  0  0
 20 36  1  0  0  0
 21 22  1  0  0  0
 21 63  1  0  0  0
 21 64  1  0  0  0
 22 23  1  0  0  0
 22 65  1  0  0  0
 23 25  1  0  0  0
 23 24  1  0  0  0
 23 26  1  0  0  0
 24 25  1  0  0  0
 24 66  1  0  0  0
 24 67  1  0  0  0
 25 68  1  0  0  0
 25 69  1  0  0  0
 26 31  1  0  0  0
 26 27  2  0  0  0
 27 28  1  0  0  0
 27 70  1  0  0  0
 28 29  2  0  0  0
 28 71  1  0  0  0
 29 30  1  0  0  0
 29 72  1  0  0  0
 30 31  2  0  0  0
 30 32  1  0  0  0
 31 73  1  0  0  0
 32 33  1  0  0  0
 32 34  1  0  0  0
 32 35  1  0  0  0
 33 74  1  0  0  0
 33 75  1  0  0  0
 33 76  1  0  0  0
 34 77  1  0  0  0
 34 78  1  0  0  0
 34 79  1  0  0  0
 35 80  1  0  0  0
 35 81  1  0  0  0
 35 82  1  0  0  0
 36 83  1  0  0  0
 37 84  1  0  0  0
 37 85  1  0  0  0
 37 86  1  0  0  0
 38 87  1  0  0  0
 38 88  1  0  0  0
 38 89  1  0  0  0
M  END
> <s_m_source_file>
BACE_4.smi

> <i_m_source_file_index>
1

> <i_lp_mmshare_version>
42013

> <i_f3d_flags>
0

> <s_epik_input>
W0NIM11bQ0BASF0xW0NIMl1bQ0gyXVtDSDJdW0NIMl1bQ0gyXVtDSDJdT1tDSDJdQyg9TylOKFtDSDNdKVtDQEBIXShbQ0gzXSlDKD1PKVtOSF1bQ0BASF0oW0NIMl0xKVtDQEhdKFtPSF0pW0NIMl1bTkhdQzIoW0NIMl1bQ0gyXTIpYzNbY0hdW2NIXVtjSF1jKFtjSF0zKUMoW0NIM10pKFtDSDNdKVtDSDNd

> <s_epik_cmdline>
J2VwaWtfcHl0aG9uJywgJy1waCcsICc3LjAnLCAnLXRuJywgJzgnLCAnLW1hJywgJzIwMCcsICctaW1hZScsICc8aW5maWxlLm1hZT4nLCAnLW9tYWUnLCAnPG91dGZpbGUubWFlPic=

> <r_epik_Ionization_Penalty>
  0.3385

> <r_epik_Ionization_Penalty_Charging>
  0.0000

> <r_epik_Ionization_Penalty_Neutral>
  0.3385

> <r_epik_State_Penalty>
  0.3341

> <r_epik_Charging_Adjusted_Penalty>
0.334061

> <i_epik_Tot_Q>
0

> <i_epik_Tot_abs_Q>
0

> <s_lp_Force_Field>
OPLS_2005

> <r_lp_Energy>
57.6864

> <b_lp_Chiralities_Consistent>
1

> <s_lp_Variant>
BACE_4.smi:1-1

> <chiral flag>
1

> <version>
0

> <r_i_glide_lipo>
-1.06031

> <r_i_glide_hbond>
-0.243742

> <r_i_glide_metal>
-0

> <r_i_glide_rewards>
0

> <r_i_glide_erotb>
0.36719

> <r_i_glide_esite>
-0.00466178

> <chiral flag>
1

> <s_i_glide_gridfile>
second_dock_grid_2

> <i_i_glide_lignum>
6

> <i_i_glide_rotatable_bonds>
7

> <r_i_docking_score>
-2.36457

> <r_i_glide_ligand_efficiency>
-0.0622256

> <r_i_glide_ligand_efficiency_sa>
-0.209201

> <r_i_glide_ligand_efficiency_ln>
-0.509871

> <r_glide_XP_GScore>
-2.69867

> <r_i_glide_gscore>
-2.69867

> <r_i_glide_evdw>
-38.9247

> <r_i_glide_ecoul>
-8.77805

> <r_i_glide_energy>
-47.7027

> <r_i_glide_einternal>
4.31858

> <r_i_glide_emodel>
-67.9562

> <r_glide_XP_HBond>
-0.990889

> <i_i_glide_confnum>
1

> <i_i_glide_posenum>
4

> <r_i_glide_eff_state_penalty>
0.3341

> <i_glide_XP_PoseRank>
6

$$$$
BACE_4.smi:1
                    3D
 Structure written by MMmdl.
 89 91  0  0  1  0            999 V2000
   21.8904   44.5385   -4.8425 C   0  0  0  0  0  0
   22.9314   43.5305   -5.3370 C   0  0  2  0  0  0
   23.6846   43.8716   -6.6536 C   0  0  0  0  0  0
   23.5152   45.2891   -7.2479 C   0  0  0  0  0  0
   24.2387   46.4165   -6.4874 C   0  0  0  0  0  0
   24.0817   47.8128   -7.1288 C   0  0  0  0  0  0
   22.6328   48.2612   -7.4206 C   0  0  0  0  0  0
   21.7084   48.2838   -6.1864 C   0  0  0  0  0  0
   20.4260   48.8563   -6.4589 O   0  0  0  0  0  0
   19.5738   48.1655   -7.3809 C   0  0  0  0  0  0
   19.1421   46.7836   -6.8336 C   0  0  0  0  0  0
   18.8542   46.7085   -5.6393 O   0  0  0  0  0  0
   19.1138   45.7010   -7.6592 N   0  0  0  0  0  0
   18.8632   44.3349   -7.1329 C   0  0  2  0  0  0
   19.9771   43.3164   -7.4384 C   0  0  0  0  0  0
   20.5794   43.3154   -8.5113 O   0  0  0  0  0  0
   20.2624   42.4601   -6.4449 N   0  0  0  0  0  0
   21.4275   41.5817   -6.3860 C   0  0  1  0  0  0
   22.3927   42.0726   -5.2669 C   0  0  0  0  0  0
   20.9641   40.1111   -6.1962 C   0  0  1  0  0  0
   20.4939   39.4310   -7.4951 C   0  0  0  0  0  0
   19.2402   40.0085   -7.9711 N   0  0  0  0  0  0
   18.7368   39.5613   -9.2747 C   0  0  0  0  0  0
   19.3763   38.4078  -10.0256 C   0  0  0  0  0  0
   19.5770   39.8319  -10.5031 C   0  0  0  0  0  0
   17.2516   39.7472   -9.3361 C   0  0  0  0  0  0
   16.3949   38.7305   -8.8720 C   0  0  0  0  0  0
   15.0021   38.9079   -8.9147 C   0  0  0  0  0  0
   14.4622   40.0985   -9.4296 C   0  0  0  0  0  0
   15.2951   41.1455   -9.8853 C   0  0  0  0  0  0
   16.6988   40.9537   -9.8188 C   0  0  0  0  0  0
   14.6718   42.4541  -10.4139 C   0  0  0  0  0  0
   15.6661   43.2790  -11.2602 C   0  0  0  0  0  0
   13.4481   42.1491  -11.2987 C   0  0  0  0  0  0
   14.1998   43.3178   -9.2334 C   0  0  0  0  0  0
   22.0598   39.3529   -5.7336 O   0  0  0  0  0  0
   17.4685   43.8389   -7.5387 C   0  0  0  0  0  0
   19.2887   45.8492   -9.1141 C   0  0  0  0  0  0
   23.6939   43.5675   -4.5622 H   0  0  0  0  0  0
   18.8366   44.3759   -6.0416 H   0  0  0  0  0  0
   21.9668   41.6019   -7.3330 H   0  0  0  0  0  0
   20.1813   40.0417   -5.4353 H   0  0  0  0  0  0
   22.3746   45.4175   -4.4385 H   0  0  0  0  0  0
   21.2890   44.1010   -4.0427 H   0  0  0  0  0  0
   21.2048   44.8716   -5.6101 H   0  0  0  0  0  0
   24.7484   43.6607   -6.5191 H   0  0  0  0  0  0
   23.3725   43.1883   -7.4422 H   0  0  0  0  0  0
   22.4539   45.5037   -7.3572 H   0  0  0  0  0  0
   23.9026   45.2748   -8.2704 H   0  0  0  0  0  0
   23.9197   46.4618   -5.4490 H   0  0  0  0  0  0
   25.3024   46.1810   -6.4378 H   0  0  0  0  0  0
   24.6439   47.8376   -8.0653 H   0  0  0  0  0  0
   24.5640   48.5470   -6.4786 H   0  0  0  0  0  0
   22.6663   49.2614   -7.8540 H   0  0  0  0  0  0
   22.2202   47.6159   -8.1984 H   0  0  0  0  0  0
   22.1630   48.8955   -5.4062 H   0  0  0  0  0  0
   21.6046   47.2904   -5.7500 H   0  0  0  0  0  0
   20.0555   48.1338   -8.3571 H   0  0  0  0  0  0
   18.6713   48.7588   -7.5149 H   0  0  0  0  0  0
   19.6507   42.4525   -5.6386 H   0  0  0  0  0  0
   21.9117   41.9218   -4.3013 H   0  0  0  0  0  0
   23.2599   41.4229   -5.2386 H   0  0  0  0  0  0
   20.3532   38.3602   -7.3224 H   0  0  0  0  0  0
   21.2737   39.5276   -8.2515 H   0  0  0  0  0  0
   19.3851   41.0087   -8.0171 H   0  0  0  0  0  0
   20.2604   37.9046   -9.6362 H   0  0  0  0  0  0
   18.7269   37.7799  -10.6274 H   0  0  0  0  0  0
   19.0656   40.1126  -11.4216 H   0  0  0  0  0  0
   20.5648   40.2711  -10.3638 H   0  0  0  0  0  0
   16.8061   37.8180   -8.4620 H   0  0  0  0  0  0
   14.3389   38.1397   -8.5439 H   0  0  0  0  0  0
   13.3884   40.1857   -9.4415 H   0  0  0  0  0  0
   17.3831   41.7231  -10.1314 H   0  0  0  0  0  0
   16.4763   43.6882  -10.6613 H   0  0  0  0  0  0
   15.1823   44.1274  -11.7469 H   0  0  0  0  0  0
   16.1205   42.6677  -12.0395 H   0  0  0  0  0  0
   12.6128   41.7558  -10.7173 H   0  0  0  0  0  0
   13.6849   41.3967  -12.0405 H   0  0  0  0  0  0
   13.0769   43.0395  -11.8095 H   0  0  0  0  0  0
   13.4561   42.8037   -8.6281 H   0  0  0  0  0  0
   13.7472   44.2465   -9.5760 H   0  0  0  0  0  0
   15.0226   43.5695   -8.5723 H   0  0  0  0  0  0
   22.2659   39.6295   -4.8559 H   0  0  0  0  0  0
   17.2274   42.8871   -7.0622 H   0  0  0  0  0  0
   17.4095   43.6883   -8.6189 H   0  0  0  0  0  0
   16.6945   44.5552   -7.2473 H   0  0  0  0  0  0
   18.9745   44.9649   -9.6715 H   0  0  0  0  0  0
   20.3409   46.0212   -9.3559 H   0  0  0  0  0  0
   18.6925   46.6766   -9.5081 H   0  0  0  0  0  0
  1  2  1  0  0  0
  1 43  1  0  0  0
  1 44  1  0  0  0
  1 45  1  0  0  0
  2 39  1  0  0  0
  2 19  1  0  0  0
  2  3  1  0  0  0
  3  4  1  0  0  0
  3 46  1  0  0  0
  3 47  1  0  0  0
  4  5  1  0  0  0
  4 48  1  0  0  0
  4 49  1  0  0  0
  5  6  1  0  0  0
  5 50  1  0  0  0
  5 51  1  0  0  0
  6  7  1  0  0  0
  6 52  1  0  0  0
  6 53  1  0  0  0
  7  8  1  0  0  0
  7 54  1  0  0  0
  7 55  1  0  0  0
  8  9  1  0  0  0
  8 56  1  0  0  0
  8 57  1  0  0  0
  9 10  1  0  0  0
 10 11  1  0  0  0
 10 58  1  0  0  0
 10 59  1  0  0  0
 11 12  2  0  0  0
 11 13  1  0  0  0
 13 14  1  0  0  0
 13 38  1  0  0  0
 14 40  1  0  0  0
 14 15  1  0  0  0
 14 37  1  0  0  0
 15 16  2  0  0  0
 15 17  1  0  0  0
 17 18  1  0  0  0
 17 60  1  0  0  0
 18 41  1  0  0  0
 18 19  1  0  0  0
 18 20  1  0  0  0
 19 61  1  0  0  0
 19 62  1  0  0  0
 20 42  1  0  0  0
 20 21  1  0  0  0
 20 36  1  0  0  0
 21 22  1  0  0  0
 21 63  1  0  0  0
 21 64  1  0  0  0
 22 23  1  0  0  0
 22 65  1  0  0  0
 23 25  1  0  0  0
 23 24  1  0  0  0
 23 26  1  0  0  0
 24 25  1  0  0  0
 24 66  1  0  0  0
 24 67  1  0  0  0
 25 68  1  0  0  0
 25 69  1  0  0  0
 26 31  1  0  0  0
 26 27  2  0  0  0
 27 28  1  0  0  0
 27 70  1  0  0  0
 28 29  2  0  0  0
 28 71  1  0  0  0
 29 30  1  0  0  0
 29 72  1  0  0  0
 30 31  2  0  0  0
 30 32  1  0  0  0
 31 73  1  0  0  0
 32 33  1  0  0  0
 32 34  1  0  0  0
 32 35  1  0  0  0
 33 74  1  0  0  0
 33 75  1  0  0  0
 33 76  1  0  0  0
 34 77  1  0  0  0
 34 78  1  0  0  0
 34 79  1  0  0  0
 35 80  1  0  0  0
 35 81  1  0  0  0
 35 82  1  0  0  0
 36 83  1  0  0  0
 37 84  1  0  0  0
 37 85  1  0  0  0
 37 86  1  0  0  0
 38 87  1  0  0  0
 38 88  1  0  0  0
 38 89  1  0  0  0
M  END
> <s_m_source_file>
BACE_4.smi

> <i_m_source_file_index>
1

> <i_lp_mmshare_version>
42013

> <i_f3d_flags>
0

> <s_epik_input>
W0NIM11bQ0BASF0xW0NIMl1bQ0gyXVtDSDJdW0NIMl1bQ0gyXVtDSDJdT1tDSDJdQyg9TylOKFtDSDNdKVtDQEBIXShbQ0gzXSlDKD1PKVtOSF1bQ0BASF0oW0NIMl0xKVtDQEhdKFtPSF0pW0NIMl1bTkhdQzIoW0NIMl1bQ0gyXTIpYzNbY0hdW2NIXVtjSF1jKFtjSF0zKUMoW0NIM10pKFtDSDNdKVtDSDNd

> <s_epik_cmdline>
J2VwaWtfcHl0aG9uJywgJy1waCcsICc3LjAnLCAnLXRuJywgJzgnLCAnLW1hJywgJzIwMCcsICctaW1hZScsICc8aW5maWxlLm1hZT4nLCAnLW9tYWUnLCAnPG91dGZpbGUubWFlPic=

> <r_epik_Ionization_Penalty>
  0.3385

> <r_epik_Ionization_Penalty_Charging>
  0.0000

> <r_epik_Ionization_Penalty_Neutral>
  0.3385

> <r_epik_State_Penalty>
  0.3341

> <r_epik_Charging_Adjusted_Penalty>
0.334061

> <i_epik_Tot_Q>
0

> <i_epik_Tot_abs_Q>
0

> <s_lp_Force_Field>
OPLS_2005

> <r_lp_Energy>
57.6864

> <b_lp_Chiralities_Consistent>
1

> <s_lp_Variant>
BACE_4.smi:1-1

> <chiral flag>
1

> <version>
0

> <r_i_glide_lipo>
-1.06031

> <r_i_glide_hbond>
-0.243742

> <r_i_glide_metal>
-0

> <r_i_glide_rewards>
0

> <r_i_glide_erotb>
0.36719

> <r_i_glide_esite>
-0.00466178

> <chiral flag>
1

> <s_i_glide_gridfile>
second_dock_grid_2

> <i_i_glide_lignum>
6

> <i_i_glide_rotatable_bonds>
7

> <r_i_docking_score>
-2.15777

> <r_i_glide_ligand_efficiency>
-0.0567835

> <r_i_glide_ligand_efficiency_sa>
-0.190905

> <r_i_glide_ligand_efficiency_ln>
-0.465279

> <r_glide_XP_GScore>
-2.49187

> <r_i_glide_gscore>
-2.49187

> <r_i_glide_evdw>
-35.299

> <r_i_glide_ecoul>
-4.97438

> <r_i_glide_energy>
-40.2734

> <r_i_glide_einternal>
1.54327

> <r_i_glide_emodel>
-63.5344

> <r_glide_XP_HBond>
-0.990889

> <i_i_glide_confnum>
1

> <i_i_glide_posenum>
6

> <r_i_glide_eff_state_penalty>
0.3341

> <i_glide_XP_PoseRank>
7

$$$$
