BACE_5.smi:1
                    3D
 Structure written by MMmdl.
 80 81  0  0  1  0            999 V2000
   15.6647   45.6938   -9.0747 C   0  0  0  0  0  0
   17.0835   45.1128   -9.1162 C   0  0  0  0  0  0
   17.1456   43.7381   -9.8037 C   0  0  0  0  0  0
   16.2939   42.7077   -9.1109 C   0  0  0  0  0  0
   16.6845   41.7846   -8.0953 C   0  0  0  0  0  0
   15.5456   41.0808   -7.8180 C   0  0  0  0  0  0
   14.5703   41.5919   -8.6438 N   0  0  0  0  0  0
   15.0144   42.5845   -9.4376 N   0  0  0  0  0  0
   15.2782   39.9737   -6.8521 C   0  0  0  0  0  0
   16.3816   38.9922   -6.8409 N   0  3  0  0  0  0
   16.7297   38.4491   -8.1715 C   0  0  0  0  0  0
   18.0563   37.6601   -8.1307 C   0  0  2  0  0  0
   19.2925   38.5548   -8.1319 C   0  0  2  0  0  0
   19.4616   39.1755   -6.7277 C   0  0  0  0  0  0
   20.6747   40.1190   -6.5859 C   0  0  1  0  0  0
   20.9145   40.6078   -5.1441 C   0  0  0  0  0  0
   22.0739   41.6193   -5.0396 C   0  0  0  0  0  0
   21.6990   43.0371   -5.5224 C   0  0  0  0  0  0
   22.8989   43.9939   -5.6887 C   0  0  0  0  0  0
   23.9136   43.6092   -6.7929 C   0  0  0  0  0  0
   23.3146   43.3287   -8.1889 C   0  0  0  0  0  0
   22.5860   44.5340   -8.8234 O   0  0  0  0  0  0
   21.9172   44.2196  -10.1859 C   0  0  0  0  0  0
   20.7122   43.2731  -10.1009 C   0  0  0  0  0  0
   19.8400   43.4752   -9.2721 O   0  0  0  0  0  0
   20.6853   42.2554  -10.9750 N   0  0  0  0  0  0
   19.6486   41.2004  -10.9274 C   0  0  2  0  0  0
   20.0668   40.0465   -9.9885 C   0  0  0  0  0  0
   21.1918   39.5760  -10.0272 O   0  0  0  0  0  0
   19.1184   39.5842   -9.1616 N   0  0  0  0  0  0
   19.4789   40.6134  -12.3257 C   0  0  0  0  0  0
   21.7923   42.1330  -11.9019 C   0  0  0  0  0  0
   21.9295   39.4125   -7.0909 C   0  0  0  0  0  0
   18.0808   36.7813   -9.2415 O   0  0  0  0  0  0
   13.6111   41.2771   -8.6756 H   0  0  0  0  0  0
   18.0549   37.0526   -7.2246 H   0  0  0  0  0  0
   20.1322   37.8949   -8.3500 H   0  0  0  0  0  0
   20.5323   40.9772   -7.2426 H   0  0  0  0  0  0
   18.6722   41.5987  -10.6516 H   0  0  0  0  0  0
   15.6594   46.6666   -8.5826 H   0  0  0  0  0  0
   14.9854   45.0415   -8.5252 H   0  0  0  0  0  0
   15.2623   45.8292  -10.0790 H   0  0  0  0  0  0
   17.4639   45.0356   -8.0969 H   0  0  0  0  0  0
   17.7376   45.8128   -9.6375 H   0  0  0  0  0  0
   18.1802   43.3941   -9.8334 H   0  0  0  0  0  0
   16.8341   43.8355  -10.8447 H   0  0  0  0  0  0
   17.6557   41.6592   -7.6395 H   0  0  0  0  0  0
   14.3458   39.4708   -7.1126 H   0  0  0  0  0  0
   15.1485   40.3844   -5.8500 H   0  0  0  0  0  0
   16.1182   38.2232   -6.2415 H   0  0  0  0  0  0
   16.8206   39.2895   -8.8610 H   0  0  0  0  0  0
   15.9131   37.8242   -8.5354 H   0  0  0  0  0  0
   18.5500   39.7063   -6.4531 H   0  0  0  0  0  0
   19.5543   38.3631   -6.0069 H   0  0  0  0  0  0
   20.0041   41.0447   -4.7336 H   0  0  0  0  0  0
   21.1394   39.7455   -4.5166 H   0  0  0  0  0  0
   22.9276   41.2346   -5.5975 H   0  0  0  0  0  0
   22.4065   41.6821   -4.0035 H   0  0  0  0  0  0
   21.1484   42.9926   -6.4620 H   0  0  0  0  0  0
   20.9978   43.4715   -4.8098 H   0  0  0  0  0  0
   23.4237   44.0822   -4.7374 H   0  0  0  0  0  0
   22.5174   44.9941   -5.8943 H   0  0  0  0  0  0
   24.6596   44.3997   -6.8762 H   0  0  0  0  0  0
   24.4710   42.7291   -6.4724 H   0  0  0  0  0  0
   22.6441   42.4717   -8.1258 H   0  0  0  0  0  0
   24.1167   43.0123   -8.8558 H   0  0  0  0  0  0
   22.6640   43.8299  -10.8777 H   0  0  0  0  0  0
   21.5558   45.1439  -10.6364 H   0  0  0  0  0  0
   18.2104   40.0230   -9.2174 H   0  0  0  0  0  0
   18.6998   39.8501  -12.3424 H   0  0  0  0  0  0
   20.3972   40.1530  -12.6917 H   0  0  0  0  0  0
   19.1892   41.3815  -13.0435 H   0  0  0  0  0  0
   21.6251   41.3920  -12.6812 H   0  0  0  0  0  0
   22.7107   41.8545  -11.3836 H   0  0  0  0  0  0
   21.9609   43.0673  -12.4389 H   0  0  0  0  0  0
   22.8102   40.0488   -7.0063 H   0  0  0  0  0  0
   21.8448   39.1372   -8.1416 H   0  0  0  0  0  0
   22.1303   38.5006   -6.5273 H   0  0  0  0  0  0
   17.9621   37.2900  -10.0289 H   0  0  0  0  0  0
   17.2011   39.4372   -6.4532 H   0  0  0  0  0  0
  1  2  1  0  0  0
  1 40  1  0  0  0
  1 41  1  0  0  0
  1 42  1  0  0  0
  2  3  1  0  0  0
  2 43  1  0  0  0
  2 44  1  0  0  0
  3 45  1  0  0  0
  3 46  1  0  0  0
  3  4  1  0  0  0
  4  8  2  0  0  0
  4  5  1  0  0  0
  5  6  2  0  0  0
  5 47  1  0  0  0
  6  7  1  0  0  0
  6  9  1  0  0  0
  7  8  1  0  0  0
  7 35  1  0  0  0
  9 10  1  0  0  0
  9 48  1  0  0  0
  9 49  1  0  0  0
 10 11  1  0  0  0
 10 50  1  0  0  0
 10 80  1  0  0  0
 11 12  1  0  0  0
 11 51  1  0  0  0
 11 52  1  0  0  0
 12 36  1  0  0  0
 12 13  1  0  0  0
 12 34  1  0  0  0
 13 37  1  0  0  0
 13 30  1  0  0  0
 13 14  1  0  0  0
 14 15  1  0  0  0
 14 53  1  0  0  0
 14 54  1  0  0  0
 15 38  1  0  0  0
 15 16  1  0  0  0
 15 33  1  0  0  0
 16 17  1  0  0  0
 16 55  1  0  0  0
 16 56  1  0  0  0
 17 18  1  0  0  0
 17 57  1  0  0  0
 17 58  1  0  0  0
 18 19  1  0  0  0
 18 59  1  0  0  0
 18 60  1  0  0  0
 19 20  1  0  0  0
 19 61  1  0  0  0
 19 62  1  0  0  0
 20 21  1  0  0  0
 20 63  1  0  0  0
 20 64  1  0  0  0
 21 22  1  0  0  0
 21 65  1  0  0  0
 21 66  1  0  0  0
 22 23  1  0  0  0
 23 24  1  0  0  0
 23 67  1  0  0  0
 23 68  1  0  0  0
 24 25  2  0  0  0
 24 26  1  0  0  0
 26 27  1  0  0  0
 26 32  1  0  0  0
 27 39  1  0  0  0
 27 28  1  0  0  0
 27 31  1  0  0  0
 28 29  2  0  0  0
 28 30  1  0  0  0
 30 69  1  0  0  0
 31 70  1  0  0  0
 31 71  1  0  0  0
 31 72  1  0  0  0
 32 73  1  0  0  0
 32 74  1  0  0  0
 32 75  1  0  0  0
 33 76  1  0  0  0
 33 77  1  0  0  0
 33 78  1  0  0  0
 34 79  1  0  0  0
M  CHG  1  10   1
M  END
> <s_m_source_file>
BACE_5.smi

> <i_m_source_file_index>
1

> <i_lp_mmshare_version>
42013

> <i_f3d_flags>
0

> <s_epik_input>
W0NIM11bQ0gyXVtDSDJdYzFbY0hdYyhuW25IXTEpW0NIMl1bTkhdW0NIMl1bQ0BASF0oW09IXSlbQ0BASF0yW0NIMl1bQ0BIXShbQ0gzXSlbQ0gyXVtDSDJdW0NIMl1bQ0gyXVtDSDJdW0NIMl1PW0NIMl1DKD1PKU4oW0NIM10pW0NAQEhdKFtDSDNdKUMoPU8pW05IXTI=

> <s_epik_cmdline>
J2VwaWtfcHl0aG9uJywgJy1waCcsICc3LjAnLCAnLXRuJywgJzgnLCAnLW1hJywgJzIwMCcsICctaW1hZScsICc8aW5maWxlLm1hZT4nLCAnLW9tYWUnLCAnPG91dGZpbGUubWFlPic=

> <r_lp_tautomer_probability>
0.5

> <r_epik_Ionization_Penalty>
  0.1240

> <r_epik_Ionization_Penalty_Charging>
  0.1240

> <r_epik_Ionization_Penalty_Neutral>
  0.0000

> <r_epik_State_Penalty>
  0.5558

> <r_epik_Charging_Adjusted_Penalty>
0.67982

> <i_epik_Tot_Q>
1

> <i_epik_Tot_abs_Q>
1

> <s_lp_Force_Field>
OPLS_2005

> <r_lp_Energy>
33.612

> <b_lp_Chiralities_Consistent>
1

> <s_lp_Variant>
BACE_5.smi:1-2

> <chiral flag>
1

> <version>
0

> <r_i_glide_lipo>
-0.902944

> <r_i_glide_hbond>
-0.32

> <r_i_glide_metal>
-0

> <r_i_glide_rewards>
-0.131837

> <r_i_glide_erotb>
0.526685

> <r_i_glide_esite>
-0.0739927

> <chiral flag>
1

> <s_i_glide_gridfile>
second_dock_grid_2

> <i_i_glide_lignum>
9

> <i_i_glide_rotatable_bonds>
8

> <r_i_docking_score>
-6.06025

> <r_i_glide_ligand_efficiency>
-0.178243

> <r_i_glide_ligand_efficiency_sa>
-0.577437

> <r_i_glide_ligand_efficiency_ln>
-1.33888

> <r_glide_XP_GScore>
-6.61605

> <r_i_glide_gscore>
-6.61605

> <r_i_glide_evdw>
-31.1348

> <r_i_glide_ecoul>
-16.1354

> <r_i_glide_energy>
-47.2702

> <r_i_glide_einternal>
6.39306

> <r_i_glide_emodel>
-65.4286

> <r_glide_XP_HBond>
-2.11239

> <i_i_glide_confnum>
1

> <i_i_glide_posenum>
3

> <r_i_glide_eff_state_penalty>
0.5558

> <i_glide_XP_PoseRank>
1

$$$$
BACE_5.smi:1
                    3D
 Structure written by MMmdl.
 80 81  0  0  1  0            999 V2000
   21.1265   39.0044   -9.4377 C   0  0  0  0  0  0
   20.1606   39.5432  -10.5036 C   0  0  0  0  0  0
   19.0353   38.5682  -10.8858 C   0  0  0  0  0  0
   18.0564   38.3259   -9.7765 C   0  0  0  0  0  0
   16.8629   39.0540   -9.4962 C   0  0  0  0  0  0
   16.4112   38.5165   -8.3224 C   0  0  0  0  0  0
   17.2596   37.4761   -8.0403 N   0  0  0  0  0  0
   18.2719   37.3487   -8.9128 N   0  0  0  0  0  0
   15.3029   38.8651   -7.3713 C   0  0  0  0  0  0
   14.8980   40.2883   -7.3756 N   0  3  0  0  0  0
   15.9971   41.2843   -7.3303 C   0  0  0  0  0  0
   15.8195   42.3604   -8.4212 C   0  0  2  0  0  0
   17.0515   43.2776   -8.6455 C   0  0  2  0  0  0
   17.6871   43.8006   -7.3369 C   0  0  0  0  0  0
   18.8724   44.7818   -7.4912 C   0  0  1  0  0  0
   19.2582   45.3770   -6.1171 C   0  0  0  0  0  0
   20.0175   46.7127   -6.1887 C   0  0  0  0  0  0
   19.0926   47.9100   -6.4731 C   0  0  0  0  0  0
   19.8301   49.2473   -6.6607 C   0  0  0  0  0  0
   20.8497   49.2847   -7.8181 C   0  0  0  0  0  0
   20.2893   48.8523   -9.1828 C   0  0  0  0  0  0
   19.2357   49.7285   -9.5575 O   0  0  0  0  0  0
   18.5818   49.3680  -10.7710 C   0  0  0  0  0  0
   17.6038   48.1951  -10.5390 C   0  0  0  0  0  0
   16.8589   48.2716   -9.5590 O   0  0  0  0  0  0
   17.5564   47.1486  -11.4061 N   0  0  0  0  0  0
   16.5383   46.0828  -11.2283 C   0  0  2  0  0  0
   17.1551   44.8050  -10.6354 C   0  0  0  0  0  0
   18.0518   44.1962  -11.2187 O   0  0  0  0  0  0
   16.6347   44.4093   -9.4683 N   0  0  0  0  0  0
   15.8304   45.7585  -12.5569 C   0  0  0  0  0  0
   18.5556   46.9920  -12.4721 C   0  0  0  0  0  0
   20.0824   44.1094   -8.1708 C   0  0  0  0  0  0
   14.7111   43.1425   -8.0401 O   0  0  0  0  0  0
   17.1120   36.8441   -7.2495 H   0  0  0  0  0  0
   15.5715   41.8898   -9.3733 H   0  0  0  0  0  0
   17.8007   42.6828   -9.1718 H   0  0  0  0  0  0
   18.5451   45.6069   -8.1203 H   0  0  0  0  0  0
   15.7372   46.4154  -10.5645 H   0  0  0  0  0  0
   21.9311   39.7154   -9.2555 H   0  0  0  0  0  0
   21.5816   38.0662   -9.7609 H   0  0  0  0  0  0
   20.6288   38.8320   -8.4817 H   0  0  0  0  0  0
   20.7397   39.7723  -11.3970 H   0  0  0  0  0  0
   19.7354   40.4890  -10.1752 H   0  0  0  0  0  0
   19.4711   37.6281  -11.2271 H   0  0  0  0  0  0
   18.4876   38.9640  -11.7372 H   0  0  0  0  0  0
   16.4522   39.8854  -10.0462 H   0  0  0  0  0  0
   15.6455   38.6490   -6.3636 H   0  0  0  0  0  0
   14.4323   38.2317   -7.5410 H   0  0  0  0  0  0
   14.3126   40.4500   -6.5597 H   0  0  0  0  0  0
   16.9804   40.8213   -7.4146 H   0  0  0  0  0  0
   15.9908   41.7471   -6.3465 H   0  0  0  0  0  0
   16.9049   44.2943   -6.7640 H   0  0  0  0  0  0
   18.0260   42.9573   -6.7384 H   0  0  0  0  0  0
   18.3641   45.5429   -5.5238 H   0  0  0  0  0  0
   19.8476   44.6418   -5.5694 H   0  0  0  0  0  0
   20.8022   46.6447   -6.9389 H   0  0  0  0  0  0
   20.5274   46.8870   -5.2408 H   0  0  0  0  0  0
   18.4865   47.7112   -7.3552 H   0  0  0  0  0  0
   18.3793   48.0207   -5.6557 H   0  0  0  0  0  0
   20.3298   49.5239   -5.7302 H   0  0  0  0  0  0
   19.0848   50.0228   -6.8320 H   0  0  0  0  0  0
   21.2443   50.2972   -7.9075 H   0  0  0  0  0  0
   21.7046   48.6558   -7.5689 H   0  0  0  0  0  0
   19.9592   47.8116   -9.1527 H   0  0  0  0  0  0
   21.0814   48.9076   -9.9311 H   0  0  0  0  0  0
   19.3227   49.2108  -11.5535 H   0  0  0  0  0  0
   17.9859   50.2223  -11.0865 H   0  0  0  0  0  0
   15.8649   44.9447   -9.0957 H   0  0  0  0  0  0
   14.9457   45.1464  -12.3810 H   0  0  0  0  0  0
   16.4652   45.1976  -13.2386 H   0  0  0  0  0  0
   15.5099   46.6695  -13.0649 H   0  0  0  0  0  0
   18.4690   46.0485  -13.0086 H   0  0  0  0  0  0
   19.5683   47.0152  -12.0639 H   0  0  0  0  0  0
   18.4579   47.7894  -13.2104 H   0  0  0  0  0  0
   20.9180   44.8004   -8.2745 H   0  0  0  0  0  0
   19.8416   43.7676   -9.1763 H   0  0  0  0  0  0
   20.4345   43.2470   -7.6020 H   0  0  0  0  0  0
   14.8587   43.3504   -7.1141 H   0  0  0  0  0  0
   14.3284   40.4620   -8.1923 H   0  0  0  0  0  0
  1  2  1  0  0  0
  1 40  1  0  0  0
  1 41  1  0  0  0
  1 42  1  0  0  0
  2  3  1  0  0  0
  2 43  1  0  0  0
  2 44  1  0  0  0
  3 45  1  0  0  0
  3 46  1  0  0  0
  3  4  1  0  0  0
  4  8  2  0  0  0
  4  5  1  0  0  0
  5  6  2  0  0  0
  5 47  1  0  0  0
  6  7  1  0  0  0
  6  9  1  0  0  0
  7  8  1  0  0  0
  7 35  1  0  0  0
  9 10  1  0  0  0
  9 48  1  0  0  0
  9 49  1  0  0  0
 10 11  1  0  0  0
 10 50  1  0  0  0
 10 80  1  0  0  0
 11 12  1  0  0  0
 11 51  1  0  0  0
 11 52  1  0  0  0
 12 36  1  0  0  0
 12 13  1  0  0  0
 12 34  1  0  0  0
 13 37  1  0  0  0
 13 30  1  0  0  0
 13 14  1  0  0  0
 14 15  1  0  0  0
 14 53  1  0  0  0
 14 54  1  0  0  0
 15 38  1  0  0  0
 15 16  1  0  0  0
 15 33  1  0  0  0
 16 17  1  0  0  0
 16 55  1  0  0  0
 16 56  1  0  0  0
 17 18  1  0  0  0
 17 57  1  0  0  0
 17 58  1  0  0  0
 18 19  1  0  0  0
 18 59  1  0  0  0
 18 60  1  0  0  0
 19 20  1  0  0  0
 19 61  1  0  0  0
 19 62  1  0  0  0
 20 21  1  0  0  0
 20 63  1  0  0  0
 20 64  1  0  0  0
 21 22  1  0  0  0
 21 65  1  0  0  0
 21 66  1  0  0  0
 22 23  1  0  0  0
 23 24  1  0  0  0
 23 67  1  0  0  0
 23 68  1  0  0  0
 24 25  2  0  0  0
 24 26  1  0  0  0
 26 27  1  0  0  0
 26 32  1  0  0  0
 27 39  1  0  0  0
 27 28  1  0  0  0
 27 31  1  0  0  0
 28 29  2  0  0  0
 28 30  1  0  0  0
 30 69  1  0  0  0
 31 70  1  0  0  0
 31 71  1  0  0  0
 31 72  1  0  0  0
 32 73  1  0  0  0
 32 74  1  0  0  0
 32 75  1  0  0  0
 33 76  1  0  0  0
 33 77  1  0  0  0
 33 78  1  0  0  0
 34 79  1  0  0  0
M  CHG  1  10   1
M  END
> <s_m_source_file>
BACE_5.smi

> <i_m_source_file_index>
1

> <i_lp_mmshare_version>
42013

> <i_f3d_flags>
0

> <s_epik_input>
W0NIM11bQ0gyXVtDSDJdYzFbY0hdYyhuW25IXTEpW0NIMl1bTkhdW0NIMl1bQ0BASF0oW09IXSlbQ0BASF0yW0NIMl1bQ0BIXShbQ0gzXSlbQ0gyXVtDSDJdW0NIMl1bQ0gyXVtDSDJdW0NIMl1PW0NIMl1DKD1PKU4oW0NIM10pW0NAQEhdKFtDSDNdKUMoPU8pW05IXTI=

> <s_epik_cmdline>
J2VwaWtfcHl0aG9uJywgJy1waCcsICc3LjAnLCAnLXRuJywgJzgnLCAnLW1hJywgJzIwMCcsICctaW1hZScsICc8aW5maWxlLm1hZT4nLCAnLW9tYWUnLCAnPG91dGZpbGUubWFlPic=

> <r_lp_tautomer_probability>
0.5

> <r_epik_Ionization_Penalty>
  0.1240

> <r_epik_Ionization_Penalty_Charging>
  0.1240

> <r_epik_Ionization_Penalty_Neutral>
  0.0000

> <r_epik_State_Penalty>
  0.5558

> <r_epik_Charging_Adjusted_Penalty>
0.67982

> <i_epik_Tot_Q>
1

> <i_epik_Tot_abs_Q>
1

> <s_lp_Force_Field>
OPLS_2005

> <r_lp_Energy>
33.612

> <b_lp_Chiralities_Consistent>
1

> <s_lp_Variant>
BACE_5.smi:1-2

> <chiral flag>
1

> <version>
0

> <r_i_glide_lipo>
-0.902944

> <r_i_glide_hbond>
-0.32

> <r_i_glide_metal>
-0

> <r_i_glide_rewards>
-0.131837

> <r_i_glide_erotb>
0.526685

> <r_i_glide_esite>
-0.0739927

> <chiral flag>
1

> <s_i_glide_gridfile>
second_dock_grid_2

> <i_i_glide_lignum>
9

> <i_i_glide_rotatable_bonds>
8

> <r_i_docking_score>
-5.53575

> <r_i_glide_ligand_efficiency>
-0.162816

> <r_i_glide_ligand_efficiency_sa>
-0.527461

> <r_i_glide_ligand_efficiency_ln>
-1.223

> <r_glide_XP_GScore>
-6.09155

> <r_i_glide_gscore>
-6.09155

> <r_i_glide_evdw>
-28.2449

> <r_i_glide_ecoul>
-21.0499

> <r_i_glide_energy>
-49.2948

> <r_i_glide_einternal>
7.4534

> <r_i_glide_emodel>
-60.4826

> <r_glide_XP_HBond>
-2.11239

> <i_i_glide_confnum>
1

> <i_i_glide_posenum>
6

> <r_i_glide_eff_state_penalty>
0.5558

> <i_glide_XP_PoseRank>
2

$$$$
BACE_5.smi:1
                    3D
 Structure written by MMmdl.
 80 81  0  0  1  0            999 V2000
   18.7741   41.1402  -11.4487 C   0  0  0  0  0  0
   19.6324   40.0526  -10.7975 C   0  0  0  0  0  0
   18.9779   38.6612  -10.8602 C   0  0  0  0  0  0
   17.9801   38.4086   -9.7784 C   0  0  0  0  0  0
   16.7259   39.0668   -9.5641 C   0  0  0  0  0  0
   16.2901   38.5483   -8.3774 C   0  0  0  0  0  0
   17.1937   37.5700   -8.0411 N   0  0  0  0  0  0
   18.2338   37.4768   -8.8790 N   0  0  0  0  0  0
   15.1627   38.8857   -7.4452 C   0  0  0  0  0  0
   14.8606   40.3298   -7.3411 N   0  3  0  0  0  0
   16.0017   41.2760   -7.3458 C   0  0  0  0  0  0
   15.8104   42.3538   -8.4359 C   0  0  2  0  0  0
   17.0275   43.3021   -8.6453 C   0  0  2  0  0  0
   17.6554   43.8145   -7.3322 C   0  0  0  0  0  0
   18.8905   44.7366   -7.4781 C   0  0  1  0  0  0
   19.2861   45.3282   -6.1063 C   0  0  0  0  0  0
   20.1685   46.5854   -6.1896 C   0  0  0  0  0  0
   19.3331   47.8559   -6.4623 C   0  0  0  0  0  0
   20.1882   49.1220   -6.7184 C   0  0  0  0  0  0
   21.0957   49.0627   -7.9683 C   0  0  0  0  0  0
   20.3608   48.7221   -9.2767 C   0  0  0  0  0  0
   19.3792   49.7142   -9.5411 O   0  0  0  0  0  0
   18.6173   49.4602  -10.7303 C   0  0  0  0  0  0
   17.5870   48.3306  -10.4969 C   0  0  0  0  0  0
   16.8945   48.4124   -9.4774 O   0  0  0  0  0  0
   17.4719   47.3021  -11.3806 N   0  0  0  0  0  0
   16.4842   46.2187  -11.1096 C   0  0  2  0  0  0
   17.1682   44.9714  -10.5294 C   0  0  0  0  0  0
   18.1754   44.5028  -11.0425 O   0  0  0  0  0  0
   16.5817   44.4427   -9.4455 N   0  0  0  0  0  0
   15.6907   45.8437  -12.3760 C   0  0  0  0  0  0
   18.3794   47.1602  -12.5293 C   0  0  0  0  0  0
   20.0799   44.0045   -8.1265 C   0  0  0  0  0  0
   14.6935   43.1234   -8.0397 O   0  0  0  0  0  0
   17.0631   36.9619   -7.2260 H   0  0  0  0  0  0
   15.5709   41.8925   -9.3907 H   0  0  0  0  0  0
   17.7868   42.7427   -9.1829 H   0  0  0  0  0  0
   18.6134   45.5691   -8.1222 H   0  0  0  0  0  0
   15.7297   46.5607  -10.3923 H   0  0  0  0  0  0
   19.2953   42.0973  -11.4914 H   0  0  0  0  0  0
   17.8321   41.2859  -10.9096 H   0  0  0  0  0  0
   18.5192   40.8737  -12.4702 H   0  0  0  0  0  0
   19.8903   40.3245   -9.7722 H   0  0  0  0  0  0
   20.5742   40.0094  -11.3620 H   0  0  0  0  0  0
   19.7599   37.9017  -10.8280 H   0  0  0  0  0  0
   18.4840   38.5572  -11.8190 H   0  0  0  0  0  0
   16.2635   39.8487  -10.1439 H   0  0  0  0  0  0
   15.4356   38.5526   -6.4415 H   0  0  0  0  0  0
   14.2638   38.3350   -7.7188 H   0  0  0  0  0  0
   14.3321   40.4753   -6.4860 H   0  0  0  0  0  0
   16.9695   40.7860   -7.4406 H   0  0  0  0  0  0
   16.0396   41.7331   -6.3576 H   0  0  0  0  0  0
   16.8898   44.3394   -6.7608 H   0  0  0  0  0  0
   17.9547   42.9686   -6.7129 H   0  0  0  0  0  0
   18.3869   45.5785   -5.5438 H   0  0  0  0  0  0
   19.8010   44.5593   -5.5293 H   0  0  0  0  0  0
   20.9301   46.4600   -6.9566 H   0  0  0  0  0  0
   20.7043   46.7037   -5.2401 H   0  0  0  0  0  0
   18.6674   47.7028   -7.3028 H   0  0  0  0  0  0
   18.6924   48.0433   -5.6037 H   0  0  0  0  0  0
   20.8019   49.3257   -5.8406 H   0  0  0  0  0  0
   19.5124   49.9727   -6.8232 H   0  0  0  0  0  0
   21.5929   50.0267   -8.0859 H   0  0  0  0  0  0
   21.8881   48.3441   -7.8112 H   0  0  0  0  0  0
   19.9132   47.7222   -9.2072 H   0  0  0  0  0  0
   21.0777   48.6903  -10.1030 H   0  0  0  0  0  0
   19.2895   49.3075  -11.5691 H   0  0  0  0  0  0
   18.0514   50.3610  -10.9624 H   0  0  0  0  0  0
   15.7249   44.8761   -9.1326 H   0  0  0  0  0  0
   14.8495   45.2119  -12.1075 H   0  0  0  0  0  0
   16.2915   45.2766  -13.0843 H   0  0  0  0  0  0
   15.2975   46.7313  -12.8689 H   0  0  0  0  0  0
   18.2280   46.2533  -13.0971 H   0  0  0  0  0  0
   19.4217   47.1250  -12.1931 H   0  0  0  0  0  0
   18.2615   47.9951  -13.2221 H   0  0  0  0  0  0
   20.9656   44.6423   -8.1981 H   0  0  0  0  0  0
   19.8570   43.6859   -9.1439 H   0  0  0  0  0  0
   20.3551   43.1153   -7.5605 H   0  0  0  0  0  0
   14.8595   43.3501   -7.1182 H   0  0  0  0  0  0
   14.2572   40.5720   -8.1045 H   0  0  0  0  0  0
  1  2  1  0  0  0
  1 40  1  0  0  0
  1 41  1  0  0  0
  1 42  1  0  0  0
  2  3  1  0  0  0
  2 43  1  0  0  0
  2 44  1  0  0  0
  3 45  1  0  0  0
  3 46  1  0  0  0
  3  4  1  0  0  0
  4  8  2  0  0  0
  4  5  1  0  0  0
  5  6  2  0  0  0
  5 47  1  0  0  0
  6  7  1  0  0  0
  6  9  1  0  0  0
  7  8  1  0  0  0
  7 35  1  0  0  0
  9 10  1  0  0  0
  9 48  1  0  0  0
  9 49  1  0  0  0
 10 11  1  0  0  0
 10 50  1  0  0  0
 10 80  1  0  0  0
 11 12  1  0  0  0
 11 51  1  0  0  0
 11 52  1  0  0  0
 12 36  1  0  0  0
 12 13  1  0  0  0
 12 34  1  0  0  0
 13 37  1  0  0  0
 13 30  1  0  0  0
 13 14  1  0  0  0
 14 15  1  0  0  0
 14 53  1  0  0  0
 14 54  1  0  0  0
 15 38  1  0  0  0
 15 16  1  0  0  0
 15 33  1  0  0  0
 16 17  1  0  0  0
 16 55  1  0  0  0
 16 56  1  0  0  0
 17 18  1  0  0  0
 17 57  1  0  0  0
 17 58  1  0  0  0
 18 19  1  0  0  0
 18 59  1  0  0  0
 18 60  1  0  0  0
 19 20  1  0  0  0
 19 61  1  0  0  0
 19 62  1  0  0  0
 20 21  1  0  0  0
 20 63  1  0  0  0
 20 64  1  0  0  0
 21 22  1  0  0  0
 21 65  1  0  0  0
 21 66  1  0  0  0
 22 23  1  0  0  0
 23 24  1  0  0  0
 23 67  1  0  0  0
 23 68  1  0  0  0
 24 25  2  0  0  0
 24 26  1  0  0  0
 26 27  1  0  0  0
 26 32  1  0  0  0
 27 39  1  0  0  0
 27 28  1  0  0  0
 27 31  1  0  0  0
 28 29  2  0  0  0
 28 30  1  0  0  0
 30 69  1  0  0  0
 31 70  1  0  0  0
 31 71  1  0  0  0
 31 72  1  0  0  0
 32 73  1  0  0  0
 32 74  1  0  0  0
 32 75  1  0  0  0
 33 76  1  0  0  0
 33 77  1  0  0  0
 33 78  1  0  0  0
 34 79  1  0  0  0
M  CHG  1  10   1
M  END
> <s_m_source_file>
BACE_5.smi

> <i_m_source_file_index>
1

> <i_lp_mmshare_version>
42013

> <i_f3d_flags>
0

> <s_epik_input>
W0NIM11bQ0gyXVtDSDJdYzFbY0hdYyhuW25IXTEpW0NIMl1bTkhdW0NIMl1bQ0BASF0oW09IXSlbQ0BASF0yW0NIMl1bQ0BIXShbQ0gzXSlbQ0gyXVtDSDJdW0NIMl1bQ0gyXVtDSDJdW0NIMl1PW0NIMl1DKD1PKU4oW0NIM10pW0NAQEhdKFtDSDNdKUMoPU8pW05IXTI=

> <s_epik_cmdline>
J2VwaWtfcHl0aG9uJywgJy1waCcsICc3LjAnLCAnLXRuJywgJzgnLCAnLW1hJywgJzIwMCcsICctaW1hZScsICc8aW5maWxlLm1hZT4nLCAnLW9tYWUnLCAnPG91dGZpbGUubWFlPic=

> <r_lp_tautomer_probability>
0.5

> <r_epik_Ionization_Penalty>
  0.1240

> <r_epik_Ionization_Penalty_Charging>
  0.1240

> <r_epik_Ionization_Penalty_Neutral>
  0.0000

> <r_epik_State_Penalty>
  0.5558

> <r_epik_Charging_Adjusted_Penalty>
0.67982

> <i_epik_Tot_Q>
1

> <i_epik_Tot_abs_Q>
1

> <s_lp_Force_Field>
OPLS_2005

> <r_lp_Energy>
33.612

> <b_lp_Chiralities_Consistent>
1

> <s_lp_Variant>
BACE_5.smi:1-2

> <chiral flag>
1

> <version>
0

> <r_i_glide_lipo>
-0.902944

> <r_i_glide_hbond>
-0.32

> <r_i_glide_metal>
-0

> <r_i_glide_rewards>
-0.131837

> <r_i_glide_erotb>
0.526685

> <r_i_glide_esite>
-0.0739927

> <chiral flag>
1

> <s_i_glide_gridfile>
second_dock_grid_2

> <i_i_glide_lignum>
9

> <i_i_glide_rotatable_bonds>
8

> <r_i_docking_score>
-4.0315

> <r_i_glide_ligand_efficiency>
-0.118573

> <r_i_glide_ligand_efficiency_sa>
-0.384132

> <r_i_glide_ligand_efficiency_ln>
-0.890671

> <r_glide_XP_GScore>
-4.5873

> <r_i_glide_gscore>
-4.5873

> <r_i_glide_evdw>
-26.8153

> <r_i_glide_ecoul>
-21.1455

> <r_i_glide_energy>
-47.9608

> <r_i_glide_einternal>
8.88898

> <r_i_glide_emodel>
-60.2071

> <r_glide_XP_HBond>
-2.11239

> <i_i_glide_confnum>
1

> <i_i_glide_posenum>
10

> <r_i_glide_eff_state_penalty>
0.5558

> <i_glide_XP_PoseRank>
3

$$$$
BACE_5.smi:1
                    3D
 Structure written by MMmdl.
 80 81  0  0  1  0            999 V2000
   20.9339   40.1824  -11.7775 C   0  0  0  0  0  0
   19.9992   39.8503  -10.6074 C   0  0  0  0  0  0
   19.0039   38.7367  -10.9558 C   0  0  0  0  0  0
   18.0427   38.4585   -9.8363 C   0  0  0  0  0  0
   16.7665   39.0553   -9.5962 C   0  0  0  0  0  0
   16.3794   38.5473   -8.3837 C   0  0  0  0  0  0
   17.3455   37.6344   -8.0401 N   0  0  0  0  0  0
   18.3735   37.5795   -8.9035 N   0  0  0  0  0  0
   15.2399   38.8314   -7.4459 C   0  0  0  0  0  0
   14.8608   40.2572   -7.3373 N   0  3  0  0  0  0
   15.9685   41.2390   -7.2652 C   0  0  0  0  0  0
   15.8330   42.2893   -8.3823 C   0  0  2  0  0  0
   17.0867   43.1728   -8.6048 C   0  0  2  0  0  0
   17.6630   43.7599   -7.2950 C   0  0  0  0  0  0
   18.8974   44.6820   -7.4289 C   0  0  1  0  0  0
   19.1993   45.3633   -6.0768 C   0  0  0  0  0  0
   19.9640   46.6929   -6.1914 C   0  0  0  0  0  0
   19.0372   47.8746   -6.5302 C   0  0  0  0  0  0
   19.7604   49.2216   -6.6953 C   0  0  0  0  0  0
   20.8119   49.2686   -7.8215 C   0  0  0  0  0  0
   20.2888   48.8358   -9.1988 C   0  0  0  0  0  0
   19.2083   49.6762   -9.5759 O   0  0  0  0  0  0
   18.5742   49.3108  -10.7961 C   0  0  0  0  0  0
   17.6533   48.0866  -10.5892 C   0  0  0  0  0  0
   16.8601   48.1355   -9.6452 O   0  0  0  0  0  0
   17.7050   47.0247  -11.4400 N   0  0  0  0  0  0
   16.7370   45.9081  -11.2917 C   0  0  2  0  0  0
   17.3671   44.6963  -10.5857 C   0  0  0  0  0  0
   18.3968   44.1763  -11.0075 O   0  0  0  0  0  0
   16.7096   44.2562   -9.5088 N   0  0  0  0  0  0
   16.1720   45.4596  -12.6518 C   0  0  0  0  0  0
   18.7612   46.9071  -12.4578 C   0  0  0  0  0  0
   20.1318   43.9178   -7.9450 C   0  0  0  0  0  0
   14.7310   43.1028   -8.0400 O   0  0  0  0  0  0
   17.2870   37.0402   -7.2115 H   0  0  0  0  0  0
   15.5971   41.7987   -9.3279 H   0  0  0  0  0  0
   17.8466   42.5435   -9.0691 H   0  0  0  0  0  0
   18.6566   45.4648   -8.1452 H   0  0  0  0  0  0
   15.8691   46.2298  -10.7151 H   0  0  0  0  0  0
   21.6295   40.9747  -11.5061 H   0  0  0  0  0  0
   20.3703   40.5183  -12.6530 H   0  0  0  0  0  0
   21.5217   39.3146  -12.0753 H   0  0  0  0  0  0
   19.4538   40.7485  -10.3156 H   0  0  0  0  0  0
   20.5921   39.5560   -9.7376 H   0  0  0  0  0  0
   19.5452   37.8261  -11.2131 H   0  0  0  0  0  0
   18.4505   39.0155  -11.8470 H   0  0  0  0  0  0
   16.2583   39.7926  -10.1961 H   0  0  0  0  0  0
   15.5377   38.5500   -6.4401 H   0  0  0  0  0  0
   14.3676   38.2283   -7.6993 H   0  0  0  0  0  0
   14.3093   40.3702   -6.4920 H   0  0  0  0  0  0
   16.9497   40.7669   -7.3018 H   0  0  0  0  0  0
   15.9211   41.7239   -6.2924 H   0  0  0  0  0  0
   16.8608   44.3258   -6.8256 H   0  0  0  0  0  0
   17.9193   42.9511   -6.6100 H   0  0  0  0  0  0
   18.2653   45.5659   -5.5579 H   0  0  0  0  0  0
   19.7503   44.6719   -5.4385 H   0  0  0  0  0  0
   20.7571   46.5956   -6.9322 H   0  0  0  0  0  0
   20.4672   46.8994   -5.2466 H   0  0  0  0  0  0
   18.4636   47.6568   -7.4299 H   0  0  0  0  0  0
   18.2951   47.9789   -5.7382 H   0  0  0  0  0  0
   20.2325   49.4882   -5.7501 H   0  0  0  0  0  0
   19.0174   49.9955   -6.8826 H   0  0  0  0  0  0
   21.2059   50.2801   -7.8943 H   0  0  0  0  0  0
   21.6596   48.6405   -7.5551 H   0  0  0  0  0  0
   19.9944   47.7884   -9.1758 H   0  0  0  0  0  0
   21.0862   48.9193   -9.9381 H   0  0  0  0  0  0
   19.3228   49.2039  -11.5785 H   0  0  0  0  0  0
   17.9412   50.1435  -11.1003 H   0  0  0  0  0  0
   15.8455   44.7175   -9.2705 H   0  0  0  0  0  0
   15.3064   44.8139  -12.4999 H   0  0  0  0  0  0
   16.8907   44.8909  -13.2400 H   0  0  0  0  0  0
   15.8418   46.3126  -13.2444 H   0  0  0  0  0  0
   18.7848   45.9367  -12.9496 H   0  0  0  0  0  0
   19.7494   47.0332  -12.0107 H   0  0  0  0  0  0
   18.6271   47.6586  -13.2366 H   0  0  0  0  0  0
   20.9978   44.5722   -8.0422 H   0  0  0  0  0  0
   19.9546   43.4785   -8.9246 H   0  0  0  0  0  0
   20.4053   43.1059   -7.2684 H   0  0  0  0  0  0
   14.8599   43.3331   -7.1165 H   0  0  0  0  0  0
   14.2632   40.5013   -8.1156 H   0  0  0  0  0  0
  1  2  1  0  0  0
  1 40  1  0  0  0
  1 41  1  0  0  0
  1 42  1  0  0  0
  2  3  1  0  0  0
  2 43  1  0  0  0
  2 44  1  0  0  0
  3 45  1  0  0  0
  3 46  1  0  0  0
  3  4  1  0  0  0
  4  8  2  0  0  0
  4  5  1  0  0  0
  5  6  2  0  0  0
  5 47  1  0  0  0
  6  7  1  0  0  0
  6  9  1  0  0  0
  7  8  1  0  0  0
  7 35  1  0  0  0
  9 10  1  0  0  0
  9 48  1  0  0  0
  9 49  1  0  0  0
 10 11  1  0  0  0
 10 50  1  0  0  0
 10 80  1  0  0  0
 11 12  1  0  0  0
 11 51  1  0  0  0
 11 52  1  0  0  0
 12 36  1  0  0  0
 12 13  1  0  0  0
 12 34  1  0  0  0
 13 37  1  0  0  0
 13 30  1  0  0  0
 13 14  1  0  0  0
 14 15  1  0  0  0
 14 53  1  0  0  0
 14 54  1  0  0  0
 15 38  1  0  0  0
 15 16  1  0  0  0
 15 33  1  0  0  0
 16 17  1  0  0  0
 16 55  1  0  0  0
 16 56  1  0  0  0
 17 18  1  0  0  0
 17 57  1  0  0  0
 17 58  1  0  0  0
 18 19  1  0  0  0
 18 59  1  0  0  0
 18 60  1  0  0  0
 19 20  1  0  0  0
 19 61  1  0  0  0
 19 62  1  0  0  0
 20 21  1  0  0  0
 20 63  1  0  0  0
 20 64  1  0  0  0
 21 22  1  0  0  0
 21 65  1  0  0  0
 21 66  1  0  0  0
 22 23  1  0  0  0
 23 24  1  0  0  0
 23 67  1  0  0  0
 23 68  1  0  0  0
 24 25  2  0  0  0
 24 26  1  0  0  0
 26 27  1  0  0  0
 26 32  1  0  0  0
 27 39  1  0  0  0
 27 28  1  0  0  0
 27 31  1  0  0  0
 28 29  2  0  0  0
 28 30  1  0  0  0
 30 69  1  0  0  0
 31 70  1  0  0  0
 31 71  1  0  0  0
 31 72  1  0  0  0
 32 73  1  0  0  0
 32 74  1  0  0  0
 32 75  1  0  0  0
 33 76  1  0  0  0
 33 77  1  0  0  0
 33 78  1  0  0  0
 34 79  1  0  0  0
M  CHG  1  10   1
M  END
> <s_m_source_file>
BACE_5.smi

> <i_m_source_file_index>
1

> <i_lp_mmshare_version>
42013

> <i_f3d_flags>
0

> <s_epik_input>
W0NIM11bQ0gyXVtDSDJdYzFbY0hdYyhuW25IXTEpW0NIMl1bTkhdW0NIMl1bQ0BASF0oW09IXSlbQ0BASF0yW0NIMl1bQ0BIXShbQ0gzXSlbQ0gyXVtDSDJdW0NIMl1bQ0gyXVtDSDJdW0NIMl1PW0NIMl1DKD1PKU4oW0NIM10pW0NAQEhdKFtDSDNdKUMoPU8pW05IXTI=

> <s_epik_cmdline>
J2VwaWtfcHl0aG9uJywgJy1waCcsICc3LjAnLCAnLXRuJywgJzgnLCAnLW1hJywgJzIwMCcsICctaW1hZScsICc8aW5maWxlLm1hZT4nLCAnLW9tYWUnLCAnPG91dGZpbGUubWFlPic=

> <r_lp_tautomer_probability>
0.5

> <r_epik_Ionization_Penalty>
  0.1240

> <r_epik_Ionization_Penalty_Charging>
  0.1240

> <r_epik_Ionization_Penalty_Neutral>
  0.0000

> <r_epik_State_Penalty>
  0.5558

> <r_epik_Charging_Adjusted_Penalty>
0.67982

> <i_epik_Tot_Q>
1

> <i_epik_Tot_abs_Q>
1

> <s_lp_Force_Field>
OPLS_2005

> <r_lp_Energy>
33.612

> <b_lp_Chiralities_Consistent>
1

> <s_lp_Variant>
BACE_5.smi:1-2

> <chiral flag>
1

> <version>
0

> <r_i_glide_lipo>
-0.902944

> <r_i_glide_hbond>
-0.32

> <r_i_glide_metal>
-0

> <r_i_glide_rewards>
-0.131837

> <r_i_glide_erotb>
0.526685

> <r_i_glide_esite>
-0.0739927

> <chiral flag>
1

> <s_i_glide_gridfile>
second_dock_grid_2

> <i_i_glide_lignum>
9

> <i_i_glide_rotatable_bonds>
8

> <r_i_docking_score>
-3.8646

> <r_i_glide_ligand_efficiency>
-0.113665

> <r_i_glide_ligand_efficiency_sa>
-0.36823

> <r_i_glide_ligand_efficiency_ln>
-0.853799

> <r_glide_XP_GScore>
-4.4204

> <r_i_glide_gscore>
-4.4204

> <r_i_glide_evdw>
-29.7767

> <r_i_glide_ecoul>
-17.9353

> <r_i_glide_energy>
-47.712

> <r_i_glide_einternal>
5.90702

> <r_i_glide_emodel>
-59.6674

> <r_glide_XP_HBond>
-2.11239

> <i_i_glide_confnum>
1

> <i_i_glide_posenum>
4

> <r_i_glide_eff_state_penalty>
0.5558

> <i_glide_XP_PoseRank>
4

$$$$
BACE_5.smi:1
                    3D
 Structure written by MMmdl.
 79 80  0  0  1  0            999 V2000
   29.9620   42.7722  -14.8060 C   0  0  0  0  0  0
   29.5673   44.0915  -14.1232 C   0  0  0  0  0  0
   29.5900   44.0380  -12.5856 C   0  0  0  0  0  0
   28.5361   43.1371  -12.0020 C   0  0  0  0  0  0
   27.2320   43.4857  -11.5438 C   0  0  0  0  0  0
   26.7015   42.3106  -11.0899 C   0  0  0  0  0  0
   27.6640   41.3501  -11.3102 N   0  0  0  0  0  0
   28.7894   41.8471  -11.8546 N   0  0  0  0  0  0
   25.3809   42.0200  -10.4524 C   0  0  0  0  0  0
   24.2676   42.5509  -11.2400 N   0  0  0  0  0  0
   23.0157   42.7854  -10.5159 C   0  0  0  0  0  0
   22.3807   41.4847   -9.9589 C   0  0  2  0  0  0
   20.8209   41.4388   -9.8157 C   0  0  2  0  0  0
   20.1789   40.1402  -10.3680 C   0  0  0  0  0  0
   20.2333   38.8950   -9.4522 C   0  0  1  0  0  0
   19.2628   37.7846   -9.9202 C   0  0  0  0  0  0
   17.7666   38.1419  -10.0229 C   0  0  0  0  0  0
   17.1418   38.6978   -8.7315 C   0  0  0  0  0  0
   15.6050   38.8100   -8.7926 C   0  0  0  0  0  0
   15.0480   39.6851   -9.9333 C   0  0  0  0  0  0
   15.4562   41.1605   -9.8438 C   0  0  0  0  0  0
   14.8681   41.8681  -10.9330 O   0  0  0  0  0  0
   15.0660   43.2788  -10.8946 C   0  0  0  0  0  0
   16.5145   43.6366  -11.2903 C   0  0  0  0  0  0
   16.8605   43.3500  -12.4401 O   0  0  0  0  0  0
   17.3517   44.2259  -10.3951 N   0  0  0  0  0  0
   18.7594   44.5338  -10.7513 C   0  0  2  0  0  0
   19.7339   43.6857   -9.9167 C   0  0  0  0  0  0
   20.0822   44.0406   -8.7874 O   0  0  0  0  0  0
   20.1343   42.5406  -10.4898 N   0  0  0  0  0  0
   19.0337   46.0477  -10.6369 C   0  0  0  0  0  0
   16.9218   44.5030   -9.0133 C   0  0  0  0  0  0
   21.6515   38.3054   -9.3572 C   0  0  0  0  0  0
   22.9261   41.3171   -8.6643 O   0  0  0  0  0  0
   27.6047   40.3635  -11.0636 H   0  0  0  0  0  0
   22.6970   40.6470  -10.5825 H   0  0  0  0  0  0
   20.5515   41.5032   -8.7588 H   0  0  0  0  0  0
   19.9310   39.1915   -8.4474 H   0  0  0  0  0  0
   18.9631   44.2915  -11.7953 H   0  0  0  0  0  0
   29.9811   42.8806  -15.8904 H   0  0  0  0  0  0
   29.2604   41.9697  -14.5746 H   0  0  0  0  0  0
   30.9520   42.4437  -14.4878 H   0  0  0  0  0  0
   28.5775   44.4071  -14.4553 H   0  0  0  0  0  0
   30.2585   44.8675  -14.4548 H   0  0  0  0  0  0
   29.4520   45.0472  -12.1960 H   0  0  0  0  0  0
   30.5782   43.7272  -12.2434 H   0  0  0  0  0  0
   26.7586   44.4560  -11.5373 H   0  0  0  0  0  0
   25.3817   42.4716   -9.4607 H   0  0  0  0  0  0
   25.2605   40.9467  -10.3043 H   0  0  0  0  0  0
   24.0671   41.8800  -11.9855 H   0  0  0  0  0  0
   22.3417   43.2479  -11.2335 H   0  0  0  0  0  0
   23.1516   43.5261   -9.7261 H   0  0  0  0  0  0
   19.1257   40.3626  -10.5394 H   0  0  0  0  0  0
   20.5837   39.9008  -11.3532 H   0  0  0  0  0  0
   19.5913   37.4060  -10.8874 H   0  0  0  0  0  0
   19.3482   36.9468   -9.2303 H   0  0  0  0  0  0
   17.2277   37.2342  -10.2946 H   0  0  0  0  0  0
   17.6066   38.8316  -10.8506 H   0  0  0  0  0  0
   17.4023   38.0412   -7.8998 H   0  0  0  0  0  0
   17.5755   39.6689   -8.4923 H   0  0  0  0  0  0
   15.2410   39.1908   -7.8365 H   0  0  0  0  0  0
   15.1863   37.8068   -8.8853 H   0  0  0  0  0  0
   15.3427   39.2823  -10.9009 H   0  0  0  0  0  0
   13.9596   39.6234   -9.9104 H   0  0  0  0  0  0
   16.5428   41.2482   -9.8746 H   0  0  0  0  0  0
   15.1154   41.5778   -8.8945 H   0  0  0  0  0  0
   14.7320   43.6814   -9.9398 H   0  0  0  0  0  0
   14.4088   43.7234  -11.6429 H   0  0  0  0  0  0
   19.8164   42.3564  -11.4305 H   0  0  0  0  0  0
   20.0439   46.2882  -10.9729 H   0  0  0  0  0  0
   18.9395   46.4198   -9.6166 H   0  0  0  0  0  0
   18.3403   46.6148  -11.2592 H   0  0  0  0  0  0
   17.7034   44.9542   -8.4032 H   0  0  0  0  0  0
   16.6233   43.5857   -8.5028 H   0  0  0  0  0  0
   16.0826   45.2019   -8.9993 H   0  0  0  0  0  0
   21.6499   37.3503   -8.8402 H   0  0  0  0  0  0
   22.3261   38.9370   -8.7882 H   0  0  0  0  0  0
   22.0833   38.1503  -10.3457 H   0  0  0  0  0  0
   23.8255   41.0492   -8.7498 H   0  0  0  0  0  0
  1  2  1  0  0  0
  1 40  1  0  0  0
  1 41  1  0  0  0
  1 42  1  0  0  0
  2  3  1  0  0  0
  2 43  1  0  0  0
  2 44  1  0  0  0
  3 45  1  0  0  0
  3 46  1  0  0  0
  3  4  1  0  0  0
  4  8  2  0  0  0
  4  5  1  0  0  0
  5  6  2  0  0  0
  5 47  1  0  0  0
  6  7  1  0  0  0
  6  9  1  0  0  0
  7  8  1  0  0  0
  7 35  1  0  0  0
  9 10  1  0  0  0
  9 48  1  0  0  0
  9 49  1  0  0  0
 10 11  1  0  0  0
 10 50  1  0  0  0
 11 12  1  0  0  0
 11 51  1  0  0  0
 11 52  1  0  0  0
 12 36  1  0  0  0
 12 13  1  0  0  0
 12 34  1  0  0  0
 13 37  1  0  0  0
 13 30  1  0  0  0
 13 14  1  0  0  0
 14 15  1  0  0  0
 14 53  1  0  0  0
 14 54  1  0  0  0
 15 38  1  0  0  0
 15 16  1  0  0  0
 15 33  1  0  0  0
 16 17  1  0  0  0
 16 55  1  0  0  0
 16 56  1  0  0  0
 17 18  1  0  0  0
 17 57  1  0  0  0
 17 58  1  0  0  0
 18 19  1  0  0  0
 18 59  1  0  0  0
 18 60  1  0  0  0
 19 20  1  0  0  0
 19 61  1  0  0  0
 19 62  1  0  0  0
 20 21  1  0  0  0
 20 63  1  0  0  0
 20 64  1  0  0  0
 21 22  1  0  0  0
 21 65  1  0  0  0
 21 66  1  0  0  0
 22 23  1  0  0  0
 23 24  1  0  0  0
 23 67  1  0  0  0
 23 68  1  0  0  0
 24 25  2  0  0  0
 24 26  1  0  0  0
 26 27  1  0  0  0
 26 32  1  0  0  0
 27 39  1  0  0  0
 27 28  1  0  0  0
 27 31  1  0  0  0
 28 29  2  0  0  0
 28 30  1  0  0  0
 30 69  1  0  0  0
 31 70  1  0  0  0
 31 71  1  0  0  0
 31 72  1  0  0  0
 32 73  1  0  0  0
 32 74  1  0  0  0
 32 75  1  0  0  0
 33 76  1  0  0  0
 33 77  1  0  0  0
 33 78  1  0  0  0
 34 79  1  0  0  0
M  END
> <s_m_source_file>
BACE_5.smi

> <i_m_source_file_index>
1

> <i_lp_mmshare_version>
42013

> <i_f3d_flags>
0

> <s_epik_input>
W0NIM11bQ0gyXVtDSDJdYzFbY0hdYyhuW25IXTEpW0NIMl1bTkhdW0NIMl1bQ0BASF0oW09IXSlbQ0BASF0yW0NIMl1bQ0BIXShbQ0gzXSlbQ0gyXVtDSDJdW0NIMl1bQ0gyXVtDSDJdW0NIMl1PW0NIMl1DKD1PKU4oW0NIM10pW0NAQEhdKFtDSDNdKUMoPU8pW05IXTI=

> <s_epik_cmdline>
J2VwaWtfcHl0aG9uJywgJy1waCcsICc3LjAnLCAnLXRuJywgJzgnLCAnLW1hJywgJzIwMCcsICctaW1hZScsICc8aW5maWxlLm1hZT4nLCAnLW9tYWUnLCAnPG91dGZpbGUubWFlPic=

> <r_lp_tautomer_probability>
0.5

> <r_epik_Ionization_Penalty>
  0.9876

> <r_epik_Ionization_Penalty_Charging>
  0.0000

> <r_epik_Ionization_Penalty_Neutral>
  0.9876

> <r_epik_State_Penalty>
  1.6104

> <r_epik_Charging_Adjusted_Penalty>
1.61044

> <i_epik_Tot_Q>
0

> <i_epik_Tot_abs_Q>
0

> <s_lp_Force_Field>
OPLS_2005

> <r_lp_Energy>
32.3926

> <b_lp_Chiralities_Consistent>
1

> <s_lp_Variant>
BACE_5.smi:1-3

> <chiral flag>
1

> <version>
0

> <r_i_glide_lipo>
-0.879821

> <r_i_glide_hbond>
-0.816235

> <r_i_glide_metal>
-0

> <r_i_glide_rewards>
-0.14092

> <r_i_glide_erotb>
0.52871

> <r_i_glide_esite>
-0.0560036

> <chiral flag>
1

> <s_i_glide_gridfile>
second_dock_grid_2

> <i_i_glide_lignum>
10

> <i_i_glide_rotatable_bonds>
8

> <r_i_docking_score>
-4.35349

> <r_i_glide_ligand_efficiency>
-0.128044

> <r_i_glide_ligand_efficiency_sa>
-0.414812

> <r_i_glide_ligand_efficiency_ln>
-0.961808

> <r_glide_XP_GScore>
-5.96389

> <r_i_glide_gscore>
-5.96389

> <r_i_glide_evdw>
-31.439

> <r_i_glide_ecoul>
-15.0811

> <r_i_glide_energy>
-46.5202

> <r_i_glide_einternal>
7.55016

> <r_i_glide_emodel>
-59.6089

> <r_glide_XP_HBond>
-0.9975

> <i_i_glide_confnum>
1

> <i_i_glide_posenum>
10

> <r_i_glide_eff_state_penalty>
1.6104

> <i_glide_XP_PoseRank>
1

$$$$
BACE_5.smi:1
                    3D
 Structure written by MMmdl.
 79 80  0  0  1  0            999 V2000
   28.8702   44.4685  -14.1273 C   0  0  0  0  0  0
   27.6110   45.1334  -13.5557 C   0  0  0  0  0  0
   27.5002   45.0371  -12.0249 C   0  0  0  0  0  0
   27.0760   43.6808  -11.5337 C   0  0  0  0  0  0
   25.7922   43.3042  -11.0442 C   0  0  0  0  0  0
   25.9351   41.9927  -10.6839 C   0  0  0  0  0  0
   27.2347   41.6541  -10.9833 N   0  0  0  0  0  0
   27.9445   42.6806  -11.4901 N   0  0  0  0  0  0
   24.9759   41.0191  -10.0777 C   0  0  0  0  0  0
   23.8405   41.6702   -9.4212 N   0  0  0  0  0  0
   23.0668   40.7682   -8.5676 C   0  0  0  0  0  0
   22.1793   39.7635   -9.3519 C   0  0  2  0  0  0
   20.6645   40.0856   -9.2349 C   0  0  2  0  0  0
   19.7145   38.8706   -9.4329 C   0  0  0  0  0  0
   18.2446   39.1252   -9.0147 C   0  0  1  0  0  0
   17.3705   39.5839  -10.1981 C   0  0  0  0  0  0
   16.0572   40.2605   -9.7744 C   0  0  0  0  0  0
   15.3020   40.8392  -10.9806 C   0  0  0  0  0  0
   14.0249   41.6228  -10.6238 C   0  0  0  0  0  0
   14.2126   42.8517   -9.7105 C   0  0  0  0  0  0
   15.3794   43.7755  -10.0855 C   0  0  0  0  0  0
   15.2918   44.1917  -11.4445 O   0  0  0  0  0  0
   16.3863   44.9921  -11.8898 C   0  0  0  0  0  0
   17.6628   44.1355  -12.0407 C   0  0  0  0  0  0
   17.6959   43.3499  -12.9906 O   0  0  0  0  0  0
   18.6677   44.2367  -11.1285 N   0  0  0  0  0  0
   19.8307   43.3152  -11.1630 C   0  0  2  0  0  0
   19.8938   42.3551   -9.9576 C   0  0  0  0  0  0
   19.5711   42.7248   -8.8303 O   0  0  0  0  0  0
   20.3699   41.1277  -10.2174 N   0  0  0  0  0  0
   21.1494   44.1067  -11.2843 C   0  0  0  0  0  0
   18.6370   45.2579  -10.0693 C   0  0  0  0  0  0
   17.6421   37.8759   -8.3441 C   0  0  0  0  0  0
   22.4598   38.4831   -8.8402 O   0  0  0  0  0  0
   27.6504   40.7371  -10.8459 H   0  0  0  0  0  0
   22.4619   39.7214  -10.4063 H   0  0  0  0  0  0
   20.4841   40.4460   -8.2195 H   0  0  0  0  0  0
   18.2406   39.9145   -8.2627 H   0  0  0  0  0  0
   19.7838   42.6860  -12.0512 H   0  0  0  0  0  0
   28.9499   44.6387  -15.2015 H   0  0  0  0  0  0
   28.8615   43.3901  -13.9682 H   0  0  0  0  0  0
   29.7725   44.8648  -13.6598 H   0  0  0  0  0  0
   26.7189   44.7200  -14.0264 H   0  0  0  0  0  0
   27.6394   46.1884  -13.8334 H   0  0  0  0  0  0
   26.7696   45.7715  -11.6872 H   0  0  0  0  0  0
   28.4432   45.3314  -11.5625 H   0  0  0  0  0  0
   24.9041   43.9085  -10.9534 H   0  0  0  0  0  0
   25.5232   40.4192   -9.3454 H   0  0  0  0  0  0
   24.6215   40.3282  -10.8404 H   0  0  0  0  0  0
   23.2221   42.0400  -10.1406 H   0  0  0  0  0  0
   22.4419   41.3678   -7.9058 H   0  0  0  0  0  0
   23.7479   40.2398   -7.8986 H   0  0  0  0  0  0
   19.7687   38.4950  -10.4552 H   0  0  0  0  0  0
   20.0763   38.0498   -8.8134 H   0  0  0  0  0  0
   17.9262   40.2856  -10.8187 H   0  0  0  0  0  0
   17.1560   38.7293  -10.8395 H   0  0  0  0  0  0
   16.2839   41.0554   -9.0650 H   0  0  0  0  0  0
   15.4146   39.5554   -9.2475 H   0  0  0  0  0  0
   15.9715   41.4747  -11.5621 H   0  0  0  0  0  0
   15.0261   40.0158  -11.6391 H   0  0  0  0  0  0
   13.3117   40.9519  -10.1419 H   0  0  0  0  0  0
   13.5529   41.9495  -11.5506 H   0  0  0  0  0  0
   13.2845   43.4269   -9.7056 H   0  0  0  0  0  0
   14.3563   42.5145   -8.6816 H   0  0  0  0  0  0
   16.3144   43.2547   -9.8864 H   0  0  0  0  0  0
   15.3706   44.6509   -9.4365 H   0  0  0  0  0  0
   16.5019   45.8664  -11.2524 H   0  0  0  0  0  0
   16.1330   45.3794  -12.8760 H   0  0  0  0  0  0
   20.5948   40.9097  -11.1749 H   0  0  0  0  0  0
   21.9700   43.4507  -11.5766 H   0  0  0  0  0  0
   21.4426   44.5822  -10.3474 H   0  0  0  0  0  0
   21.0782   44.8899  -12.0400 H   0  0  0  0  0  0
   19.5228   45.2419   -9.4337 H   0  0  0  0  0  0
   17.7858   45.1124   -9.4037 H   0  0  0  0  0  0
   18.5743   46.2616  -10.4980 H   0  0  0  0  0  0
   16.6247   38.0490   -7.9950 H   0  0  0  0  0  0
   18.2207   37.5785   -7.4690 H   0  0  0  0  0  0
   17.6201   37.0282   -9.0282 H   0  0  0  0  0  0
   23.3473   38.2543   -9.1177 H   0  0  0  0  0  0
  1  2  1  0  0  0
  1 40  1  0  0  0
  1 41  1  0  0  0
  1 42  1  0  0  0
  2  3  1  0  0  0
  2 43  1  0  0  0
  2 44  1  0  0  0
  3 45  1  0  0  0
  3 46  1  0  0  0
  3  4  1  0  0  0
  4  8  2  0  0  0
  4  5  1  0  0  0
  5  6  2  0  0  0
  5 47  1  0  0  0
  6  7  1  0  0  0
  6  9  1  0  0  0
  7  8  1  0  0  0
  7 35  1  0  0  0
  9 10  1  0  0  0
  9 48  1  0  0  0
  9 49  1  0  0  0
 10 11  1  0  0  0
 10 50  1  0  0  0
 11 12  1  0  0  0
 11 51  1  0  0  0
 11 52  1  0  0  0
 12 36  1  0  0  0
 12 13  1  0  0  0
 12 34  1  0  0  0
 13 37  1  0  0  0
 13 30  1  0  0  0
 13 14  1  0  0  0
 14 15  1  0  0  0
 14 53  1  0  0  0
 14 54  1  0  0  0
 15 38  1  0  0  0
 15 16  1  0  0  0
 15 33  1  0  0  0
 16 17  1  0  0  0
 16 55  1  0  0  0
 16 56  1  0  0  0
 17 18  1  0  0  0
 17 57  1  0  0  0
 17 58  1  0  0  0
 18 19  1  0  0  0
 18 59  1  0  0  0
 18 60  1  0  0  0
 19 20  1  0  0  0
 19 61  1  0  0  0
 19 62  1  0  0  0
 20 21  1  0  0  0
 20 63  1  0  0  0
 20 64  1  0  0  0
 21 22  1  0  0  0
 21 65  1  0  0  0
 21 66  1  0  0  0
 22 23  1  0  0  0
 23 24  1  0  0  0
 23 67  1  0  0  0
 23 68  1  0  0  0
 24 25  2  0  0  0
 24 26  1  0  0  0
 26 27  1  0  0  0
 26 32  1  0  0  0
 27 39  1  0  0  0
 27 28  1  0  0  0
 27 31  1  0  0  0
 28 29  2  0  0  0
 28 30  1  0  0  0
 30 69  1  0  0  0
 31 70  1  0  0  0
 31 71  1  0  0  0
 31 72  1  0  0  0
 32 73  1  0  0  0
 32 74  1  0  0  0
 32 75  1  0  0  0
 33 76  1  0  0  0
 33 77  1  0  0  0
 33 78  1  0  0  0
 34 79  1  0  0  0
M  END
> <s_m_source_file>
BACE_5.smi

> <i_m_source_file_index>
1

> <i_lp_mmshare_version>
42013

> <i_f3d_flags>
0

> <s_epik_input>
W0NIM11bQ0gyXVtDSDJdYzFbY0hdYyhuW25IXTEpW0NIMl1bTkhdW0NIMl1bQ0BASF0oW09IXSlbQ0BASF0yW0NIMl1bQ0BIXShbQ0gzXSlbQ0gyXVtDSDJdW0NIMl1bQ0gyXVtDSDJdW0NIMl1PW0NIMl1DKD1PKU4oW0NIM10pW0NAQEhdKFtDSDNdKUMoPU8pW05IXTI=

> <s_epik_cmdline>
J2VwaWtfcHl0aG9uJywgJy1waCcsICc3LjAnLCAnLXRuJywgJzgnLCAnLW1hJywgJzIwMCcsICctaW1hZScsICc8aW5maWxlLm1hZT4nLCAnLW9tYWUnLCAnPG91dGZpbGUubWFlPic=

> <r_lp_tautomer_probability>
0.5

> <r_epik_Ionization_Penalty>
  0.9876

> <r_epik_Ionization_Penalty_Charging>
  0.0000

> <r_epik_Ionization_Penalty_Neutral>
  0.9876

> <r_epik_State_Penalty>
  1.6104

> <r_epik_Charging_Adjusted_Penalty>
1.61044

> <i_epik_Tot_Q>
0

> <i_epik_Tot_abs_Q>
0

> <s_lp_Force_Field>
OPLS_2005

> <r_lp_Energy>
32.3926

> <b_lp_Chiralities_Consistent>
1

> <s_lp_Variant>
BACE_5.smi:1-3

> <chiral flag>
1

> <version>
0

> <r_i_glide_lipo>
-0.879821

> <r_i_glide_hbond>
-0.816235

> <r_i_glide_metal>
-0

> <r_i_glide_rewards>
-0.14092

> <r_i_glide_erotb>
0.52871

> <r_i_glide_esite>
-0.0560036

> <chiral flag>
1

> <s_i_glide_gridfile>
second_dock_grid_2

> <i_i_glide_lignum>
10

> <i_i_glide_rotatable_bonds>
8

> <r_i_docking_score>
-3.59152

> <r_i_glide_ligand_efficiency>
-0.105633

> <r_i_glide_ligand_efficiency_sa>
-0.34221

> <r_i_glide_ligand_efficiency_ln>
-0.793468

> <r_glide_XP_GScore>
-5.20192

> <r_i_glide_gscore>
-5.20192

> <r_i_glide_evdw>
-33.8868

> <r_i_glide_ecoul>
-12.6474

> <r_i_glide_energy>
-46.5342

> <r_i_glide_einternal>
5.10664

> <r_i_glide_emodel>
-60.1555

> <r_glide_XP_HBond>
-0.9975

> <i_i_glide_confnum>
1

> <i_i_glide_posenum>
7

> <r_i_glide_eff_state_penalty>
1.6104

> <i_glide_XP_PoseRank>
2

$$$$
BACE_5.smi:1
                    3D
 Structure written by MMmdl.
 79 80  0  0  1  0            999 V2000
   31.0518   43.4631   -8.8411 C   0  0  0  0  0  0
   30.1558   44.7025   -8.7251 C   0  0  0  0  0  0
   29.2002   44.8619   -9.9199 C   0  0  0  0  0  0
   28.2550   43.6985  -10.0619 C   0  0  0  0  0  0
   26.8712   43.6445   -9.7180 C   0  0  0  0  0  0
   26.4891   42.3715  -10.0400 C   0  0  0  0  0  0
   27.6117   41.7513  -10.5391 N   0  0  0  0  0  0
   28.6955   42.5497  -10.5569 N   0  0  0  0  0  0
   25.1732   41.6733   -9.9295 C   0  0  0  0  0  0
   24.1763   42.2292  -10.8399 N   0  0  0  0  0  0
   22.9102   42.5574  -10.1867 C   0  0  0  0  0  0
   22.2108   41.3029   -9.6195 C   0  0  2  0  0  0
   20.7439   41.5053   -9.2505 C   0  0  2  0  0  0
   19.9041   40.3252   -9.7812 C   0  0  0  0  0  0
   20.0015   39.0566   -8.9119 C   0  0  1  0  0  0
   19.1911   37.8554   -9.4478 C   0  0  0  0  0  0
   17.6945   38.1162   -9.7355 C   0  0  0  0  0  0
   16.8958   38.6810   -8.5414 C   0  0  0  0  0  0
   15.3719   38.7688   -8.7788 C   0  0  0  0  0  0
   14.9188   39.6212   -9.9852 C   0  0  0  0  0  0
   15.3124   41.1096   -9.9081 C   0  0  0  0  0  0
   14.7702   41.9274  -11.1018 O   0  0  0  0  0  0
   15.1686   43.4262  -11.0924 C   0  0  0  0  0  0
   16.6707   43.6830  -11.2608 C   0  0  0  0  0  0
   17.2799   43.1404  -12.1679 O   0  0  0  0  0  0
   17.2442   44.5002  -10.3635 N   0  0  0  0  0  0
   18.7139   44.6240  -10.2430 C   0  0  2  0  0  0
   19.2617   43.5031   -9.3329 C   0  0  0  0  0  0
   18.7987   43.3172   -8.2196 O   0  0  0  0  0  0
   20.2536   42.7550   -9.8358 N   0  0  0  0  0  0
   19.0512   45.9612   -9.5897 C   0  0  0  0  0  0
   16.3930   45.0749   -9.3414 C   0  0  0  0  0  0
   21.4643   38.6428   -8.7791 C   0  0  0  0  0  0
   22.9501   40.9009   -8.4816 O   0  0  0  0  0  0
   27.6518   40.7965  -10.8662 H   0  0  0  0  0  0
   22.3064   40.5054  -10.3577 H   0  0  0  0  0  0
   20.7040   41.5461   -8.1620 H   0  0  0  0  0  0
   19.6702   39.2877   -7.8995 H   0  0  0  0  0  0
   19.2094   44.6294  -11.2139 H   0  0  0  0  0  0
   31.7134   43.3820   -7.9783 H   0  0  0  0  0  0
   31.6765   43.5079   -9.7336 H   0  0  0  0  0  0
   30.4595   42.5489   -8.8905 H   0  0  0  0  0  0
   30.7866   45.5875   -8.6336 H   0  0  0  0  0  0
   29.5794   44.6374   -7.8014 H   0  0  0  0  0  0
   29.7811   44.9724  -10.8364 H   0  0  0  0  0  0
   28.6330   45.7878   -9.8134 H   0  0  0  0  0  0
   26.2530   44.4245   -9.2983 H   0  0  0  0  0  0
   24.8133   41.7387   -8.9017 H   0  0  0  0  0  0
   25.3141   40.6121  -10.1371 H   0  0  0  0  0  0
   23.9996   41.5674  -11.5890 H   0  0  0  0  0  0
   22.2534   43.0889  -10.8752 H   0  0  0  0  0  0
   23.1082   43.2481   -9.3655 H   0  0  0  0  0  0
   18.8569   40.6245   -9.8261 H   0  0  0  0  0  0
   20.1971   40.1010  -10.8069 H   0  0  0  0  0  0
   19.6605   37.4939  -10.3627 H   0  0  0  0  0  0
   19.2770   37.0336   -8.7368 H   0  0  0  0  0  0
   17.2386   37.1805  -10.0592 H   0  0  0  0  0  0
   17.6058   38.7906  -10.5872 H   0  0  0  0  0  0
   17.0722   38.0524   -7.6686 H   0  0  0  0  0  0
   17.2762   39.6660   -8.2707 H   0  0  0  0  0  0
   14.8977   39.1533   -7.8758 H   0  0  0  0  0  0
   14.9795   37.7593   -8.9011 H   0  0  0  0  0  0
   15.3045   39.1868  -10.9075 H   0  0  0  0  0  0
   13.8342   39.5480  -10.0649 H   0  0  0  0  0  0
   16.3987   41.1912   -9.8727 H   0  0  0  0  0  0
   14.9454   41.5385   -8.9756 H   0  0  0  0  0  0
   14.7993   43.8944  -10.1800 H   0  0  0  0  0  0
   14.6666   43.9445  -11.9094 H   0  0  0  0  0  0
   20.5937   42.9970  -10.7556 H   0  0  0  0  0  0
   20.1301   46.1022   -9.5112 H   0  0  0  0  0  0
   18.6355   46.0434   -8.5848 H   0  0  0  0  0  0
   18.6616   46.7953  -10.1742 H   0  0  0  0  0  0
   16.8832   45.8493   -8.7544 H   0  0  0  0  0  0
   16.0459   44.3121   -8.6435 H   0  0  0  0  0  0
   15.5263   45.5684   -9.7831 H   0  0  0  0  0  0
   21.5747   37.7502   -8.1638 H   0  0  0  0  0  0
   22.0650   39.4206   -8.3089 H   0  0  0  0  0  0
   21.9093   38.4263   -9.7510 H   0  0  0  0  0  0
   23.7567   40.5040   -8.7729 H   0  0  0  0  0  0
  1  2  1  0  0  0
  1 40  1  0  0  0
  1 41  1  0  0  0
  1 42  1  0  0  0
  2  3  1  0  0  0
  2 43  1  0  0  0
  2 44  1  0  0  0
  3 45  1  0  0  0
  3 46  1  0  0  0
  3  4  1  0  0  0
  4  8  2  0  0  0
  4  5  1  0  0  0
  5  6  2  0  0  0
  5 47  1  0  0  0
  6  7  1  0  0  0
  6  9  1  0  0  0
  7  8  1  0  0  0
  7 35  1  0  0  0
  9 10  1  0  0  0
  9 48  1  0  0  0
  9 49  1  0  0  0
 10 11  1  0  0  0
 10 50  1  0  0  0
 11 12  1  0  0  0
 11 51  1  0  0  0
 11 52  1  0  0  0
 12 36  1  0  0  0
 12 13  1  0  0  0
 12 34  1  0  0  0
 13 37  1  0  0  0
 13 30  1  0  0  0
 13 14  1  0  0  0
 14 15  1  0  0  0
 14 53  1  0  0  0
 14 54  1  0  0  0
 15 38  1  0  0  0
 15 16  1  0  0  0
 15 33  1  0  0  0
 16 17  1  0  0  0
 16 55  1  0  0  0
 16 56  1  0  0  0
 17 18  1  0  0  0
 17 57  1  0  0  0
 17 58  1  0  0  0
 18 19  1  0  0  0
 18 59  1  0  0  0
 18 60  1  0  0  0
 19 20  1  0  0  0
 19 61  1  0  0  0
 19 62  1  0  0  0
 20 21  1  0  0  0
 20 63  1  0  0  0
 20 64  1  0  0  0
 21 22  1  0  0  0
 21 65  1  0  0  0
 21 66  1  0  0  0
 22 23  1  0  0  0
 23 24  1  0  0  0
 23 67  1  0  0  0
 23 68  1  0  0  0
 24 25  2  0  0  0
 24 26  1  0  0  0
 26 27  1  0  0  0
 26 32  1  0  0  0
 27 39  1  0  0  0
 27 28  1  0  0  0
 27 31  1  0  0  0
 28 29  2  0  0  0
 28 30  1  0  0  0
 30 69  1  0  0  0
 31 70  1  0  0  0
 31 71  1  0  0  0
 31 72  1  0  0  0
 32 73  1  0  0  0
 32 74  1  0  0  0
 32 75  1  0  0  0
 33 76  1  0  0  0
 33 77  1  0  0  0
 33 78  1  0  0  0
 34 79  1  0  0  0
M  END
> <s_m_source_file>
BACE_5.smi

> <i_m_source_file_index>
1

> <i_lp_mmshare_version>
42013

> <i_f3d_flags>
0

> <s_epik_input>
W0NIM11bQ0gyXVtDSDJdYzFbY0hdYyhuW25IXTEpW0NIMl1bTkhdW0NIMl1bQ0BASF0oW09IXSlbQ0BASF0yW0NIMl1bQ0BIXShbQ0gzXSlbQ0gyXVtDSDJdW0NIMl1bQ0gyXVtDSDJdW0NIMl1PW0NIMl1DKD1PKU4oW0NIM10pW0NAQEhdKFtDSDNdKUMoPU8pW05IXTI=

> <s_epik_cmdline>
J2VwaWtfcHl0aG9uJywgJy1waCcsICc3LjAnLCAnLXRuJywgJzgnLCAnLW1hJywgJzIwMCcsICctaW1hZScsICc8aW5maWxlLm1hZT4nLCAnLW9tYWUnLCAnPG91dGZpbGUubWFlPic=

> <r_lp_tautomer_probability>
0.5

> <r_epik_Ionization_Penalty>
  0.9876

> <r_epik_Ionization_Penalty_Charging>
  0.0000

> <r_epik_Ionization_Penalty_Neutral>
  0.9876

> <r_epik_State_Penalty>
  1.6104

> <r_epik_Charging_Adjusted_Penalty>
1.61044

> <i_epik_Tot_Q>
0

> <i_epik_Tot_abs_Q>
0

> <s_lp_Force_Field>
OPLS_2005

> <r_lp_Energy>
32.3926

> <b_lp_Chiralities_Consistent>
1

> <s_lp_Variant>
BACE_5.smi:1-3

> <chiral flag>
1

> <version>
0

> <r_i_glide_lipo>
-0.879821

> <r_i_glide_hbond>
-0.816235

> <r_i_glide_metal>
-0

> <r_i_glide_rewards>
-0.14092

> <r_i_glide_erotb>
0.52871

> <r_i_glide_esite>
-0.0560036

> <chiral flag>
1

> <s_i_glide_gridfile>
second_dock_grid_2

> <i_i_glide_lignum>
10

> <i_i_glide_rotatable_bonds>
8

> <r_i_docking_score>
-2.77862

> <r_i_glide_ligand_efficiency>
-0.0817243

> <r_i_glide_ligand_efficiency_sa>
-0.264755

> <r_i_glide_ligand_efficiency_ln>
-0.613876

> <r_glide_XP_GScore>
-4.38902

> <r_i_glide_gscore>
-4.38902

> <r_i_glide_evdw>
-33.3354

> <r_i_glide_ecoul>
-11.0052

> <r_i_glide_energy>
-44.3406

> <r_i_glide_einternal>
8.79142

> <r_i_glide_emodel>
-59.3262

> <r_glide_XP_HBond>
-0.9975

> <i_i_glide_confnum>
1

> <i_i_glide_posenum>
1

> <r_i_glide_eff_state_penalty>
1.6104

> <i_glide_XP_PoseRank>
3

$$$$
BACE_5.smi:1
                    3D
 Structure written by MMmdl.
 79 80  0  0  1  0            999 V2000
   21.6778   38.6902   -9.1709 C   0  0  0  0  0  0
   21.9851   39.0464   -7.7066 C   0  0  0  0  0  0
   20.9577   39.9774   -7.0395 C   0  0  0  0  0  0
   19.5481   39.4517   -7.0615 C   0  0  0  0  0  0
   18.3905   40.0437   -7.6397 C   0  0  0  0  0  0
   17.3747   39.1822   -7.3367 C   0  0  0  0  0  0
   17.9454   38.1505   -6.6404 N   0  0  0  0  0  0
   19.2637   38.3187   -6.4421 N   0  0  0  0  0  0
   15.9238   39.2074   -7.6682 C   0  0  0  0  0  0
   15.7799   39.2440   -9.1183 N   0  0  0  0  0  0
   14.7792   40.1732   -9.6199 C   0  0  0  0  0  0
   15.1844   40.6453  -11.0330 C   0  0  2  0  0  0
   16.4069   41.6176  -11.1165 C   0  0  2  0  0  0
   17.7601   40.8622  -11.2324 C   0  0  0  0  0  0
   19.0256   41.7120  -11.5272 C   0  0  1  0  0  0
   19.6903   42.2484  -10.2428 C   0  0  0  0  0  0
   20.7310   43.3552  -10.4623 C   0  0  0  0  0  0
   21.1879   43.9690   -9.1300 C   0  0  0  0  0  0
   22.1772   45.1450   -9.2579 C   0  0  0  0  0  0
   21.6713   46.3669  -10.0523 C   0  0  0  0  0  0
   20.2716   46.8572   -9.6608 C   0  0  0  0  0  0
   20.2210   47.1387   -8.2657 O   0  0  0  0  0  0
   18.9207   47.4320   -7.7633 C   0  0  0  0  0  0
   18.0637   46.1498   -7.6913 C   0  0  0  0  0  0
   18.3354   45.3508   -6.7939 O   0  0  0  0  0  0
   17.0932   45.9164   -8.6185 N   0  0  0  0  0  0
   16.3759   44.6142   -8.6700 C   0  0  2  0  0  0
   16.4447   43.8751  -10.0257 C   0  0  0  0  0  0
   16.5086   44.4913  -11.0915 O   0  0  0  0  0  0
   16.4117   42.5312   -9.9716 N   0  0  0  0  0  0
   14.9266   44.7945   -8.1849 C   0  0  0  0  0  0
   16.6467   46.9731   -9.5414 C   0  0  0  0  0  0
   20.0434   40.8810  -12.3324 C   0  0  0  0  0  0
   14.0599   41.2487  -11.6392 O   0  0  0  0  0  0
   17.4250   37.3408   -6.2981 H   0  0  0  0  0  0
   15.3856   39.7612  -11.6398 H   0  0  0  0  0  0
   16.3113   42.1862  -12.0402 H   0  0  0  0  0  0
   18.7267   42.5570  -12.1503 H   0  0  0  0  0  0
   16.8323   43.9199   -7.9614 H   0  0  0  0  0  0
   22.4584   38.0424   -9.5764 H   0  0  0  0  0  0
   21.6347   39.5836   -9.7965 H   0  0  0  0  0  0
   20.7277   38.1569   -9.2644 H   0  0  0  0  0  0
   22.9721   39.5081   -7.6602 H   0  0  0  0  0  0
   22.0569   38.1260   -7.1292 H   0  0  0  0  0  0
   20.9882   40.9503   -7.5285 H   0  0  0  0  0  0
   21.2587   40.1559   -6.0089 H   0  0  0  0  0  0
   18.3066   40.9723   -8.1708 H   0  0  0  0  0  0
   15.4753   40.0810   -7.1950 H   0  0  0  0  0  0
   15.4121   38.3369   -7.2558 H   0  0  0  0  0  0
   15.5437   38.3116   -9.4379 H   0  0  0  0  0  0
   14.6503   41.0251   -8.9556 H   0  0  0  0  0  0
   13.8121   39.6685   -9.6427 H   0  0  0  0  0  0
   17.9387   40.2400  -10.3582 H   0  0  0  0  0  0
   17.6421   40.1496  -12.0446 H   0  0  0  0  0  0
   18.9348   42.6493   -9.5741 H   0  0  0  0  0  0
   20.1501   41.4255   -9.6989 H   0  0  0  0  0  0
   20.2997   44.1287  -11.0990 H   0  0  0  0  0  0
   21.5995   42.9654  -10.9936 H   0  0  0  0  0  0
   20.3188   44.2931   -8.5535 H   0  0  0  0  0  0
   21.6553   43.1920   -8.5226 H   0  0  0  0  0  0
   23.1039   44.7856   -9.7073 H   0  0  0  0  0  0
   22.4483   45.4716   -8.2524 H   0  0  0  0  0  0
   22.3862   47.1819   -9.9321 H   0  0  0  0  0  0
   21.6721   46.1270  -11.1165 H   0  0  0  0  0  0
   19.5455   46.1019   -9.9500 H   0  0  0  0  0  0
   20.0260   47.7615  -10.2163 H   0  0  0  0  0  0
   18.4742   48.2508   -8.3252 H   0  0  0  0  0  0
   19.0431   47.8085   -6.7463 H   0  0  0  0  0  0
   16.3595   42.1006   -9.0568 H   0  0  0  0  0  0
   14.4510   43.8241   -8.0359 H   0  0  0  0  0  0
   14.3306   45.3285   -8.9219 H   0  0  0  0  0  0
   14.8853   45.3475   -7.2447 H   0  0  0  0  0  0
   15.7355   46.7020  -10.0767 H   0  0  0  0  0  0
   17.4081   47.1904  -10.2906 H   0  0  0  0  0  0
   16.4095   47.8912   -9.0040 H   0  0  0  0  0  0
   20.9187   41.4623  -12.6200 H   0  0  0  0  0  0
   19.6012   40.4989  -13.2487 H   0  0  0  0  0  0
   20.3904   40.0175  -11.7637 H   0  0  0  0  0  0
   13.2913   40.8505  -11.2412 H   0  0  0  0  0  0
  1  2  1  0  0  0
  1 40  1  0  0  0
  1 41  1  0  0  0
  1 42  1  0  0  0
  2  3  1  0  0  0
  2 43  1  0  0  0
  2 44  1  0  0  0
  3 45  1  0  0  0
  3 46  1  0  0  0
  3  4  1  0  0  0
  4  8  2  0  0  0
  4  5  1  0  0  0
  5  6  2  0  0  0
  5 47  1  0  0  0
  6  7  1  0  0  0
  6  9  1  0  0  0
  7  8  1  0  0  0
  7 35  1  0  0  0
  9 10  1  0  0  0
  9 48  1  0  0  0
  9 49  1  0  0  0
 10 11  1  0  0  0
 10 50  1  0  0  0
 11 12  1  0  0  0
 11 51  1  0  0  0
 11 52  1  0  0  0
 12 36  1  0  0  0
 12 13  1  0  0  0
 12 34  1  0  0  0
 13 37  1  0  0  0
 13 30  1  0  0  0
 13 14  1  0  0  0
 14 15  1  0  0  0
 14 53  1  0  0  0
 14 54  1  0  0  0
 15 38  1  0  0  0
 15 16  1  0  0  0
 15 33  1  0  0  0
 16 17  1  0  0  0
 16 55  1  0  0  0
 16 56  1  0  0  0
 17 18  1  0  0  0
 17 57  1  0  0  0
 17 58  1  0  0  0
 18 19  1  0  0  0
 18 59  1  0  0  0
 18 60  1  0  0  0
 19 20  1  0  0  0
 19 61  1  0  0  0
 19 62  1  0  0  0
 20 21  1  0  0  0
 20 63  1  0  0  0
 20 64  1  0  0  0
 21 22  1  0  0  0
 21 65  1  0  0  0
 21 66  1  0  0  0
 22 23  1  0  0  0
 23 24  1  0  0  0
 23 67  1  0  0  0
 23 68  1  0  0  0
 24 25  2  0  0  0
 24 26  1  0  0  0
 26 27  1  0  0  0
 26 32  1  0  0  0
 27 39  1  0  0  0
 27 28  1  0  0  0
 27 31  1  0  0  0
 28 29  2  0  0  0
 28 30  1  0  0  0
 30 69  1  0  0  0
 31 70  1  0  0  0
 31 71  1  0  0  0
 31 72  1  0  0  0
 32 73  1  0  0  0
 32 74  1  0  0  0
 32 75  1  0  0  0
 33 76  1  0  0  0
 33 77  1  0  0  0
 33 78  1  0  0  0
 34 79  1  0  0  0
M  END
> <s_m_source_file>
BACE_5.smi

> <i_m_source_file_index>
1

> <i_lp_mmshare_version>
42013

> <i_f3d_flags>
0

> <s_epik_input>
W0NIM11bQ0gyXVtDSDJdYzFbY0hdYyhuW25IXTEpW0NIMl1bTkhdW0NIMl1bQ0BASF0oW09IXSlbQ0BASF0yW0NIMl1bQ0BIXShbQ0gzXSlbQ0gyXVtDSDJdW0NIMl1bQ0gyXVtDSDJdW0NIMl1PW0NIMl1DKD1PKU4oW0NIM10pW0NAQEhdKFtDSDNdKUMoPU8pW05IXTI=

> <s_epik_cmdline>
J2VwaWtfcHl0aG9uJywgJy1waCcsICc3LjAnLCAnLXRuJywgJzgnLCAnLW1hJywgJzIwMCcsICctaW1hZScsICc8aW5maWxlLm1hZT4nLCAnLW9tYWUnLCAnPG91dGZpbGUubWFlPic=

> <r_lp_tautomer_probability>
0.5

> <r_epik_Ionization_Penalty>
  0.9876

> <r_epik_Ionization_Penalty_Charging>
  0.0000

> <r_epik_Ionization_Penalty_Neutral>
  0.9876

> <r_epik_State_Penalty>
  1.6104

> <r_epik_Charging_Adjusted_Penalty>
1.61044

> <i_epik_Tot_Q>
0

> <i_epik_Tot_abs_Q>
0

> <s_lp_Force_Field>
OPLS_2005

> <r_lp_Energy>
32.3926

> <b_lp_Chiralities_Consistent>
1

> <s_lp_Variant>
BACE_5.smi:1-3

> <chiral flag>
1

> <version>
0

> <r_i_glide_lipo>
-0.879821

> <r_i_glide_hbond>
-0.816235

> <r_i_glide_metal>
-0

> <r_i_glide_rewards>
-0.14092

> <r_i_glide_erotb>
0.52871

> <r_i_glide_esite>
-0.0560036

> <chiral flag>
1

> <s_i_glide_gridfile>
second_dock_grid_2

> <i_i_glide_lignum>
10

> <i_i_glide_rotatable_bonds>
8

> <r_i_docking_score>
-2.01504

> <r_i_glide_ligand_efficiency>
-0.0592659

> <r_i_glide_ligand_efficiency_sa>
-0.191998

> <r_i_glide_ligand_efficiency_ln>
-0.445179

> <r_glide_XP_GScore>
-3.62544

> <r_i_glide_gscore>
-3.62544

> <r_i_glide_evdw>
-31.3198

> <r_i_glide_ecoul>
-15.318

> <r_i_glide_energy>
-46.6378

> <r_i_glide_einternal>
6.03901

> <r_i_glide_emodel>
-58.4589

> <r_glide_XP_HBond>
-0.9975

> <i_i_glide_confnum>
1

> <i_i_glide_posenum>
9

> <r_i_glide_eff_state_penalty>
1.6104

> <i_glide_XP_PoseRank>
4

$$$$
BACE_5.smi:1
                    3D
 Structure written by MMmdl.
 79 80  0  0  1  0            999 V2000
   30.7850   42.9185  -10.1365 C   0  0  0  0  0  0
   30.8929   42.3182  -11.5471 C   0  0  0  0  0  0
   29.6976   41.4265  -11.9314 C   0  0  0  0  0  0
   28.3929   42.1786  -11.9145 C   0  0  0  0  0  0
   27.3036   42.0624  -11.0016 C   0  0  0  0  0  0
   26.4021   43.0009  -11.4247 C   0  0  0  0  0  0
   26.9629   43.5922  -12.5302 N   0  0  0  0  0  0
   28.1730   43.0985  -12.8403 N   0  0  0  0  0  0
   25.0729   43.4464  -10.9031 C   0  0  0  0  0  0
   24.0725   42.3849  -10.8400 N   0  0  0  0  0  0
   24.1242   41.5894   -9.6144 C   0  0  0  0  0  0
   22.9098   40.6491   -9.4660 C   0  0  2  0  0  0
   21.5912   41.3713   -9.0708 C   0  0  2  0  0  0
   20.4118   40.4255   -8.7087 C   0  0  0  0  0  0
   20.0152   39.3150   -9.7195 C   0  0  1  0  0  0
   18.8097   38.4770   -9.2127 C   0  0  0  0  0  0
   17.4717   39.2072   -8.9309 C   0  0  0  0  0  0
   16.6923   39.6373  -10.1855 C   0  0  0  0  0  0
   15.2755   40.1747   -9.9163 C   0  0  0  0  0  0
   15.2089   41.4850   -9.1089 C   0  0  0  0  0  0
   15.9913   42.6671   -9.7073 C   0  0  0  0  0  0
   15.5371   42.9710  -11.0288 O   0  0  0  0  0  0
   16.0968   44.1523  -11.6084 C   0  0  0  0  0  0
   17.5998   43.9611  -11.9081 C   0  0  0  0  0  0
   17.8927   43.2061  -12.8403 O   0  0  0  0  0  0
   18.5322   44.5740  -11.1304 N   0  0  0  0  0  0
   19.9578   44.1592  -11.1808 C   0  0  2  0  0  0
   20.3619   43.3698   -9.9204 C   0  0  0  0  0  0
   19.9417   43.6940   -8.8093 O   0  0  0  0  0  0
   21.1773   42.3211  -10.1056 N   0  0  0  0  0  0
   20.8892   45.3722  -11.3737 C   0  0  0  0  0  0
   18.1429   45.6007  -10.1483 C   0  0  0  0  0  0
   19.8498   39.7851  -11.1773 C   0  0  0  0  0  0
   23.2596   39.7496   -8.4398 O   0  0  0  0  0  0
   26.5418   44.3334  -13.0713 H   0  0  0  0  0  0
   22.7772   40.0707  -10.3817 H   0  0  0  0  0  0
   21.8108   41.9544   -8.1729 H   0  0  0  0  0  0
   20.8512   38.6149   -9.7458 H   0  0  0  0  0  0
   20.1313   43.5071  -12.0379 H   0  0  0  0  0  0
   31.6816   43.4829   -9.8823 H   0  0  0  0  0  0
   30.6490   42.1516   -9.3775 H   0  0  0  0  0  0
   29.9418   43.6058  -10.0636 H   0  0  0  0  0  0
   31.8140   41.7436  -11.6378 H   0  0  0  0  0  0
   30.9907   43.1285  -12.2705 H   0  0  0  0  0  0
   29.6588   40.5748  -11.2541 H   0  0  0  0  0  0
   29.8640   41.0077  -12.9250 H   0  0  0  0  0  0
   27.2130   41.3983  -10.1537 H   0  0  0  0  0  0
   24.6950   44.2343  -11.5558 H   0  0  0  0  0  0
   25.1959   43.9146   -9.9268 H   0  0  0  0  0  0
   24.1877   41.7647  -11.6449 H   0  0  0  0  0  0
   24.1773   42.2411   -8.7406 H   0  0  0  0  0  0
   25.0394   40.9967   -9.6136 H   0  0  0  0  0  0
   20.6439   39.9433   -7.7605 H   0  0  0  0  0  0
   19.5451   41.0447   -8.4915 H   0  0  0  0  0  0
   18.6255   37.6527   -9.9024 H   0  0  0  0  0  0
   19.1173   37.9958   -8.2810 H   0  0  0  0  0  0
   17.6220   40.0546   -8.2658 H   0  0  0  0  0  0
   16.8394   38.5223   -8.3645 H   0  0  0  0  0  0
   17.2386   40.3880  -10.7481 H   0  0  0  0  0  0
   16.6060   38.7741  -10.8401 H   0  0  0  0  0  0
   14.6898   39.4127   -9.3992 H   0  0  0  0  0  0
   14.7732   40.3320  -10.8722 H   0  0  0  0  0  0
   14.1622   41.7737   -8.9984 H   0  0  0  0  0  0
   15.5637   41.3030   -8.0924 H   0  0  0  0  0  0
   17.0582   42.4433   -9.6965 H   0  0  0  0  0  0
   15.8476   43.5352   -9.0639 H   0  0  0  0  0  0
   15.8625   45.0189  -10.9926 H   0  0  0  0  0  0
   15.5923   44.3302  -12.5578 H   0  0  0  0  0  0
   21.5520   42.1628  -11.0303 H   0  0  0  0  0  0
   21.8981   45.0439  -11.6257 H   0  0  0  0  0  0
   20.9754   45.9886  -10.4811 H   0  0  0  0  0  0
   20.5445   46.0130  -12.1840 H   0  0  0  0  0  0
   18.9873   46.0540   -9.6357 H   0  0  0  0  0  0
   17.5127   45.1726   -9.3685 H   0  0  0  0  0  0
   17.5986   46.4138  -10.6320 H   0  0  0  0  0  0
   19.4082   39.0046  -11.7943 H   0  0  0  0  0  0
   20.8133   40.0314  -11.6213 H   0  0  0  0  0  0
   19.2304   40.6756  -11.2624 H   0  0  0  0  0  0
   23.9032   39.1433   -8.7966 H   0  0  0  0  0  0
  1  2  1  0  0  0
  1 40  1  0  0  0
  1 41  1  0  0  0
  1 42  1  0  0  0
  2  3  1  0  0  0
  2 43  1  0  0  0
  2 44  1  0  0  0
  3 45  1  0  0  0
  3 46  1  0  0  0
  3  4  1  0  0  0
  4  8  2  0  0  0
  4  5  1  0  0  0
  5  6  2  0  0  0
  5 47  1  0  0  0
  6  7  1  0  0  0
  6  9  1  0  0  0
  7  8  1  0  0  0
  7 35  1  0  0  0
  9 10  1  0  0  0
  9 48  1  0  0  0
  9 49  1  0  0  0
 10 11  1  0  0  0
 10 50  1  0  0  0
 11 12  1  0  0  0
 11 51  1  0  0  0
 11 52  1  0  0  0
 12 36  1  0  0  0
 12 13  1  0  0  0
 12 34  1  0  0  0
 13 37  1  0  0  0
 13 30  1  0  0  0
 13 14  1  0  0  0
 14 15  1  0  0  0
 14 53  1  0  0  0
 14 54  1  0  0  0
 15 38  1  0  0  0
 15 16  1  0  0  0
 15 33  1  0  0  0
 16 17  1  0  0  0
 16 55  1  0  0  0
 16 56  1  0  0  0
 17 18  1  0  0  0
 17 57  1  0  0  0
 17 58  1  0  0  0
 18 19  1  0  0  0
 18 59  1  0  0  0
 18 60  1  0  0  0
 19 20  1  0  0  0
 19 61  1  0  0  0
 19 62  1  0  0  0
 20 21  1  0  0  0
 20 63  1  0  0  0
 20 64  1  0  0  0
 21 22  1  0  0  0
 21 65  1  0  0  0
 21 66  1  0  0  0
 22 23  1  0  0  0
 23 24  1  0  0  0
 23 67  1  0  0  0
 23 68  1  0  0  0
 24 25  2  0  0  0
 24 26  1  0  0  0
 26 27  1  0  0  0
 26 32  1  0  0  0
 27 39  1  0  0  0
 27 28  1  0  0  0
 27 31  1  0  0  0
 28 29  2  0  0  0
 28 30  1  0  0  0
 30 69  1  0  0  0
 31 70  1  0  0  0
 31 71  1  0  0  0
 31 72  1  0  0  0
 32 73  1  0  0  0
 32 74  1  0  0  0
 32 75  1  0  0  0
 33 76  1  0  0  0
 33 77  1  0  0  0
 33 78  1  0  0  0
 34 79  1  0  0  0
M  END
> <s_m_source_file>
BACE_5.smi

> <i_m_source_file_index>
1

> <i_lp_mmshare_version>
42013

> <i_f3d_flags>
0

> <s_epik_input>
W0NIM11bQ0gyXVtDSDJdYzFbY0hdYyhuW25IXTEpW0NIMl1bTkhdW0NIMl1bQ0BASF0oW09IXSlbQ0BASF0yW0NIMl1bQ0BIXShbQ0gzXSlbQ0gyXVtDSDJdW0NIMl1bQ0gyXVtDSDJdW0NIMl1PW0NIMl1DKD1PKU4oW0NIM10pW0NAQEhdKFtDSDNdKUMoPU8pW05IXTI=

> <s_epik_cmdline>
J2VwaWtfcHl0aG9uJywgJy1waCcsICc3LjAnLCAnLXRuJywgJzgnLCAnLW1hJywgJzIwMCcsICctaW1hZScsICc8aW5maWxlLm1hZT4nLCAnLW9tYWUnLCAnPG91dGZpbGUubWFlPic=

> <r_lp_tautomer_probability>
0.5

> <r_epik_Ionization_Penalty>
  0.9876

> <r_epik_Ionization_Penalty_Charging>
  0.0000

> <r_epik_Ionization_Penalty_Neutral>
  0.9876

> <r_epik_State_Penalty>
  1.6104

> <r_epik_Charging_Adjusted_Penalty>
1.61044

> <i_epik_Tot_Q>
0

> <i_epik_Tot_abs_Q>
0

> <s_lp_Force_Field>
OPLS_2005

> <r_lp_Energy>
32.3926

> <b_lp_Chiralities_Consistent>
1

> <s_lp_Variant>
BACE_5.smi:1-3

> <chiral flag>
1

> <version>
0

> <r_i_glide_lipo>
-0.879821

> <r_i_glide_hbond>
-0.816235

> <r_i_glide_metal>
-0

> <r_i_glide_rewards>
-0.14092

> <r_i_glide_erotb>
0.52871

> <r_i_glide_esite>
-0.0560036

> <chiral flag>
1

> <s_i_glide_gridfile>
second_dock_grid_2

> <i_i_glide_lignum>
10

> <i_i_glide_rotatable_bonds>
8

> <r_i_docking_score>
-1.5958

> <r_i_glide_ligand_efficiency>
-0.0469354

> <r_i_glide_ligand_efficiency_sa>
-0.152052

> <r_i_glide_ligand_efficiency_ln>
-0.352558

> <r_glide_XP_GScore>
-3.2062

> <r_i_glide_gscore>
-3.2062

> <r_i_glide_evdw>
-34.4716

> <r_i_glide_ecoul>
-10.8473

> <r_i_glide_energy>
-45.3189

> <r_i_glide_einternal>
4.04448

> <r_i_glide_emodel>
-60.1574

> <r_glide_XP_HBond>
-0.9975

> <i_i_glide_confnum>
1

> <i_i_glide_posenum>
2

> <r_i_glide_eff_state_penalty>
1.6104

> <i_glide_XP_PoseRank>
5

$$$$
BACE_5.smi:1
                    3D
 Structure written by MMmdl.
 79 80  0  0  1  0            999 V2000
   30.8608   43.0655   -9.1147 C   0  0  0  0  0  0
   29.9599   44.3041   -9.1863 C   0  0  0  0  0  0
   29.1757   44.4214  -10.5059 C   0  0  0  0  0  0
   28.0442   43.4327  -10.6332 C   0  0  0  0  0  0
   26.6465   43.6935  -10.5232 C   0  0  0  0  0  0
   26.0534   42.4875  -10.7775 C   0  0  0  0  0  0
   27.0781   41.5951  -10.9889 N   0  0  0  0  0  0
   28.2966   42.1614  -10.9139 N   0  0  0  0  0  0
   24.6129   42.1008  -10.8739 C   0  0  0  0  0  0
   23.8198   42.5298   -9.7237 N   0  0  0  0  0  0
   23.7651   41.5599   -8.6344 C   0  0  0  0  0  0
   22.8441   40.3499   -8.9357 C   0  0  2  0  0  0
   21.3252   40.6209   -8.7575 C   0  0  2  0  0  0
   20.4753   39.3144   -8.7637 C   0  0  0  0  0  0
   18.9764   39.4834   -8.4033 C   0  0  1  0  0  0
   18.0971   39.6292   -9.6647 C   0  0  0  0  0  0
   16.6622   40.0976   -9.3742 C   0  0  0  0  0  0
   15.9013   40.4062  -10.6711 C   0  0  0  0  0  0
   14.4785   40.9658  -10.4884 C   0  0  0  0  0  0
   14.3690   42.2731   -9.6787 C   0  0  0  0  0  0
   15.3945   43.3597  -10.0421 C   0  0  0  0  0  0
   15.3255   43.7094  -11.4219 O   0  0  0  0  0  0
   16.3013   44.6653  -11.8438 C   0  0  0  0  0  0
   17.6945   44.0134  -11.9467 C   0  0  0  0  0  0
   17.9029   43.2978  -12.9287 O   0  0  0  0  0  0
   18.6174   44.2156  -10.9692 N   0  0  0  0  0  0
   19.9065   43.4778  -10.9507 C   0  0  2  0  0  0
   20.1617   42.6525   -9.6682 C   0  0  0  0  0  0
   19.7670   43.0340   -8.5700 O   0  0  0  0  0  0
   20.8745   41.5214   -9.8271 N   0  0  0  0  0  0
   21.0713   44.4459  -11.2364 C   0  0  0  0  0  0
   18.4160   45.2447   -9.9412 C   0  0  0  0  0  0
   18.4868   38.3148   -7.5258 C   0  0  0  0  0  0
   23.2586   39.3501   -8.0387 O   0  0  0  0  0  0
   26.9750   40.6055  -11.1835 H   0  0  0  0  0  0
   23.0188   39.9513   -9.9358 H   0  0  0  0  0  0
   21.1912   41.0964   -7.7809 H   0  0  0  0  0  0
   18.8784   40.3890   -7.8027 H   0  0  0  0  0  0
   19.9205   42.7522  -11.7640 H   0  0  0  0  0  0
   31.4266   43.0508   -8.1835 H   0  0  0  0  0  0
   31.5699   43.0420   -9.9443 H   0  0  0  0  0  0
   30.2728   42.1506   -9.1542 H   0  0  0  0  0  0
   30.5920   45.1846   -9.0778 H   0  0  0  0  0  0
   29.2700   44.3155   -8.3432 H   0  0  0  0  0  0
   29.8517   44.3246  -11.3563 H   0  0  0  0  0  0
   28.7671   45.4311  -10.5736 H   0  0  0  0  0  0
   26.1481   44.6255  -10.3124 H   0  0  0  0  0  0
   24.5348   41.0244  -11.0144 H   0  0  0  0  0  0
   24.2028   42.5524  -11.7778 H   0  0  0  0  0  0
   22.8803   42.7680  -10.0197 H   0  0  0  0  0  0
   23.4264   42.0484   -7.7206 H   0  0  0  0  0  0
   24.7793   41.2160   -8.4314 H   0  0  0  0  0  0
   20.5835   38.8010   -9.7218 H   0  0  0  0  0  0
   20.9063   38.6321   -8.0326 H   0  0  0  0  0  0
   18.5557   40.3416  -10.3460 H   0  0  0  0  0  0
   18.0731   38.6831  -10.2062 H   0  0  0  0  0  0
   16.6975   40.9804   -8.7381 H   0  0  0  0  0  0
   16.1171   39.3383   -8.8114 H   0  0  0  0  0  0
   16.4845   41.0895  -11.2885 H   0  0  0  0  0  0
   15.8302   39.4779  -11.2398 H   0  0  0  0  0  0
   13.8491   40.2087  -10.0112 H   0  0  0  0  0  0
   14.0444   41.1288  -11.4757 H   0  0  0  0  0  0
   13.3609   42.6705   -9.7901 H   0  0  0  0  0  0
   14.4770   42.0402   -8.6166 H   0  0  0  0  0  0
   16.3889   43.0132   -9.7722 H   0  0  0  0  0  0
   15.2057   44.2457   -9.4365 H   0  0  0  0  0  0
   16.2688   45.5527  -11.2181 H   0  0  0  0  0  0
   16.0243   45.0031  -12.8422 H   0  0  0  0  0  0
   21.1382   41.2688  -10.7680 H   0  0  0  0  0  0
   21.9687   43.9027  -11.5324 H   0  0  0  0  0  0
   21.3284   45.0500  -10.3646 H   0  0  0  0  0  0
   20.8218   45.1372  -12.0406 H   0  0  0  0  0  0
   19.3095   45.4323   -9.3462 H   0  0  0  0  0  0
   17.6307   44.9577   -9.2432 H   0  0  0  0  0  0
   18.1475   46.1994  -10.3907 H   0  0  0  0  0  0
   17.4619   38.4658   -7.1903 H   0  0  0  0  0  0
   19.0935   38.2098   -6.6271 H   0  0  0  0  0  0
   18.5223   37.3690   -8.0653 H   0  0  0  0  0  0
   24.0128   38.9219   -8.4293 H   0  0  0  0  0  0
  1  2  1  0  0  0
  1 40  1  0  0  0
  1 41  1  0  0  0
  1 42  1  0  0  0
  2  3  1  0  0  0
  2 43  1  0  0  0
  2 44  1  0  0  0
  3 45  1  0  0  0
  3 46  1  0  0  0
  3  4  1  0  0  0
  4  8  2  0  0  0
  4  5  1  0  0  0
  5  6  2  0  0  0
  5 47  1  0  0  0
  6  7  1  0  0  0
  6  9  1  0  0  0
  7  8  1  0  0  0
  7 35  1  0  0  0
  9 10  1  0  0  0
  9 48  1  0  0  0
  9 49  1  0  0  0
 10 11  1  0  0  0
 10 50  1  0  0  0
 11 12  1  0  0  0
 11 51  1  0  0  0
 11 52  1  0  0  0
 12 36  1  0  0  0
 12 13  1  0  0  0
 12 34  1  0  0  0
 13 37  1  0  0  0
 13 30  1  0  0  0
 13 14  1  0  0  0
 14 15  1  0  0  0
 14 53  1  0  0  0
 14 54  1  0  0  0
 15 38  1  0  0  0
 15 16  1  0  0  0
 15 33  1  0  0  0
 16 17  1  0  0  0
 16 55  1  0  0  0
 16 56  1  0  0  0
 17 18  1  0  0  0
 17 57  1  0  0  0
 17 58  1  0  0  0
 18 19  1  0  0  0
 18 59  1  0  0  0
 18 60  1  0  0  0
 19 20  1  0  0  0
 19 61  1  0  0  0
 19 62  1  0  0  0
 20 21  1  0  0  0
 20 63  1  0  0  0
 20 64  1  0  0  0
 21 22  1  0  0  0
 21 65  1  0  0  0
 21 66  1  0  0  0
 22 23  1  0  0  0
 23 24  1  0  0  0
 23 67  1  0  0  0
 23 68  1  0  0  0
 24 25  2  0  0  0
 24 26  1  0  0  0
 26 27  1  0  0  0
 26 32  1  0  0  0
 27 39  1  0  0  0
 27 28  1  0  0  0
 27 31  1  0  0  0
 28 29  2  0  0  0
 28 30  1  0  0  0
 30 69  1  0  0  0
 31 70  1  0  0  0
 31 71  1  0  0  0
 31 72  1  0  0  0
 32 73  1  0  0  0
 32 74  1  0  0  0
 32 75  1  0  0  0
 33 76  1  0  0  0
 33 77  1  0  0  0
 33 78  1  0  0  0
 34 79  1  0  0  0
M  END
> <s_m_source_file>
BACE_5.smi

> <i_m_source_file_index>
1

> <i_lp_mmshare_version>
42013

> <i_f3d_flags>
0

> <s_epik_input>
W0NIM11bQ0gyXVtDSDJdYzFbY0hdYyhuW25IXTEpW0NIMl1bTkhdW0NIMl1bQ0BASF0oW09IXSlbQ0BASF0yW0NIMl1bQ0BIXShbQ0gzXSlbQ0gyXVtDSDJdW0NIMl1bQ0gyXVtDSDJdW0NIMl1PW0NIMl1DKD1PKU4oW0NIM10pW0NAQEhdKFtDSDNdKUMoPU8pW05IXTI=

> <s_epik_cmdline>
J2VwaWtfcHl0aG9uJywgJy1waCcsICc3LjAnLCAnLXRuJywgJzgnLCAnLW1hJywgJzIwMCcsICctaW1hZScsICc8aW5maWxlLm1hZT4nLCAnLW9tYWUnLCAnPG91dGZpbGUubWFlPic=

> <r_lp_tautomer_probability>
0.5

> <r_epik_Ionization_Penalty>
  0.9876

> <r_epik_Ionization_Penalty_Charging>
  0.0000

> <r_epik_Ionization_Penalty_Neutral>
  0.9876

> <r_epik_State_Penalty>
  1.6104

> <r_epik_Charging_Adjusted_Penalty>
1.61044

> <i_epik_Tot_Q>
0

> <i_epik_Tot_abs_Q>
0

> <s_lp_Force_Field>
OPLS_2005

> <r_lp_Energy>
32.3926

> <b_lp_Chiralities_Consistent>
1

> <s_lp_Variant>
BACE_5.smi:1-3

> <chiral flag>
1

> <version>
0

> <r_i_glide_lipo>
-0.879821

> <r_i_glide_hbond>
-0.816235

> <r_i_glide_metal>
-0

> <r_i_glide_rewards>
-0.14092

> <r_i_glide_erotb>
0.52871

> <r_i_glide_esite>
-0.0560036

> <chiral flag>
1

> <s_i_glide_gridfile>
second_dock_grid_2

> <i_i_glide_lignum>
10

> <i_i_glide_rotatable_bonds>
8

> <r_i_docking_score>
-1.52342

> <r_i_glide_ligand_efficiency>
-0.0448065

> <r_i_glide_ligand_efficiency_sa>
-0.145156

> <r_i_glide_ligand_efficiency_ln>
-0.336566

> <r_glide_XP_GScore>
-3.13382

> <r_i_glide_gscore>
-3.13382

> <r_i_glide_evdw>
-33.5807

> <r_i_glide_ecoul>
-10.9094

> <r_i_glide_energy>
-44.4901

> <r_i_glide_einternal>
3.77729

> <r_i_glide_emodel>
-58.5281

> <r_glide_XP_HBond>
-0.9975

> <i_i_glide_confnum>
1

> <i_i_glide_posenum>
8

> <r_i_glide_eff_state_penalty>
1.6104

> <i_glide_XP_PoseRank>
6

$$$$
BACE_5.smi:1
                    3D
 Structure written by MMmdl.
 79 80  0  0  1  0            999 V2000
   30.8600   41.7512  -11.3359 C   0  0  0  0  0  0
   29.5075   42.4522  -11.1576 C   0  0  0  0  0  0
   28.4019   41.8496  -12.0413 C   0  0  0  0  0  0
   27.0463   42.4362  -11.7494 C   0  0  0  0  0  0
   26.0582   41.9538  -10.8399 C   0  0  0  0  0  0
   25.0238   42.8405  -10.9582 C   0  0  0  0  0  0
   25.4233   43.7702  -11.8911 N   0  0  0  0  0  0
   26.6547   43.5343  -12.3816 N   0  0  0  0  0  0
   23.6933   42.9079  -10.2824 C   0  0  0  0  0  0
   22.8672   41.7401  -10.5746 N   0  0  0  0  0  0
   23.0251   40.6579   -9.6044 C   0  0  0  0  0  0
   21.9216   39.5872   -9.7489 C   0  0  2  0  0  0
   20.5058   40.0952   -9.4917 C   0  0  2  0  0  0
   19.5197   38.9248   -9.7063 C   0  0  0  0  0  0
   18.0597   39.1893   -9.2705 C   0  0  1  0  0  0
   17.1663   39.7728  -10.3810 C   0  0  0  0  0  0
   15.7899   40.2289   -9.8652 C   0  0  0  0  0  0
   14.9649   40.9333  -10.9598 C   0  0  0  0  0  0
   13.7071   41.6737  -10.4538 C   0  0  0  0  0  0
   13.9484   42.7943   -9.4112 C   0  0  0  0  0  0
   15.1237   43.7523   -9.7046 C   0  0  0  0  0  0
   15.0017   44.5452  -11.0247 O   0  0  0  0  0  0
   16.3039   45.2832  -11.4251 C   0  0  0  0  0  0
   17.4475   44.3453  -11.8335 C   0  0  0  0  0  0
   17.3134   43.6249  -12.8089 O   0  0  0  0  0  0
   18.5485   44.3741  -11.0688 N   0  0  0  0  0  0
   19.6770   43.4341  -11.2499 C   0  0  2  0  0  0
   19.7563   42.4132  -10.0918 C   0  0  0  0  0  0
   19.4192   42.7047   -8.9561 O   0  0  0  0  0  0
   20.2651   41.2136  -10.4078 N   0  0  0  0  0  0
   20.9788   44.2302  -11.2449 C   0  0  0  0  0  0
   18.5468   45.2665   -9.9272 C   0  0  0  0  0  0
   17.4342   37.8783   -8.8029 C   0  0  0  0  0  0
   22.2395   38.5466   -8.8438 O   0  0  0  0  0  0
   24.8731   44.5595  -12.1982 H   0  0  0  0  0  0
   21.9940   39.1671  -10.7530 H   0  0  0  0  0  0
   20.4964   40.4037   -8.4463 H   0  0  0  0  0  0
   18.0545   39.8413   -8.3970 H   0  0  0  0  0  0
   19.6504   42.9145  -12.2077 H   0  0  0  0  0  0
   31.6172   42.2031  -10.6948 H   0  0  0  0  0  0
   31.2116   41.8246  -12.3654 H   0  0  0  0  0  0
   30.7957   40.6940  -11.0768 H   0  0  0  0  0  0
   29.6263   43.5126  -11.3833 H   0  0  0  0  0  0
   29.2125   42.3909  -10.1093 H   0  0  0  0  0  0
   28.3697   40.7692  -11.8952 H   0  0  0  0  0  0
   28.6512   42.0007  -13.0926 H   0  0  0  0  0  0
   26.1037   41.0869  -10.1972 H   0  0  0  0  0  0
   23.1744   43.8157  -10.5932 H   0  0  0  0  0  0
   23.8443   42.9954   -9.2060 H   0  0  0  0  0  0
   23.0955   41.3903  -11.4997 H   0  0  0  0  0  0
   23.0475   41.0564   -8.5902 H   0  0  0  0  0  0
   23.9948   40.1835   -9.7632 H   0  0  0  0  0  0
   19.5608   38.5717  -10.7367 H   0  0  0  0  0  0
   19.8930   38.0902   -9.1129 H   0  0  0  0  0  0
   17.6643   40.6257  -10.8422 H   0  0  0  0  0  0
   17.0403   39.0383  -11.1764 H   0  0  0  0  0  0
   15.9455   40.9070   -9.0261 H   0  0  0  0  0  0
   15.2330   39.3808   -9.4670 H   0  0  0  0  0  0
   15.5977   41.6427  -11.4932 H   0  0  0  0  0  0
   14.6695   40.1988  -11.7091 H   0  0  0  0  0  0
   13.0042   40.9507  -10.0401 H   0  0  0  0  0  0
   13.1968   42.1031  -11.3159 H   0  0  0  0  0  0
   13.0315   43.3712   -9.2907 H   0  0  0  0  0  0
   14.1221   42.3331   -8.4390 H   0  0  0  0  0  0
   16.0506   43.1788   -9.6960 H   0  0  0  0  0  0
   15.2227   44.4563   -8.8784 H   0  0  0  0  0  0
   16.6174   45.9492  -10.6212 H   0  0  0  0  0  0
   16.1103   45.9348  -12.2772 H   0  0  0  0  0  0
   20.5327   41.0732  -11.3715 H   0  0  0  0  0  0
   21.8403   43.5809  -11.4062 H   0  0  0  0  0  0
   21.1353   44.7548  -10.3017 H   0  0  0  0  0  0
   20.9879   44.9767  -12.0399 H   0  0  0  0  0  0
   19.5207   45.3632   -9.4513 H   0  0  0  0  0  0
   17.8465   44.9268   -9.1631 H   0  0  0  0  0  0
   18.2801   46.2822  -10.2223 H   0  0  0  0  0  0
   16.3980   38.0155   -8.4945 H   0  0  0  0  0  0
   17.9609   37.4606   -7.9455 H   0  0  0  0  0  0
   17.4429   37.1261   -9.5925 H   0  0  0  0  0  0
   23.0987   38.2160   -9.0569 H   0  0  0  0  0  0
  1  2  1  0  0  0
  1 40  1  0  0  0
  1 41  1  0  0  0
  1 42  1  0  0  0
  2  3  1  0  0  0
  2 43  1  0  0  0
  2 44  1  0  0  0
  3 45  1  0  0  0
  3 46  1  0  0  0
  3  4  1  0  0  0
  4  8  2  0  0  0
  4  5  1  0  0  0
  5  6  2  0  0  0
  5 47  1  0  0  0
  6  7  1  0  0  0
  6  9  1  0  0  0
  7  8  1  0  0  0
  7 35  1  0  0  0
  9 10  1  0  0  0
  9 48  1  0  0  0
  9 49  1  0  0  0
 10 11  1  0  0  0
 10 50  1  0  0  0
 11 12  1  0  0  0
 11 51  1  0  0  0
 11 52  1  0  0  0
 12 36  1  0  0  0
 12 13  1  0  0  0
 12 34  1  0  0  0
 13 37  1  0  0  0
 13 30  1  0  0  0
 13 14  1  0  0  0
 14 15  1  0  0  0
 14 53  1  0  0  0
 14 54  1  0  0  0
 15 38  1  0  0  0
 15 16  1  0  0  0
 15 33  1  0  0  0
 16 17  1  0  0  0
 16 55  1  0  0  0
 16 56  1  0  0  0
 17 18  1  0  0  0
 17 57  1  0  0  0
 17 58  1  0  0  0
 18 19  1  0  0  0
 18 59  1  0  0  0
 18 60  1  0  0  0
 19 20  1  0  0  0
 19 61  1  0  0  0
 19 62  1  0  0  0
 20 21  1  0  0  0
 20 63  1  0  0  0
 20 64  1  0  0  0
 21 22  1  0  0  0
 21 65  1  0  0  0
 21 66  1  0  0  0
 22 23  1  0  0  0
 23 24  1  0  0  0
 23 67  1  0  0  0
 23 68  1  0  0  0
 24 25  2  0  0  0
 24 26  1  0  0  0
 26 27  1  0  0  0
 26 32  1  0  0  0
 27 39  1  0  0  0
 27 28  1  0  0  0
 27 31  1  0  0  0
 28 29  2  0  0  0
 28 30  1  0  0  0
 30 69  1  0  0  0
 31 70  1  0  0  0
 31 71  1  0  0  0
 31 72  1  0  0  0
 32 73  1  0  0  0
 32 74  1  0  0  0
 32 75  1  0  0  0
 33 76  1  0  0  0
 33 77  1  0  0  0
 33 78  1  0  0  0
 34 79  1  0  0  0
M  END
> <s_m_source_file>
BACE_5.smi

> <i_m_source_file_index>
1

> <i_lp_mmshare_version>
42013

> <i_f3d_flags>
0

> <s_epik_input>
W0NIM11bQ0gyXVtDSDJdYzFbY0hdYyhuW25IXTEpW0NIMl1bTkhdW0NIMl1bQ0BASF0oW09IXSlbQ0BASF0yW0NIMl1bQ0BIXShbQ0gzXSlbQ0gyXVtDSDJdW0NIMl1bQ0gyXVtDSDJdW0NIMl1PW0NIMl1DKD1PKU4oW0NIM10pW0NAQEhdKFtDSDNdKUMoPU8pW05IXTI=

> <s_epik_cmdline>
J2VwaWtfcHl0aG9uJywgJy1waCcsICc3LjAnLCAnLXRuJywgJzgnLCAnLW1hJywgJzIwMCcsICctaW1hZScsICc8aW5maWxlLm1hZT4nLCAnLW9tYWUnLCAnPG91dGZpbGUubWFlPic=

> <r_lp_tautomer_probability>
0.5

> <r_epik_Ionization_Penalty>
  0.9876

> <r_epik_Ionization_Penalty_Charging>
  0.0000

> <r_epik_Ionization_Penalty_Neutral>
  0.9876

> <r_epik_State_Penalty>
  1.6104

> <r_epik_Charging_Adjusted_Penalty>
1.61044

> <i_epik_Tot_Q>
0

> <i_epik_Tot_abs_Q>
0

> <s_lp_Force_Field>
OPLS_2005

> <r_lp_Energy>
32.3926

> <b_lp_Chiralities_Consistent>
1

> <s_lp_Variant>
BACE_5.smi:1-3

> <chiral flag>
1

> <version>
0

> <r_i_glide_lipo>
-0.879821

> <r_i_glide_hbond>
-0.816235

> <r_i_glide_metal>
-0

> <r_i_glide_rewards>
-0.14092

> <r_i_glide_erotb>
0.52871

> <r_i_glide_esite>
-0.0560036

> <chiral flag>
1

> <s_i_glide_gridfile>
second_dock_grid_2

> <i_i_glide_lignum>
10

> <i_i_glide_rotatable_bonds>
8

> <r_i_docking_score>
-1.22944

> <r_i_glide_ligand_efficiency>
-0.03616

> <r_i_glide_ligand_efficiency_sa>
-0.117144

> <r_i_glide_ligand_efficiency_ln>
-0.271618

> <r_glide_XP_GScore>
-2.83984

> <r_i_glide_gscore>
-2.83984

> <r_i_glide_evdw>
-35.0264

> <r_i_glide_ecoul>
-9.17131

> <r_i_glide_energy>
-44.1977

> <r_i_glide_einternal>
3.24732

> <r_i_glide_emodel>
-63.9211

> <r_glide_XP_HBond>
-0.9975

> <i_i_glide_confnum>
1

> <i_i_glide_posenum>
3

> <r_i_glide_eff_state_penalty>
1.6104

> <i_glide_XP_PoseRank>
7

$$$$
BACE_5.smi:1
                    3D
 Structure written by MMmdl.
 79 80  0  0  1  0            999 V2000
   31.2502   44.1231   -9.2740 C   0  0  0  0  0  0
   29.8720   43.4532   -9.3149 C   0  0  0  0  0  0
   29.0813   43.7853  -10.5894 C   0  0  0  0  0  0
   27.7663   43.0590  -10.6508 C   0  0  0  0  0  0
   26.4466   43.5944  -10.5842 C   0  0  0  0  0  0
   25.6305   42.5105  -10.7467 C   0  0  0  0  0  0
   26.4606   41.4192  -10.8452 N   0  0  0  0  0  0
   27.7638   41.7512  -10.8311 N   0  0  0  0  0  0
   24.1437   42.3996  -10.8376 C   0  0  0  0  0  0
   23.4671   42.6840   -9.5722 N   0  0  0  0  0  0
   23.5220   41.6142   -8.5738 C   0  0  0  0  0  0
   22.6541   40.3741   -8.9119 C   0  0  2  0  0  0
   21.1191   40.5742   -8.7339 C   0  0  2  0  0  0
   20.3146   39.2427   -8.7832 C   0  0  0  0  0  0
   18.8116   39.3581   -8.4121 C   0  0  1  0  0  0
   17.9075   39.5317   -9.6542 C   0  0  0  0  0  0
   16.4867   40.0194   -9.3178 C   0  0  0  0  0  0
   15.7095   40.4575  -10.5696 C   0  0  0  0  0  0
   14.2971   41.0094  -10.2910 C   0  0  0  0  0  0
   14.2276   42.2231   -9.3429 C   0  0  0  0  0  0
   15.1903   43.3658   -9.6833 C   0  0  0  0  0  0
   15.0006   43.7982  -11.0280 O   0  0  0  0  0  0
   15.9564   44.7513  -11.4877 C   0  0  0  0  0  0
   17.3272   44.0779  -11.7110 C   0  0  0  0  0  0
   17.4462   43.3831  -12.7232 O   0  0  0  0  0  0
   18.3127   44.2153  -10.7820 N   0  0  0  0  0  0
   19.5583   43.4111  -10.8481 C   0  0  2  0  0  0
   19.8690   42.5760   -9.5853 C   0  0  0  0  0  0
   19.4570   42.9112   -8.4769 O   0  0  0  0  0  0
   20.6338   41.4880   -9.7736 N   0  0  0  0  0  0
   20.7413   44.3089  -11.2523 C   0  0  0  0  0  0
   18.2339   45.2487   -9.7358 C   0  0  0  0  0  0
   18.3578   38.1502   -7.5695 C   0  0  0  0  0  0
   23.1227   39.3683   -8.0401 O   0  0  0  0  0  0
   26.1634   40.4594  -10.9639 H   0  0  0  0  0  0
   22.8582   40.0128   -9.9197 H   0  0  0  0  0  0
   20.9649   41.0146   -7.7466 H   0  0  0  0  0  0
   18.6975   40.2382   -7.7764 H   0  0  0  0  0  0
   19.4623   42.6702  -11.6434 H   0  0  0  0  0  0
   31.8090   43.8120   -8.3891 H   0  0  0  0  0  0
   31.1593   45.2101   -9.2459 H   0  0  0  0  0  0
   31.8428   43.8552  -10.1505 H   0  0  0  0  0  0
   29.2956   43.7551   -8.4406 H   0  0  0  0  0  0
   30.0080   42.3733   -9.2420 H   0  0  0  0  0  0
   29.6798   43.5307  -11.4657 H   0  0  0  0  0  0
   28.9138   44.8621  -10.6434 H   0  0  0  0  0  0
   26.1437   44.6234  -10.4640 H   0  0  0  0  0  0
   23.8539   41.4251  -11.2270 H   0  0  0  0  0  0
   23.8098   43.1186  -11.5850 H   0  0  0  0  0  0
   22.4998   42.9375   -9.7429 H   0  0  0  0  0  0
   23.2096   42.0078   -7.6060 H   0  0  0  0  0  0
   24.5604   41.3089   -8.4411 H   0  0  0  0  0  0
   20.4295   38.7634   -9.7564 H   0  0  0  0  0  0
   20.7713   38.5518   -8.0748 H   0  0  0  0  0  0
   18.3599   40.2495  -10.3353 H   0  0  0  0  0  0
   17.8541   38.5965  -10.2129 H   0  0  0  0  0  0
   16.5624   40.8545   -8.6212 H   0  0  0  0  0  0
   15.9292   39.2389   -8.7981 H   0  0  0  0  0  0
   16.2883   41.2022  -11.1161 H   0  0  0  0  0  0
   15.6187   39.6040  -11.2399 H   0  0  0  0  0  0
   13.6638   40.2161   -9.8883 H   0  0  0  0  0  0
   13.8425   41.2870  -11.2405 H   0  0  0  0  0  0
   13.2049   42.6021   -9.3326 H   0  0  0  0  0  0
   14.4344   41.8921   -8.3239 H   0  0  0  0  0  0
   16.2085   43.0230   -9.5063 H   0  0  0  0  0  0
   15.0236   44.2034   -9.0049 H   0  0  0  0  0  0
   15.9751   45.6167  -10.8275 H   0  0  0  0  0  0
   15.6093   45.1244  -12.4509 H   0  0  0  0  0  0
   20.9082   41.2685  -10.7197 H   0  0  0  0  0  0
   21.5738   43.7137  -11.6264 H   0  0  0  0  0  0
   21.1069   44.9028  -10.4142 H   0  0  0  0  0  0
   20.4578   45.0038  -12.0399 H   0  0  0  0  0  0
   19.1708   45.3634   -9.1908 H   0  0  0  0  0  0
   17.4649   45.0107   -9.0006 H   0  0  0  0  0  0
   18.0179   46.2264  -10.1666 H   0  0  0  0  0  0
   17.3252   38.2517   -7.2337 H   0  0  0  0  0  0
   18.9656   38.0449   -6.6701 H   0  0  0  0  0  0
   18.4307   37.2197   -8.1332 H   0  0  0  0  0  0
   23.8582   38.9479   -8.4741 H   0  0  0  0  0  0
  1  2  1  0  0  0
  1 40  1  0  0  0
  1 41  1  0  0  0
  1 42  1  0  0  0
  2  3  1  0  0  0
  2 43  1  0  0  0
  2 44  1  0  0  0
  3 45  1  0  0  0
  3 46  1  0  0  0
  3  4  1  0  0  0
  4  8  2  0  0  0
  4  5  1  0  0  0
  5  6  2  0  0  0
  5 47  1  0  0  0
  6  7  1  0  0  0
  6  9  1  0  0  0
  7  8  1  0  0  0
  7 35  1  0  0  0
  9 10  1  0  0  0
  9 48  1  0  0  0
  9 49  1  0  0  0
 10 11  1  0  0  0
 10 50  1  0  0  0
 11 12  1  0  0  0
 11 51  1  0  0  0
 11 52  1  0  0  0
 12 36  1  0  0  0
 12 13  1  0  0  0
 12 34  1  0  0  0
 13 37  1  0  0  0
 13 30  1  0  0  0
 13 14  1  0  0  0
 14 15  1  0  0  0
 14 53  1  0  0  0
 14 54  1  0  0  0
 15 38  1  0  0  0
 15 16  1  0  0  0
 15 33  1  0  0  0
 16 17  1  0  0  0
 16 55  1  0  0  0
 16 56  1  0  0  0
 17 18  1  0  0  0
 17 57  1  0  0  0
 17 58  1  0  0  0
 18 19  1  0  0  0
 18 59  1  0  0  0
 18 60  1  0  0  0
 19 20  1  0  0  0
 19 61  1  0  0  0
 19 62  1  0  0  0
 20 21  1  0  0  0
 20 63  1  0  0  0
 20 64  1  0  0  0
 21 22  1  0  0  0
 21 65  1  0  0  0
 21 66  1  0  0  0
 22 23  1  0  0  0
 23 24  1  0  0  0
 23 67  1  0  0  0
 23 68  1  0  0  0
 24 25  2  0  0  0
 24 26  1  0  0  0
 26 27  1  0  0  0
 26 32  1  0  0  0
 27 39  1  0  0  0
 27 28  1  0  0  0
 27 31  1  0  0  0
 28 29  2  0  0  0
 28 30  1  0  0  0
 30 69  1  0  0  0
 31 70  1  0  0  0
 31 71  1  0  0  0
 31 72  1  0  0  0
 32 73  1  0  0  0
 32 74  1  0  0  0
 32 75  1  0  0  0
 33 76  1  0  0  0
 33 77  1  0  0  0
 33 78  1  0  0  0
 34 79  1  0  0  0
M  END
> <s_m_source_file>
BACE_5.smi

> <i_m_source_file_index>
1

> <i_lp_mmshare_version>
42013

> <i_f3d_flags>
0

> <s_epik_input>
W0NIM11bQ0gyXVtDSDJdYzFbY0hdYyhuW25IXTEpW0NIMl1bTkhdW0NIMl1bQ0BASF0oW09IXSlbQ0BASF0yW0NIMl1bQ0BIXShbQ0gzXSlbQ0gyXVtDSDJdW0NIMl1bQ0gyXVtDSDJdW0NIMl1PW0NIMl1DKD1PKU4oW0NIM10pW0NAQEhdKFtDSDNdKUMoPU8pW05IXTI=

> <s_epik_cmdline>
J2VwaWtfcHl0aG9uJywgJy1waCcsICc3LjAnLCAnLXRuJywgJzgnLCAnLW1hJywgJzIwMCcsICctaW1hZScsICc8aW5maWxlLm1hZT4nLCAnLW9tYWUnLCAnPG91dGZpbGUubWFlPic=

> <r_lp_tautomer_probability>
0.5

> <r_epik_Ionization_Penalty>
  0.9876

> <r_epik_Ionization_Penalty_Charging>
  0.0000

> <r_epik_Ionization_Penalty_Neutral>
  0.9876

> <r_epik_State_Penalty>
  1.6104

> <r_epik_Charging_Adjusted_Penalty>
1.61044

> <i_epik_Tot_Q>
0

> <i_epik_Tot_abs_Q>
0

> <s_lp_Force_Field>
OPLS_2005

> <r_lp_Energy>
32.3926

> <b_lp_Chiralities_Consistent>
1

> <s_lp_Variant>
BACE_5.smi:1-3

> <chiral flag>
1

> <version>
0

> <r_i_glide_lipo>
-0.879821

> <r_i_glide_hbond>
-0.816235

> <r_i_glide_metal>
-0

> <r_i_glide_rewards>
-0.14092

> <r_i_glide_erotb>
0.52871

> <r_i_glide_esite>
-0.0560036

> <chiral flag>
1

> <s_i_glide_gridfile>
second_dock_grid_2

> <i_i_glide_lignum>
10

> <i_i_glide_rotatable_bonds>
8

> <r_i_docking_score>
-1.22601

> <r_i_glide_ligand_efficiency>
-0.0360592

> <r_i_glide_ligand_efficiency_sa>
-0.116818

> <r_i_glide_ligand_efficiency_ln>
-0.270861

> <r_glide_XP_GScore>
-2.83641

> <r_i_glide_gscore>
-2.83641

> <r_i_glide_evdw>
-33.2758

> <r_i_glide_ecoul>
-9.40728

> <r_i_glide_energy>
-42.6831

> <r_i_glide_einternal>
2.26492

> <r_i_glide_emodel>
-59.1159

> <r_glide_XP_HBond>
-0.9975

> <i_i_glide_confnum>
1

> <i_i_glide_posenum>
5

> <r_i_glide_eff_state_penalty>
1.6104

> <i_glide_XP_PoseRank>
8

$$$$
BACE_5.smi:1
                    3D
 Structure written by MMmdl.
 79 80  0  0  1  0            999 V2000
   29.5369   42.0691  -13.3946 C   0  0  0  0  0  0
   30.1648   42.5963  -12.0959 C   0  0  0  0  0  0
   29.5404   41.9981  -10.8248 C   0  0  0  0  0  0
   28.1061   42.4118  -10.6235 C   0  0  0  0  0  0
   26.9280   41.7501  -11.0774 C   0  0  0  0  0  0
   25.9015   42.5448  -10.6563 C   0  0  0  0  0  0
   26.4860   43.5882   -9.9790 N   0  0  0  0  0  0
   27.8301   43.5240   -9.9573 N   0  0  0  0  0  0
   24.4203   42.4333  -10.8410 C   0  0  0  0  0  0
   23.6616   42.7341   -9.6247 N   0  0  0  0  0  0
   23.6885   41.6872   -8.6006 C   0  0  0  0  0  0
   22.8284   40.4450   -8.9399 C   0  0  2  0  0  0
   21.2936   40.6569   -8.7963 C   0  0  2  0  0  0
   20.4889   39.3273   -8.8493 C   0  0  0  0  0  0
   18.9898   39.4422   -8.4771 C   0  0  1  0  0  0
   18.0938   39.6222   -9.7206 C   0  0  0  0  0  0
   16.6614   40.0825   -9.3956 C   0  0  0  0  0  0
   15.8689   40.3942  -10.6756 C   0  0  0  0  0  0
   14.4551   40.9618  -10.4537 C   0  0  0  0  0  0
   14.3635   42.2588   -9.6269 C   0  0  0  0  0  0
   15.3691   43.3564  -10.0074 C   0  0  0  0  0  0
   15.2482   43.7338  -11.3788 O   0  0  0  0  0  0
   16.2122   44.6939  -11.8187 C   0  0  0  0  0  0
   17.6104   44.0578  -11.9429 C   0  0  0  0  0  0
   17.8074   43.3495  -12.9333 O   0  0  0  0  0  0
   18.5373   44.2500  -10.9669 N   0  0  0  0  0  0
   19.8249   43.5067  -10.9647 C   0  0  2  0  0  0
   20.0839   42.6692   -9.6904 C   0  0  0  0  0  0
   19.6575   43.0169   -8.5948 O   0  0  0  0  0  0
   20.8338   41.5642   -9.8555 N   0  0  0  0  0  0
   20.9857   44.4775  -11.2478 C   0  0  0  0  0  0
   18.3409   45.2606   -9.9197 C   0  0  0  0  0  0
   18.5371   38.2219   -7.6548 C   0  0  0  0  0  0
   23.2593   39.4435   -8.0400 O   0  0  0  0  0  0
   25.9757   44.3336   -9.5270 H   0  0  0  0  0  0
   23.0519   40.0757   -9.9401 H   0  0  0  0  0  0
   21.1206   41.1072   -7.8153 H   0  0  0  0  0  0
   18.8739   40.3143   -7.8311 H   0  0  0  0  0  0
   19.8315   42.7863  -11.7822 H   0  0  0  0  0  0
   30.0609   42.4615  -14.2668 H   0  0  0  0  0  0
   28.4915   42.3634  -13.4793 H   0  0  0  0  0  0
   29.5835   40.9803  -13.4434 H   0  0  0  0  0  0
   30.0902   43.6839  -12.0654 H   0  0  0  0  0  0
   31.2303   42.3640  -12.1067 H   0  0  0  0  0  0
   30.1314   42.3080   -9.9625 H   0  0  0  0  0  0
   29.6193   40.9120  -10.8613 H   0  0  0  0  0  0
   26.8595   40.8313  -11.6398 H   0  0  0  0  0  0
   24.1628   41.4521  -11.2323 H   0  0  0  0  0  0
   24.1298   43.1369  -11.6206 H   0  0  0  0  0  0
   22.6946   42.9436   -9.8591 H   0  0  0  0  0  0
   23.3529   42.1003   -7.6476 H   0  0  0  0  0  0
   24.7225   41.3858   -8.4389 H   0  0  0  0  0  0
   20.6053   38.8491   -9.8238 H   0  0  0  0  0  0
   20.9453   38.6306   -8.1439 H   0  0  0  0  0  0
   18.5394   40.3560  -10.3892 H   0  0  0  0  0  0
   18.0651   38.6937  -10.2904 H   0  0  0  0  0  0
   16.7108   40.9632   -8.7563 H   0  0  0  0  0  0
   16.1356   39.3177   -8.8235 H   0  0  0  0  0  0
   16.4396   41.0763  -11.3072 H   0  0  0  0  0  0
   15.7764   39.4672  -11.2396 H   0  0  0  0  0  0
   13.8310   40.2033   -9.9776 H   0  0  0  0  0  0
   14.0017   41.1383  -11.4298 H   0  0  0  0  0  0
   13.3502   42.6551   -9.7013 H   0  0  0  0  0  0
   14.5036   42.0155   -8.5718 H   0  0  0  0  0  0
   16.3733   43.0019   -9.7817 H   0  0  0  0  0  0
   15.2025   44.2294   -9.3772 H   0  0  0  0  0  0
   16.1805   45.5819  -11.1919 H   0  0  0  0  0  0
   15.9156   45.0315  -12.8132 H   0  0  0  0  0  0
   21.1255   41.3338  -10.7935 H   0  0  0  0  0  0
   21.8807   43.9397  -11.5594 H   0  0  0  0  0  0
   21.2489   45.0648  -10.3682 H   0  0  0  0  0  0
   20.7350   45.1806  -12.0405 H   0  0  0  0  0  0
   19.2499   45.4462   -9.3440 H   0  0  0  0  0  0
   17.5780   44.9524   -9.2047 H   0  0  0  0  0  0
   18.0574   46.2248  -10.3413 H   0  0  0  0  0  0
   17.5121   38.3259   -7.3005 H   0  0  0  0  0  0
   19.1592   38.0911   -6.7693 H   0  0  0  0  0  0
   18.5930   37.3070   -8.2427 H   0  0  0  0  0  0
   23.9375   38.9505   -8.4899 H   0  0  0  0  0  0
  1  2  1  0  0  0
  1 40  1  0  0  0
  1 41  1  0  0  0
  1 42  1  0  0  0
  2  3  1  0  0  0
  2 43  1  0  0  0
  2 44  1  0  0  0
  3 45  1  0  0  0
  3 46  1  0  0  0
  3  4  1  0  0  0
  4  8  2  0  0  0
  4  5  1  0  0  0
  5  6  2  0  0  0
  5 47  1  0  0  0
  6  7  1  0  0  0
  6  9  1  0  0  0
  7  8  1  0  0  0
  7 35  1  0  0  0
  9 10  1  0  0  0
  9 48  1  0  0  0
  9 49  1  0  0  0
 10 11  1  0  0  0
 10 50  1  0  0  0
 11 12  1  0  0  0
 11 51  1  0  0  0
 11 52  1  0  0  0
 12 36  1  0  0  0
 12 13  1  0  0  0
 12 34  1  0  0  0
 13 37  1  0  0  0
 13 30  1  0  0  0
 13 14  1  0  0  0
 14 15  1  0  0  0
 14 53  1  0  0  0
 14 54  1  0  0  0
 15 38  1  0  0  0
 15 16  1  0  0  0
 15 33  1  0  0  0
 16 17  1  0  0  0
 16 55  1  0  0  0
 16 56  1  0  0  0
 17 18  1  0  0  0
 17 57  1  0  0  0
 17 58  1  0  0  0
 18 19  1  0  0  0
 18 59  1  0  0  0
 18 60  1  0  0  0
 19 20  1  0  0  0
 19 61  1  0  0  0
 19 62  1  0  0  0
 20 21  1  0  0  0
 20 63  1  0  0  0
 20 64  1  0  0  0
 21 22  1  0  0  0
 21 65  1  0  0  0
 21 66  1  0  0  0
 22 23  1  0  0  0
 23 24  1  0  0  0
 23 67  1  0  0  0
 23 68  1  0  0  0
 24 25  2  0  0  0
 24 26  1  0  0  0
 26 27  1  0  0  0
 26 32  1  0  0  0
 27 39  1  0  0  0
 27 28  1  0  0  0
 27 31  1  0  0  0
 28 29  2  0  0  0
 28 30  1  0  0  0
 30 69  1  0  0  0
 31 70  1  0  0  0
 31 71  1  0  0  0
 31 72  1  0  0  0
 32 73  1  0  0  0
 32 74  1  0  0  0
 32 75  1  0  0  0
 33 76  1  0  0  0
 33 77  1  0  0  0
 33 78  1  0  0  0
 34 79  1  0  0  0
M  END
> <s_m_source_file>
BACE_5.smi

> <i_m_source_file_index>
1

> <i_lp_mmshare_version>
42013

> <i_f3d_flags>
0

> <s_epik_input>
W0NIM11bQ0gyXVtDSDJdYzFbY0hdYyhuW25IXTEpW0NIMl1bTkhdW0NIMl1bQ0BASF0oW09IXSlbQ0BASF0yW0NIMl1bQ0BIXShbQ0gzXSlbQ0gyXVtDSDJdW0NIMl1bQ0gyXVtDSDJdW0NIMl1PW0NIMl1DKD1PKU4oW0NIM10pW0NAQEhdKFtDSDNdKUMoPU8pW05IXTI=

> <s_epik_cmdline>
J2VwaWtfcHl0aG9uJywgJy1waCcsICc3LjAnLCAnLXRuJywgJzgnLCAnLW1hJywgJzIwMCcsICctaW1hZScsICc8aW5maWxlLm1hZT4nLCAnLW9tYWUnLCAnPG91dGZpbGUubWFlPic=

> <r_lp_tautomer_probability>
0.5

> <r_epik_Ionization_Penalty>
  0.9876

> <r_epik_Ionization_Penalty_Charging>
  0.0000

> <r_epik_Ionization_Penalty_Neutral>
  0.9876

> <r_epik_State_Penalty>
  1.6104

> <r_epik_Charging_Adjusted_Penalty>
1.61044

> <i_epik_Tot_Q>
0

> <i_epik_Tot_abs_Q>
0

> <s_lp_Force_Field>
OPLS_2005

> <r_lp_Energy>
32.3926

> <b_lp_Chiralities_Consistent>
1

> <s_lp_Variant>
BACE_5.smi:1-3

> <chiral flag>
1

> <version>
0

> <r_i_glide_lipo>
-0.879821

> <r_i_glide_hbond>
-0.816235

> <r_i_glide_metal>
-0

> <r_i_glide_rewards>
-0.14092

> <r_i_glide_erotb>
0.52871

> <r_i_glide_esite>
-0.0560036

> <chiral flag>
1

> <s_i_glide_gridfile>
second_dock_grid_2

> <i_i_glide_lignum>
10

> <i_i_glide_rotatable_bonds>
8

> <r_i_docking_score>
-1.17445

> <r_i_glide_ligand_efficiency>
-0.0345427

> <r_i_glide_ligand_efficiency_sa>
-0.111905

> <r_i_glide_ligand_efficiency_ln>
-0.259469

> <r_glide_XP_GScore>
-2.78485

> <r_i_glide_gscore>
-2.78485

> <r_i_glide_evdw>
-34.852

> <r_i_glide_ecoul>
-8.8756

> <r_i_glide_energy>
-43.7276

> <r_i_glide_einternal>
4.01338

> <r_i_glide_emodel>
-58.5342

> <r_glide_XP_HBond>
-0.9975

> <i_i_glide_confnum>
1

> <i_i_glide_posenum>
12

> <r_i_glide_eff_state_penalty>
1.6104

> <i_glide_XP_PoseRank>
9

$$$$
BACE_5.smi:1
                    3D
 Structure written by MMmdl.
 79 80  0  0  1  0            999 V2000
   29.8061   41.6223  -12.8745 C   0  0  0  0  0  0
   29.4607   43.1181  -12.8149 C   0  0  0  0  0  0
   28.8972   43.5839  -11.4580 C   0  0  0  0  0  0
   27.5729   42.9540  -11.1117 C   0  0  0  0  0  0
   26.2668   43.4830  -11.3089 C   0  0  0  0  0  0
   25.4312   42.4956  -10.8653 C   0  0  0  0  0  0
   26.2391   41.4705  -10.4389 N   0  0  0  0  0  0
   27.5464   41.7528  -10.5585 N   0  0  0  0  0  0
   23.9423   42.4084  -10.8471 C   0  0  0  0  0  0
   23.3578   42.6910   -9.5348 N   0  0  0  0  0  0
   23.4194   41.6026   -8.5568 C   0  0  0  0  0  0
   22.5618   40.3630   -8.9141 C   0  0  2  0  0  0
   21.0277   40.5754   -8.7547 C   0  0  2  0  0  0
   20.2210   39.2428   -8.7955 C   0  0  0  0  0  0
   18.7116   39.3630   -8.4601 C   0  0  1  0  0  0
   17.8462   39.5487   -9.7260 C   0  0  0  0  0  0
   16.4247   40.0483   -9.4276 C   0  0  0  0  0  0
   15.6704   40.4528  -10.7057 C   0  0  0  0  0  0
   14.2555   41.0055  -10.4682 C   0  0  0  0  0  0
   14.1498   42.2641   -9.5862 C   0  0  0  0  0  0
   15.1352   43.3868   -9.9335 C   0  0  0  0  0  0
   15.0022   43.7839  -11.2980 O   0  0  0  0  0  0
   15.9759   44.7231  -11.7564 C   0  0  0  0  0  0
   17.3573   44.0512  -11.8912 C   0  0  0  0  0  0
   17.5381   43.3499  -12.8879 O   0  0  0  0  0  0
   18.2860   44.2019  -10.9088 N   0  0  0  0  0  0
   19.5494   43.4236  -10.9175 C   0  0  2  0  0  0
   19.8235   42.5946   -9.6446 C   0  0  0  0  0  0
   19.4030   42.9487   -8.5467 O   0  0  0  0  0  0
   20.5646   41.4851   -9.8092 N   0  0  0  0  0  0
   20.7176   44.3524  -11.2711 C   0  0  0  0  0  0
   18.1395   45.2419   -9.8761 C   0  0  0  0  0  0
   18.2289   38.1550   -7.6363 C   0  0  0  0  0  0
   23.0114   39.3519   -8.0401 O   0  0  0  0  0  0
   25.9215   40.5833  -10.0706 H   0  0  0  0  0  0
   22.7792   40.0000   -9.9184 H   0  0  0  0  0  0
   20.8620   41.0265   -7.7737 H   0  0  0  0  0  0
   18.5874   40.2414   -7.8204 H   0  0  0  0  0  0
   19.5123   42.6841  -11.7210 H   0  0  0  0  0  0
   30.2623   41.3638  -13.8287 H   0  0  0  0  0  0
   28.9186   40.9986  -12.7659 H   0  0  0  0  0  0
   30.5074   41.3520  -12.0869 H   0  0  0  0  0  0
   28.7559   43.3579  -13.6109 H   0  0  0  0  0  0
   30.3648   43.6889  -13.0289 H   0  0  0  0  0  0
   28.7823   44.6715  -11.4776 H   0  0  0  0  0  0
   29.6223   43.3764  -10.6703 H   0  0  0  0  0  0
   25.9818   44.4360  -11.7294 H   0  0  0  0  0  0
   23.6158   41.4460  -11.2377 H   0  0  0  0  0  0
   23.5751   43.1462  -11.5583 H   0  0  0  0  0  0
   22.3919   42.9885   -9.6444 H   0  0  0  0  0  0
   23.1087   41.9782   -7.5822 H   0  0  0  0  0  0
   24.4592   41.3021   -8.4267 H   0  0  0  0  0  0
   20.3563   38.7405   -9.7581 H   0  0  0  0  0  0
   20.6619   38.5644   -8.0628 H   0  0  0  0  0  0
   18.3227   40.2641  -10.3945 H   0  0  0  0  0  0
   17.8081   38.6138  -10.2879 H   0  0  0  0  0  0
   16.4845   40.8991   -8.7491 H   0  0  0  0  0  0
   15.8596   39.2775   -8.9026 H   0  0  0  0  0  0
   16.2593   41.1776  -11.2736 H   0  0  0  0  0  0
   15.5843   39.5734  -11.3388 H   0  0  0  0  0  0
   13.6566   40.2144  -10.0168 H   0  0  0  0  0  0
   13.7946   41.2170  -11.4340 H   0  0  0  0  0  0
   13.1286   42.6459   -9.6378 H   0  0  0  0  0  0
   14.3079   41.9768   -8.5454 H   0  0  0  0  0  0
   16.1393   43.0351   -9.7094 H   0  0  0  0  0  0
   14.9550   44.2459   -9.2868 H   0  0  0  0  0  0
   15.9750   45.6157  -11.1317 H   0  0  0  0  0  0
   15.6810   45.0600  -12.7527 H   0  0  0  0  0  0
   20.8574   41.2559  -10.7477 H   0  0  0  0  0  0
   21.5657   43.7837  -11.6454 H   0  0  0  0  0  0
   21.0577   44.9285  -10.4089 H   0  0  0  0  0  0
   20.4400   45.0675  -12.0395 H   0  0  0  0  0  0
   19.0508   45.3829   -9.2961 H   0  0  0  0  0  0
   17.3481   44.9874   -9.1703 H   0  0  0  0  0  0
   17.9150   46.2096  -10.3248 H   0  0  0  0  0  0
   17.1898   38.2615   -7.3309 H   0  0  0  0  0  0
   18.8086   38.0400   -6.7189 H   0  0  0  0  0  0
   18.3157   37.2278   -8.2022 H   0  0  0  0  0  0
   23.7584   38.9416   -8.4598 H   0  0  0  0  0  0
  1  2  1  0  0  0
  1 40  1  0  0  0
  1 41  1  0  0  0
  1 42  1  0  0  0
  2  3  1  0  0  0
  2 43  1  0  0  0
  2 44  1  0  0  0
  3 45  1  0  0  0
  3 46  1  0  0  0
  3  4  1  0  0  0
  4  8  2  0  0  0
  4  5  1  0  0  0
  5  6  2  0  0  0
  5 47  1  0  0  0
  6  7  1  0  0  0
  6  9  1  0  0  0
  7  8  1  0  0  0
  7 35  1  0  0  0
  9 10  1  0  0  0
  9 48  1  0  0  0
  9 49  1  0  0  0
 10 11  1  0  0  0
 10 50  1  0  0  0
 11 12  1  0  0  0
 11 51  1  0  0  0
 11 52  1  0  0  0
 12 36  1  0  0  0
 12 13  1  0  0  0
 12 34  1  0  0  0
 13 37  1  0  0  0
 13 30  1  0  0  0
 13 14  1  0  0  0
 14 15  1  0  0  0
 14 53  1  0  0  0
 14 54  1  0  0  0
 15 38  1  0  0  0
 15 16  1  0  0  0
 15 33  1  0  0  0
 16 17  1  0  0  0
 16 55  1  0  0  0
 16 56  1  0  0  0
 17 18  1  0  0  0
 17 57  1  0  0  0
 17 58  1  0  0  0
 18 19  1  0  0  0
 18 59  1  0  0  0
 18 60  1  0  0  0
 19 20  1  0  0  0
 19 61  1  0  0  0
 19 62  1  0  0  0
 20 21  1  0  0  0
 20 63  1  0  0  0
 20 64  1  0  0  0
 21 22  1  0  0  0
 21 65  1  0  0  0
 21 66  1  0  0  0
 22 23  1  0  0  0
 23 24  1  0  0  0
 23 67  1  0  0  0
 23 68  1  0  0  0
 24 25  2  0  0  0
 24 26  1  0  0  0
 26 27  1  0  0  0
 26 32  1  0  0  0
 27 39  1  0  0  0
 27 28  1  0  0  0
 27 31  1  0  0  0
 28 29  2  0  0  0
 28 30  1  0  0  0
 30 69  1  0  0  0
 31 70  1  0  0  0
 31 71  1  0  0  0
 31 72  1  0  0  0
 32 73  1  0  0  0
 32 74  1  0  0  0
 32 75  1  0  0  0
 33 76  1  0  0  0
 33 77  1  0  0  0
 33 78  1  0  0  0
 34 79  1  0  0  0
M  END
> <s_m_source_file>
BACE_5.smi

> <i_m_source_file_index>
1

> <i_lp_mmshare_version>
42013

> <i_f3d_flags>
0

> <s_epik_input>
W0NIM11bQ0gyXVtDSDJdYzFbY0hdYyhuW25IXTEpW0NIMl1bTkhdW0NIMl1bQ0BASF0oW09IXSlbQ0BASF0yW0NIMl1bQ0BIXShbQ0gzXSlbQ0gyXVtDSDJdW0NIMl1bQ0gyXVtDSDJdW0NIMl1PW0NIMl1DKD1PKU4oW0NIM10pW0NAQEhdKFtDSDNdKUMoPU8pW05IXTI=

> <s_epik_cmdline>
J2VwaWtfcHl0aG9uJywgJy1waCcsICc3LjAnLCAnLXRuJywgJzgnLCAnLW1hJywgJzIwMCcsICctaW1hZScsICc8aW5maWxlLm1hZT4nLCAnLW9tYWUnLCAnPG91dGZpbGUubWFlPic=

> <r_lp_tautomer_probability>
0.5

> <r_epik_Ionization_Penalty>
  0.9876

> <r_epik_Ionization_Penalty_Charging>
  0.0000

> <r_epik_Ionization_Penalty_Neutral>
  0.9876

> <r_epik_State_Penalty>
  1.6104

> <r_epik_Charging_Adjusted_Penalty>
1.61044

> <i_epik_Tot_Q>
0

> <i_epik_Tot_abs_Q>
0

> <s_lp_Force_Field>
OPLS_2005

> <r_lp_Energy>
32.3926

> <b_lp_Chiralities_Consistent>
1

> <s_lp_Variant>
BACE_5.smi:1-3

> <chiral flag>
1

> <version>
0

> <r_i_glide_lipo>
-0.879821

> <r_i_glide_hbond>
-0.816235

> <r_i_glide_metal>
-0

> <r_i_glide_rewards>
-0.14092

> <r_i_glide_erotb>
0.52871

> <r_i_glide_esite>
-0.0560036

> <chiral flag>
1

> <s_i_glide_gridfile>
second_dock_grid_2

> <i_i_glide_lignum>
10

> <i_i_glide_rotatable_bonds>
8

> <r_i_docking_score>
-0.982298

> <r_i_glide_ligand_efficiency>
-0.0288911

> <r_i_glide_ligand_efficiency_sa>
-0.093596

> <r_i_glide_ligand_efficiency_ln>
-0.217017

> <r_glide_XP_GScore>
-2.5927

> <r_i_glide_gscore>
-2.5927

> <r_i_glide_evdw>
-34.4383

> <r_i_glide_ecoul>
-9.18639

> <r_i_glide_energy>
-43.6247

> <r_i_glide_einternal>
2.58556

> <r_i_glide_emodel>
-60.0345

> <r_glide_XP_HBond>
-0.9975

> <i_i_glide_confnum>
1

> <i_i_glide_posenum>
11

> <r_i_glide_eff_state_penalty>
1.6104

> <i_glide_XP_PoseRank>
10

$$$$
