BACE_48.smi:1
                    3D
 Structure written by MMmdl.
 90 92  0  0  1  0            999 V2000
   18.5974   45.8751  -11.3094 C   0  0  0  0  0  0
   19.6052   45.2426  -10.3359 C   0  0  2  0  0  0
   20.8646   44.7382  -11.0788 C   0  0  0  0  0  0
   21.9743   45.7831  -11.2715 C   0  0  0  0  0  0
   22.7491   45.8495  -10.0807 O   0  0  0  0  0  0
   23.8885   46.6877  -10.2039 C   0  0  0  0  0  0
   24.7446   46.6423   -8.9230 C   0  0  0  0  0  0
   25.4637   45.2970   -8.6693 C   0  0  0  0  0  0
   24.7627   44.3765   -7.6546 C   0  0  0  0  0  0
   23.4555   43.9654   -8.1373 N   0  0  0  0  0  0
   22.4430   43.9626   -7.1758 C   0  0  0  0  0  0
   21.3104   44.7825   -7.3217 C   0  0  0  0  0  0
   20.2726   44.7335   -6.3705 C   0  0  0  0  0  0
   20.4416   43.8989   -5.2400 C   0  0  0  0  0  0
   21.6079   43.1126   -5.1222 C   0  0  0  0  0  0
   21.8474   42.1910   -3.9449 C   0  0  0  0  0  0
   22.5528   43.1717   -6.0867 N   0  3  0  0  0  0
   19.0735   45.6326   -6.5044 C   0  0  0  0  0  0
   18.8601   46.4778   -5.6399 O   0  0  0  0  0  0
   18.2648   45.5537   -7.5833 N   0  0  0  0  0  0
   17.9158   44.4268   -8.4661 C   0  0  1  0  0  0
   18.9837   44.0758   -9.5338 C   0  0  0  0  0  0
   17.3936   43.2152   -7.6445 C   0  0  2  0  0  0
   18.5080   42.4651   -7.2400 O   0  0  0  0  0  0
   16.4912   42.2236   -8.4021 C   0  0  0  0  0  0
   15.9933   41.1591   -7.4889 N   0  3  0  0  0  0
   15.7961   39.8047   -8.0685 C   0  0  0  0  0  0
   15.1381   38.9500   -6.9753 C   0  0  0  0  0  0
   14.8460   39.8871   -9.2883 C   0  0  0  0  0  0
   17.1580   39.2271   -8.4630 C   0  0  0  0  0  0
   18.3947   39.3316   -7.7655 C   0  0  0  0  0  0
   19.3054   38.7158   -8.5734 C   0  0  0  0  0  0
   20.7954   38.5416   -8.4776 C   0  0  0  0  0  0
   21.6840   39.7442   -8.9311 C   0  0  0  0  0  0
   22.9220   39.8547   -8.0152 C   0  0  0  0  0  0
   20.9550   41.0943   -8.8702 C   0  0  0  0  0  0
   22.1578   39.5285  -10.3785 C   0  0  0  0  0  0
   18.6777   38.2079   -9.6637 O   0  0  0  0  0  0
   17.3098   38.4991   -9.5618 N   0  0  0  0  0  0
   19.9059   46.0300   -9.6487 H   0  0  0  0  0  0
   17.0532   44.8064   -9.0135 H   0  0  0  0  0  0
   16.8596   43.5792   -6.7704 H   0  0  0  0  0  0
   18.2227   45.1451  -12.0275 H   0  0  0  0  0  0
   19.0563   46.6875  -11.8742 H   0  0  0  0  0  0
   17.7405   46.2915  -10.7798 H   0  0  0  0  0  0
   21.3136   43.8875  -10.5672 H   0  0  0  0  0  0
   20.5572   44.3396  -12.0401 H   0  0  0  0  0  0
   22.6132   45.4694  -12.0990 H   0  0  0  0  0  0
   21.5600   46.7586  -11.5297 H   0  0  0  0  0  0
   24.4931   46.3892  -11.0615 H   0  0  0  0  0  0
   23.5580   47.7111  -10.3864 H   0  0  0  0  0  0
   25.5100   47.4129   -9.0230 H   0  0  0  0  0  0
   24.1496   46.9334   -8.0569 H   0  0  0  0  0  0
   25.6334   44.7696   -9.6100 H   0  0  0  0  0  0
   26.4583   45.5136   -8.2776 H   0  0  0  0  0  0
   25.3651   43.4834   -7.4875 H   0  0  0  0  0  0
   24.6779   44.8895   -6.6946 H   0  0  0  0  0  0
   23.2040   44.4857   -8.9715 H   0  0  0  0  0  0
   21.2503   45.4591   -8.1545 H   0  0  0  0  0  0
   19.6863   43.8490   -4.4694 H   0  0  0  0  0  0
   20.9549   42.1075   -3.3233 H   0  0  0  0  0  0
   22.6612   42.5715   -3.3260 H   0  0  0  0  0  0
   22.1126   41.1902   -4.2903 H   0  0  0  0  0  0
   17.5997   46.3109   -7.6295 H   0  0  0  0  0  0
   18.5662   43.3516  -10.2340 H   0  0  0  0  0  0
   19.7921   43.5453   -9.0410 H   0  0  0  0  0  0
   18.3502   42.1017   -6.3675 H   0  0  0  0  0  0
   15.6325   42.7365   -8.8343 H   0  0  0  0  0  0
   17.0490   41.7925   -9.2345 H   0  0  0  0  0  0
   16.6749   41.0429   -6.7508 H   0  0  0  0  0  0
   15.0013   37.9190   -7.2990 H   0  0  0  0  0  0
   14.1522   39.3316   -6.7058 H   0  0  0  0  0  0
   15.7312   38.9501   -6.0557 H   0  0  0  0  0  0
   14.6071   38.8915   -9.6663 H   0  0  0  0  0  0
   15.2796   40.4475  -10.1168 H   0  0  0  0  0  0
   13.8989   40.3583   -9.0334 H   0  0  0  0  0  0
   18.6138   39.8256   -6.8389 H   0  0  0  0  0  0
   21.0118   38.3154   -7.4331 H   0  0  0  0  0  0
   21.0898   37.6411   -9.0170 H   0  0  0  0  0  0
   23.5692   40.6794   -8.3174 H   0  0  0  0  0  0
   23.5273   38.9503   -8.0394 H   0  0  0  0  0  0
   22.6365   40.0269   -6.9759 H   0  0  0  0  0  0
   20.6703   41.3221   -7.8439 H   0  0  0  0  0  0
   20.0606   41.1143   -9.4942 H   0  0  0  0  0  0
   21.6015   41.9023   -9.2128 H   0  0  0  0  0  0
   22.6981   40.3984  -10.7587 H   0  0  0  0  0  0
   21.3229   39.3369  -11.0554 H   0  0  0  0  0  0
   22.8491   38.6890  -10.4396 H   0  0  0  0  0  0
   15.1350   41.4636   -7.0443 H   0  0  0  0  0  0
   23.3850   42.5900   -5.9881 H   0  0  0  0  0  0
  1  2  1  0  0  0
  1 43  1  0  0  0
  1 44  1  0  0  0
  1 45  1  0  0  0
  2 40  1  0  0  0
  2 22  1  0  0  0
  2  3  1  0  0  0
  3  4  1  0  0  0
  3 46  1  0  0  0
  3 47  1  0  0  0
  4  5  1  0  0  0
  4 48  1  0  0  0
  4 49  1  0  0  0
  5  6  1  0  0  0
  6  7  1  0  0  0
  6 50  1  0  0  0
  6 51  1  0  0  0
  7  8  1  0  0  0
  7 52  1  0  0  0
  7 53  1  0  0  0
  8  9  1  0  0  0
  8 54  1  0  0  0
  8 55  1  0  0  0
  9 10  1  0  0  0
  9 56  1  0  0  0
  9 57  1  0  0  0
 10 11  1  0  0  0
 10 58  1  0  0  0
 11 17  1  0  0  0
 11 12  2  0  0  0
 12 13  1  0  0  0
 12 59  1  0  0  0
 13 14  2  0  0  0
 13 18  1  0  0  0
 14 15  1  0  0  0
 14 60  1  0  0  0
 15 16  1  0  0  0
 15 17  2  0  0  0
 16 61  1  0  0  0
 16 62  1  0  0  0
 16 63  1  0  0  0
 17 90  1  0  0  0
 18 19  2  0  0  0
 18 20  1  0  0  0
 20 21  1  0  0  0
 20 64  1  0  0  0
 21 41  1  0  0  0
 21 22  1  0  0  0
 21 23  1  0  0  0
 22 65  1  0  0  0
 22 66  1  0  0  0
 23 42  1  0  0  0
 23 24  1  0  0  0
 23 25  1  0  0  0
 24 67  1  0  0  0
 25 26  1  0  0  0
 25 68  1  0  0  0
 25 69  1  0  0  0
 26 27  1  0  0  0
 26 70  1  0  0  0
 26 89  1  0  0  0
 27 28  1  0  0  0
 27 29  1  0  0  0
 27 30  1  0  0  0
 28 71  1  0  0  0
 28 72  1  0  0  0
 28 73  1  0  0  0
 29 74  1  0  0  0
 29 75  1  0  0  0
 29 76  1  0  0  0
 30 39  2  0  0  0
 30 31  1  0  0  0
 31 32  2  0  0  0
 31 77  1  0  0  0
 32 33  1  0  0  0
 32 38  1  0  0  0
 33 34  1  0  0  0
 33 78  1  0  0  0
 33 79  1  0  0  0
 34 35  1  0  0  0
 34 36  1  0  0  0
 34 37  1  0  0  0
 35 80  1  0  0  0
 35 81  1  0  0  0
 35 82  1  0  0  0
 36 83  1  0  0  0
 36 84  1  0  0  0
 36 85  1  0  0  0
 37 86  1  0  0  0
 37 87  1  0  0  0
 37 88  1  0  0  0
 38 39  1  0  0  0
M  CHG  2  17   1  26   1
M  END
> <s_m_source_file>
BACE_48.smi

> <i_m_source_file_index>
1

> <i_lp_mmshare_version>
42013

> <i_f3d_flags>
0

> <s_epik_input>
W05IXTFbQ0gyXVtDSDJdW0NIMl1bQ0gyXU9bQ0gyXVtDSDJdW0NAQEhdKFtDSDNdKVtDSDJdW0NASF0oW05IXUMoPU8pYyhbY0hdYzEyKVtjSF1jKG4yKVtDSDNdKVtDQEhdKFtPSF0pW0NIMl1bTkhdQyhbQ0gzXSkoW0NIM10pYzNbY0hdYyhvbjMpW0NIMl1DKFtDSDNdKShbQ0gzXSlbQ0gzXQ==

> <s_epik_cmdline>
J2VwaWtfcHl0aG9uJywgJy1waCcsICc3LjAnLCAnLXRuJywgJzgnLCAnLW1hJywgJzIwMCcsICctaW1hZScsICc8aW5maWxlLm1hZT4nLCAnLW9tYWUnLCAnPG91dGZpbGUubWFlPic=

> <r_lp_tautomer_probability>
0.999994

> <r_epik_Ionization_Penalty>
  2.6235

> <r_epik_Ionization_Penalty_Charging>
  2.6235

> <r_epik_Ionization_Penalty_Neutral>
  0.0000

> <r_epik_State_Penalty>
  2.6864

> <r_epik_Charging_Adjusted_Penalty>
5.30987

> <i_epik_Tot_Q>
2

> <i_epik_Tot_abs_Q>
2

> <s_lp_Force_Field>
OPLS_2005

> <r_lp_Energy>
44.8214

> <b_lp_Chiralities_Consistent>
1

> <s_lp_Variant>
BACE_48.smi:1-3

> <chiral flag>
1

> <version>
0

> <s_i_glide_gridfile>
second_dock_grid_2

> <i_i_glide_lignum>
7

> <i_i_glide_rotatable_bonds>
8

> <r_i_docking_score>
-3.06928

> <r_i_glide_ligand_efficiency>
-0.0786996

> <r_i_glide_ligand_efficiency_sa>
-0.266887

> <r_i_glide_ligand_efficiency_ln>
-0.658141

> <r_glide_XP_GScore>
-5.75568

> <r_i_glide_gscore>
-5.75568

> <r_i_glide_evdw>
-33.2735

> <r_i_glide_ecoul>
-17.5122

> <r_i_glide_energy>
-50.7857

> <r_i_glide_einternal>
9.38664

> <r_i_glide_emodel>
-66.317

> <r_glide_XP_HBond>
-0.807719

> <i_i_glide_confnum>
1

> <i_i_glide_posenum>
4

> <r_i_glide_eff_state_penalty>
2.6864

> <i_glide_XP_PoseRank>
1

$$$$
BACE_49.smi:1
                    3D
 Structure written by MMmdl.
 76 78  0  0  1  0            999 V2000
   24.1370   43.7805   -5.7919 C   0  0  0  0  0  0
   23.0342   44.3583   -4.8907 C   0  0  0  0  0  0
   22.5155   43.3125   -3.8923 C   0  0  0  0  0  0
   21.9054   44.9708   -5.7112 C   0  0  0  0  0  0
   22.0457   46.2708   -6.2430 C   0  0  0  0  0  0
   21.0164   46.8364   -7.0195 C   0  0  0  0  0  0
   19.8404   46.1056   -7.2724 C   0  0  0  0  0  0
   19.6873   44.8086   -6.7410 C   0  0  0  0  0  0
   18.4212   44.0224   -7.0119 C   0  0  0  0  0  0
   18.0989   44.0383   -8.4506 N   0  3  0  0  0  0
   17.4255   42.8150   -8.9292 C   0  0  0  0  0  0
   16.2099   42.4715   -8.0401 C   0  0  1  0  0  0
   15.2390   43.4705   -8.2929 O   0  0  0  0  0  0
   15.5762   41.0732   -8.3031 C   0  0  2  0  0  0
   16.5984   39.9370   -8.1795 C   0  0  0  0  0  0
   16.5438   38.6592   -8.6170 C   0  0  0  0  0  0
   15.3839   38.0395   -9.3824 C   0  0  0  0  0  0
   17.6892   37.6991   -8.3288 C   0  0  0  0  0  0
   18.5925   37.4162   -9.5445 C   0  0  0  0  0  0
   19.4305   38.5088   -9.9079 O   0  0  0  0  0  0
   20.3780   38.8939   -8.9198 C   0  0  0  0  0  0
   21.6183   39.5526   -9.5469 C   0  0  0  0  0  0
   21.3976   40.9483  -10.1639 C   0  0  0  0  0  0
   21.0607   40.9381  -11.6662 C   0  0  0  0  0  0
   19.6900   40.5269  -11.9345 N   0  0  0  0  0  0
   18.6421   41.4299  -11.7134 C   0  0  0  0  0  0
   17.3791   40.9187  -11.3560 C   0  0  0  0  0  0
   16.3141   41.8212  -11.1679 C   0  0  0  0  0  0
   16.5471   43.1967  -11.3707 C   0  0  0  0  0  0
   17.8491   43.6181  -11.7011 C   0  0  0  0  0  0
   18.1547   45.3048  -11.8830 Cl  0  0  0  0  0  0
   18.8737   42.7551  -11.8652 N   0  0  0  0  0  0
   14.9533   41.3356  -10.7844 C   0  0  0  0  0  0
   14.0725   41.2639  -11.6372 O   0  0  0  0  0  0
   14.7177   41.0127   -9.4971 N   0  0  0  0  0  0
   20.7182   44.2465   -5.9588 C   0  0  0  0  0  0
   16.4856   42.5523   -6.9889 H   0  0  0  0  0  0
   14.8802   40.8991   -7.4814 H   0  0  0  0  0  0
   24.5382   44.5451   -6.4579 H   0  0  0  0  0  0
   23.7664   42.9618   -6.4093 H   0  0  0  0  0  0
   24.9659   43.3953   -5.1975 H   0  0  0  0  0  0
   23.4879   45.1588   -4.3050 H   0  0  0  0  0  0
   21.7658   43.7433   -3.2279 H   0  0  0  0  0  0
   23.3252   42.9313   -3.2695 H   0  0  0  0  0  0
   22.0639   42.4601   -4.4001 H   0  0  0  0  0  0
   22.9463   46.8396   -6.0623 H   0  0  0  0  0  0
   21.1317   47.8310   -7.4248 H   0  0  0  0  0  0
   19.0565   46.5442   -7.8724 H   0  0  0  0  0  0
   18.5463   42.9931   -6.6728 H   0  0  0  0  0  0
   17.5948   44.4517   -6.4435 H   0  0  0  0  0  0
   17.4947   44.8267   -8.6339 H   0  0  0  0  0  0
   17.1230   42.9317   -9.9711 H   0  0  0  0  0  0
   18.1687   42.0193   -8.9115 H   0  0  0  0  0  0
   14.8626   43.7441   -7.4699 H   0  0  0  0  0  0
   17.4902   40.2136   -7.6362 H   0  0  0  0  0  0
   15.2641   36.9895   -9.1152 H   0  0  0  0  0  0
   15.5650   38.0943  -10.4560 H   0  0  0  0  0  0
   14.4338   38.5210   -9.1591 H   0  0  0  0  0  0
   18.2792   38.0599   -7.4864 H   0  0  0  0  0  0
   17.2587   36.7597   -7.9808 H   0  0  0  0  0  0
   19.2180   36.5453   -9.3437 H   0  0  0  0  0  0
   17.9824   37.1517  -10.4086 H   0  0  0  0  0  0
   19.9109   39.5693   -8.2023 H   0  0  0  0  0  0
   20.7117   38.0178   -8.3612 H   0  0  0  0  0  0
   22.3549   39.6619   -8.7501 H   0  0  0  0  0  0
   22.0757   38.8802  -10.2733 H   0  0  0  0  0  0
   20.6597   41.5161   -9.5956 H   0  0  0  0  0  0
   22.3319   41.5000  -10.0565 H   0  0  0  0  0  0
   21.2460   41.9231  -12.0950 H   0  0  0  0  0  0
   21.7328   40.2598  -12.1919 H   0  0  0  0  0  0
   19.4834   39.5506  -11.7754 H   0  0  0  0  0  0
   17.2295   39.8553  -11.2362 H   0  0  0  0  0  0
   15.7516   43.9179  -11.2530 H   0  0  0  0  0  0
   13.7813   40.6822   -9.3130 H   0  0  0  0  0  0
   20.6021   43.2519   -5.5535 H   0  0  0  0  0  0
   18.9554   44.1624   -8.9716 H   0  0  0  0  0  0
  1  2  1  0  0  0
  1 39  1  0  0  0
  1 40  1  0  0  0
  1 41  1  0  0  0
  2  3  1  0  0  0
  2  4  1  0  0  0
  2 42  1  0  0  0
  3 43  1  0  0  0
  3 44  1  0  0  0
  3 45  1  0  0  0
  4 36  1  0  0  0
  4  5  2  0  0  0
  5  6  1  0  0  0
  5 46  1  0  0  0
  6  7  2  0  0  0
  6 47  1  0  0  0
  7  8  1  0  0  0
  7 48  1  0  0  0
  8  9  1  0  0  0
  8 36  2  0  0  0
  9 10  1  0  0  0
  9 49  1  0  0  0
  9 50  1  0  0  0
 10 11  1  0  0  0
 10 51  1  0  0  0
 10 76  1  0  0  0
 11 12  1  0  0  0
 11 52  1  0  0  0
 11 53  1  0  0  0
 12 37  1  0  0  0
 12 13  1  0  0  0
 12 14  1  0  0  0
 13 54  1  0  0  0
 14 38  1  0  0  0
 14 35  1  0  0  0
 14 15  1  0  0  0
 15 16  2  0  0  0
 15 55  1  0  0  0
 16 17  1  0  0  0
 16 18  1  0  0  0
 17 56  1  0  0  0
 17 57  1  0  0  0
 17 58  1  0  0  0
 18 19  1  0  0  0
 18 59  1  0  0  0
 18 60  1  0  0  0
 19 20  1  0  0  0
 19 61  1  0  0  0
 19 62  1  0  0  0
 20 21  1  0  0  0
 21 22  1  0  0  0
 21 63  1  0  0  0
 21 64  1  0  0  0
 22 23  1  0  0  0
 22 65  1  0  0  0
 22 66  1  0  0  0
 23 24  1  0  0  0
 23 67  1  0  0  0
 23 68  1  0  0  0
 24 25  1  0  0  0
 24 69  1  0  0  0
 24 70  1  0  0  0
 25 26  1  0  0  0
 25 71  1  0  0  0
 26 32  1  0  0  0
 26 27  2  0  0  0
 27 28  1  0  0  0
 27 72  1  0  0  0
 28 29  2  0  0  0
 28 33  1  0  0  0
 29 30  1  0  0  0
 29 73  1  0  0  0
 30 31  1  0  0  0
 30 32  2  0  0  0
 33 34  2  0  0  0
 33 35  1  0  0  0
 35 74  1  0  0  0
 36 75  1  0  0  0
M  CHG  1  10   1
M  END
> <s_m_source_file>
BACE_49.smi

> <i_m_source_file_index>
1

> <i_lp_mmshare_version>
42013

> <i_f3d_flags>
0

> <s_epik_input>
W0NIM11bQ0hdKFtDSDNdKWMxW2NIXVtjSF1bY0hdYyhbY0hdMSlbQ0gyXVtOSF1bQ0gyXVtDQEBIXShbT0hdKVtDQEBIXShbTkhdQyg9TyljKFtjSF1jMjMpW2NIXWMoQ2wpbjMpL1tDSF09QyhcW0NIM10pW0NIMl1bQ0gyXU9bQ0gyXVtDSDJdW0NIMl1bQ0gyXVtOSF0y

> <s_epik_cmdline>
J2VwaWtfcHl0aG9uJywgJy1waCcsICc3LjAnLCAnLXRuJywgJzgnLCAnLW1hJywgJzIwMCcsICctaW1hZScsICc8aW5maWxlLm1hZT4nLCAnLW9tYWUnLCAnPG91dGZpbGUubWFlPic=

> <r_lp_tautomer_probability>
1

> <r_epik_Ionization_Penalty>
  0.0202

> <r_epik_Ionization_Penalty_Charging>
  0.0202

> <r_epik_Ionization_Penalty_Neutral>
  0.0000

> <r_epik_State_Penalty>
  0.0162

> <r_epik_Charging_Adjusted_Penalty>
0.036331

> <i_epik_Tot_Q>
1

> <i_epik_Tot_abs_Q>
1

> <s_lp_Force_Field>
OPLS_2005

> <r_lp_Energy>
29.4908

> <b_lp_Chiralities_Consistent>
1

> <s_lp_Variant>
BACE_49.smi:1-1

> <chiral flag>
1

> <version>
0

> <s_i_glide_gridfile>
second_dock_grid_2

> <i_i_glide_lignum>
8

> <i_i_glide_rotatable_bonds>
7

> <r_i_docking_score>
-3.8996

> <r_i_glide_ligand_efficiency>
-0.108322

> <r_i_glide_ligand_efficiency_sa>
-0.357672

> <r_i_glide_ligand_efficiency_ln>
-0.850787

> <r_glide_XP_GScore>
-3.9158

> <r_i_glide_gscore>
-3.9158

> <r_i_glide_evdw>
-37.2532

> <r_i_glide_ecoul>
-16.0777

> <r_i_glide_energy>
-53.3309

> <r_i_glide_einternal>
11.8809

> <r_i_glide_emodel>
-75.5172

> <r_glide_XP_HBond>
-0.175851

> <i_i_glide_confnum>
1

> <i_i_glide_posenum>
8

> <r_i_glide_eff_state_penalty>
0.0162

> <i_glide_XP_PoseRank>
1

$$$$
