BACE_10.smi:1
                    3D
 Structure written by MMmdl.
 86 88  0  0  1  0            999 V2000
   19.6378   43.1447   -6.7731 C   0  0  0  0  0  0
   19.7324   44.2156   -7.6997 O   0  0  0  0  0  0
   18.5269   44.4373   -8.4211 C   0  0  0  0  0  0
   18.2325   43.3441   -9.4312 C   0  0  0  0  0  0
   16.9180   42.8615   -9.5950 C   0  0  0  0  0  0
   16.6444   41.8492  -10.5373 C   0  0  0  0  0  0
   17.7010   41.3198  -11.3100 C   0  0  0  0  0  0
   19.0210   41.7891  -11.1452 C   0  0  0  0  0  0
   19.2742   42.8254  -10.2236 C   0  0  0  0  0  0
   20.1062   41.2548  -12.0301 C   0  0  0  0  0  0
   19.9366   41.2422  -13.2401 O   0  0  0  0  0  0
   21.2513   40.7964  -11.5099 N   0  0  0  0  0  0
   21.6145   40.5040  -10.1240 C   0  0  1  0  0  0
   21.0935   39.0909   -9.7575 C   0  0  0  0  0  0
   19.8689   39.0981   -8.8182 C   0  0  2  0  0  0
   20.3120   39.3120   -7.3595 C   0  0  0  0  0  0
   19.0492   37.8058   -9.0083 C   0  0  0  0  0  0
   17.8051   37.6821   -8.1211 C   0  0  0  0  0  0
   16.9219   38.7422   -8.4345 O   0  0  0  0  0  0
   15.7485   38.7106   -7.6408 C   0  0  0  0  0  0
   14.7655   39.7820   -8.1102 C   0  0  0  0  0  0
   14.1986   39.5477   -9.5274 C   0  0  0  0  0  0
   15.1309   39.9648  -10.6773 C   0  0  0  0  0  0
   15.3251   41.4088  -10.6990 N   0  0  0  0  0  0
   23.1514   40.6193   -9.9918 C   0  0  2  0  0  0
   23.5179   40.5486   -8.6279 O   0  0  0  0  0  0
   23.7220   41.9561  -10.5100 C   0  0  0  0  0  0
   25.1963   41.9515  -10.4393 N   0  3  0  0  0  0
   25.8158   43.1835  -10.9614 C   0  0  0  0  0  0
   27.2953   43.2096  -10.6488 C   0  0  0  0  0  0
   28.2089   42.5352  -11.4841 C   0  0  0  0  0  0
   29.5999   42.5576  -11.2111 C   0  0  0  0  0  0
   30.0504   43.2536  -10.0652 C   0  0  0  0  0  0
   29.1428   43.9381   -9.2396 C   0  0  0  0  0  0
   27.7665   43.9126   -9.5232 C   0  0  0  0  0  0
   30.6107   41.8377  -12.1080 C   0  0  0  0  0  0
   31.8732   42.6781  -12.3819 C   0  0  0  0  0  0
   30.0312   41.3534  -13.4504 C   0  0  0  0  0  0
   21.1813   41.2419   -9.4551 H   0  0  0  0  0  0
   19.2195   39.9260   -9.0933 H   0  0  0  0  0  0
   23.5996   39.7832  -10.5294 H   0  0  0  0  0  0
   20.5826   43.0280   -6.2433 H   0  0  0  0  0  0
   19.4119   42.1987   -7.2637 H   0  0  0  0  0  0
   18.8608   43.3448   -6.0374 H   0  0  0  0  0  0
   17.6924   44.5700   -7.7302 H   0  0  0  0  0  0
   18.6294   45.3757   -8.9694 H   0  0  0  0  0  0
   16.1209   43.2696   -8.9910 H   0  0  0  0  0  0
   17.5012   40.5507  -12.0403 H   0  0  0  0  0  0
   20.2722   43.2254  -10.1157 H   0  0  0  0  0  0
   21.9275   40.5035  -12.2002 H   0  0  0  0  0  0
   20.8486   38.5521  -10.6746 H   0  0  0  0  0  0
   21.8830   38.4917   -9.3025 H   0  0  0  0  0  0
   20.8654   38.4537   -6.9777 H   0  0  0  0  0  0
   19.4575   39.4769   -6.7028 H   0  0  0  0  0  0
   20.9525   40.1877   -7.2617 H   0  0  0  0  0  0
   18.7307   37.7355  -10.0476 H   0  0  0  0  0  0
   19.6937   36.9504   -8.8402 H   0  0  0  0  0  0
   17.3158   36.7258   -8.3155 H   0  0  0  0  0  0
   18.0697   37.6913   -7.0614 H   0  0  0  0  0  0
   15.2631   37.7385   -7.7097 H   0  0  0  0  0  0
   16.0074   38.8683   -6.5914 H   0  0  0  0  0  0
   13.9400   39.7542   -7.3989 H   0  0  0  0  0  0
   15.2079   40.7735   -8.0139 H   0  0  0  0  0  0
   13.9359   38.4964   -9.6324 H   0  0  0  0  0  0
   13.2597   40.0908   -9.6392 H   0  0  0  0  0  0
   16.0711   39.4169  -10.6096 H   0  0  0  0  0  0
   14.6766   39.6788  -11.6250 H   0  0  0  0  0  0
   14.6655   41.8830  -10.0957 H   0  0  0  0  0  0
   23.6359   39.6317   -8.4089 H   0  0  0  0  0  0
   23.4353   42.1380  -11.5457 H   0  0  0  0  0  0
   23.3275   42.7872   -9.9252 H   0  0  0  0  0  0
   25.4497   41.8264   -9.4700 H   0  0  0  0  0  0
   25.6608   43.2541  -12.0389 H   0  0  0  0  0  0
   25.3392   44.0547  -10.5131 H   0  0  0  0  0  0
   27.8204   42.0048  -12.3396 H   0  0  0  0  0  0
   31.0979   43.2808   -9.8079 H   0  0  0  0  0  0
   29.5038   44.4771   -8.3750 H   0  0  0  0  0  0
   27.0796   44.4383   -8.8749 H   0  0  0  0  0  0
   30.9153   40.9503  -11.5499 H   0  0  0  0  0  0
   32.4419   42.8829  -11.4754 H   0  0  0  0  0  0
   31.6211   43.6326  -12.8465 H   0  0  0  0  0  0
   32.5534   42.1565  -13.0557 H   0  0  0  0  0  0
   29.2695   40.5874  -13.3065 H   0  0  0  0  0  0
   30.8057   40.8994  -14.0694 H   0  0  0  0  0  0
   29.5977   42.1725  -14.0261 H   0  0  0  0  0  0
   25.5433   41.1650  -10.9669 H   0  0  0  0  0  0
  1  2  1  0  0  0
  1 42  1  0  0  0
  1 43  1  0  0  0
  1 44  1  0  0  0
  2  3  1  0  0  0
  3  4  1  0  0  0
  3 45  1  0  0  0
  3 46  1  0  0  0
  4  9  1  0  0  0
  4  5  2  0  0  0
  5  6  1  0  0  0
  5 47  1  0  0  0
  6 24  1  0  0  0
  6  7  2  0  0  0
  7  8  1  0  0  0
  7 48  1  0  0  0
  8  9  2  0  0  0
  8 10  1  0  0  0
  9 49  1  0  0  0
 10 11  2  0  0  0
 10 12  1  0  0  0
 12 13  1  0  0  0
 12 50  1  0  0  0
 13 39  1  0  0  0
 13 14  1  0  0  0
 13 25  1  0  0  0
 14 15  1  0  0  0
 14 51  1  0  0  0
 14 52  1  0  0  0
 15 40  1  0  0  0
 15 16  1  0  0  0
 15 17  1  0  0  0
 16 53  1  0  0  0
 16 54  1  0  0  0
 16 55  1  0  0  0
 17 18  1  0  0  0
 17 56  1  0  0  0
 17 57  1  0  0  0
 18 19  1  0  0  0
 18 58  1  0  0  0
 18 59  1  0  0  0
 19 20  1  0  0  0
 20 21  1  0  0  0
 20 60  1  0  0  0
 20 61  1  0  0  0
 21 22  1  0  0  0
 21 62  1  0  0  0
 21 63  1  0  0  0
 22 23  1  0  0  0
 22 64  1  0  0  0
 22 65  1  0  0  0
 23 24  1  0  0  0
 23 66  1  0  0  0
 23 67  1  0  0  0
 24 68  1  0  0  0
 25 41  1  0  0  0
 25 26  1  0  0  0
 25 27  1  0  0  0
 26 69  1  0  0  0
 27 28  1  0  0  0
 27 70  1  0  0  0
 27 71  1  0  0  0
 28 29  1  0  0  0
 28 72  1  0  0  0
 28 86  1  0  0  0
 29 30  1  0  0  0
 29 73  1  0  0  0
 29 74  1  0  0  0
 30 35  1  0  0  0
 30 31  2  0  0  0
 31 32  1  0  0  0
 31 75  1  0  0  0
 32 33  2  0  0  0
 32 36  1  0  0  0
 33 34  1  0  0  0
 33 76  1  0  0  0
 34 35  2  0  0  0
 34 77  1  0  0  0
 35 78  1  0  0  0
 36 37  1  0  0  0
 36 38  1  0  0  0
 36 79  1  0  0  0
 37 80  1  0  0  0
 37 81  1  0  0  0
 37 82  1  0  0  0
 38 83  1  0  0  0
 38 84  1  0  0  0
 38 85  1  0  0  0
M  CHG  1  28   1
M  END
> <s_m_source_file>
BACE_10.smi

> <i_m_source_file_index>
1

> <i_lp_mmshare_version>
42013

> <i_f3d_flags>
0

> <s_epik_input>
W2NIXTFbY0hdW2NIXWMoW0NIXShbQ0gzXSlbQ0gzXSlbY0hdYzFbQ0gyXVtOSF1bQ0gyXVtDQEBIXShbT0hdKVtDQEBIXShbTkhdQyg9TyljKFtjSF0yKVtjSF1jKFtjSF1jMjMpW0NIMl1PW0NIM10pW0NIMl1bQ0BIXShbQ0gzXSlbQ0gyXVtDSDJdT1tDSDJdW0NIMl1bQ0gyXVtDSDJdW05IXTM=

> <s_epik_cmdline>
J2VwaWtfcHl0aG9uJywgJy1waCcsICc3LjAnLCAnLXRuJywgJzgnLCAnLW1hJywgJzIwMCcsICctaW1hZScsICc8aW5maWxlLm1hZT4nLCAnLW9tYWUnLCAnPG91dGZpbGUubWFlPic=

> <r_epik_Ionization_Penalty>
  0.0171

> <r_epik_Ionization_Penalty_Charging>
  0.0167

> <r_epik_Ionization_Penalty_Neutral>
  0.0004

> <r_epik_State_Penalty>
  0.0132

> <r_epik_Charging_Adjusted_Penalty>
0.0299522

> <i_epik_Tot_Q>
1

> <i_epik_Tot_abs_Q>
1

> <s_lp_Force_Field>
OPLS_2005

> <r_lp_Energy>
40.1732

> <b_lp_Chiralities_Consistent>
1

> <s_lp_Variant>
BACE_10.smi:1-1

> <chiral flag>
1

> <version>
0

> <s_i_glide_gridfile>
second_dock_grid_2

> <i_i_glide_lignum>
1

> <i_i_glide_rotatable_bonds>
9

> <r_i_docking_score>
-4.08542

> <r_i_glide_ligand_efficiency>
-0.107511

> <r_i_glide_ligand_efficiency_sa>
-0.36145

> <r_i_glide_ligand_efficiency_ln>
-0.880937

> <r_glide_XP_GScore>
-4.09862

> <r_i_glide_gscore>
-4.09862

> <r_i_glide_evdw>
-41.6868

> <r_i_glide_ecoul>
-13.6009

> <r_i_glide_energy>
-55.2877

> <r_i_glide_einternal>
4.10152

> <r_i_glide_emodel>
-75.9195

> <r_glide_XP_HBond>
-0.840644

> <i_i_glide_confnum>
1

> <i_i_glide_posenum>
11

> <r_i_glide_eff_state_penalty>
0.0132

> <i_glide_XP_PoseRank>
1

$$$$
BACE_10.smi:1
                    3D
 Structure written by MMmdl.
 85 87  0  0  1  0            999 V2000
   18.2924   47.5894   -6.2800 C   0  0  0  0  0  0
   19.1400   46.6437   -5.6450 O   0  0  0  0  0  0
   20.1339   46.1042   -6.5129 C   0  0  0  0  0  0
   19.6171   45.0495   -7.4815 C   0  0  0  0  0  0
   18.4595   44.3092   -7.1762 C   0  0  0  0  0  0
   18.0027   43.2780   -8.0187 C   0  0  0  0  0  0
   18.7151   43.0034   -9.2073 C   0  0  0  0  0  0
   19.8723   43.7415   -9.5301 C   0  0  0  0  0  0
   20.3201   44.7657   -8.6691 C   0  0  0  0  0  0
   20.5756   43.5029  -10.8295 C   0  0  0  0  0  0
   20.6797   44.4271  -11.6330 O   0  0  0  0  0  0
   21.0644   42.2764  -11.1001 N   0  0  0  0  0  0
   21.3724   41.1733  -10.1807 C   0  0  1  0  0  0
   20.6161   39.8987  -10.6514 C   0  0  0  0  0  0
   19.6504   39.2699   -9.6178 C   0  0  2  0  0  0
   20.4062   38.5776   -8.4690 C   0  0  0  0  0  0
   18.6673   38.3018  -10.3222 C   0  0  0  0  0  0
   17.4951   37.8218   -9.4473 C   0  0  0  0  0  0
   16.8160   38.9604   -8.9498 O   0  0  0  0  0  0
   15.6302   38.6640   -8.2336 C   0  0  0  0  0  0
   15.2816   39.8361   -7.3018 C   0  0  0  0  0  0
   14.8693   41.1342   -8.0269 C   0  0  0  0  0  0
   16.0278   41.9254   -8.6530 C   0  0  0  0  0  0
   16.8575   42.5640   -7.6401 N   0  0  0  0  0  0
   22.9174   40.9556  -10.1172 C   0  0  2  0  0  0
   23.2155   40.1505   -8.9935 O   0  0  0  0  0  0
   23.7662   42.2398   -9.9655 C   0  0  0  0  0  0
   23.9344   42.9503  -11.2389 N   0  0  0  0  0  0
   24.6148   44.2380  -11.1326 C   0  0  0  0  0  0
   26.0184   44.2062  -11.7029 C   0  0  0  0  0  0
   27.0058   43.4131  -11.0905 C   0  0  0  0  0  0
   28.3171   43.3762  -11.6088 C   0  0  0  0  0  0
   28.6342   44.1395  -12.7543 C   0  0  0  0  0  0
   27.6521   44.9448  -13.3605 C   0  0  0  0  0  0
   26.3438   44.9731  -12.8400 C   0  0  0  0  0  0
   29.3520   42.4903  -10.9356 C   0  0  0  0  0  0
   30.6336   43.2557  -10.5700 C   0  0  0  0  0  0
   29.6548   41.2488  -11.7865 C   0  0  0  0  0  0
   21.0388   41.4426   -9.1768 H   0  0  0  0  0  0
   19.0589   40.0778   -9.1871 H   0  0  0  0  0  0
   23.2508   40.4132  -11.0008 H   0  0  0  0  0  0
   17.5731   47.9731   -5.5592 H   0  0  0  0  0  0
   17.7360   47.1456   -7.1062 H   0  0  0  0  0  0
   18.8619   48.4363   -6.6610 H   0  0  0  0  0  0
   20.6463   46.9015   -7.0554 H   0  0  0  0  0  0
   20.8888   45.6277   -5.8879 H   0  0  0  0  0  0
   17.9146   44.5501   -6.2810 H   0  0  0  0  0  0
   18.3870   42.2311   -9.8857 H   0  0  0  0  0  0
   21.2046   45.3301   -8.9250 H   0  0  0  0  0  0
   21.5136   42.1987  -12.0018 H   0  0  0  0  0  0
   20.0451   40.1394  -11.5512 H   0  0  0  0  0  0
   21.3241   39.1353  -10.9777 H   0  0  0  0  0  0
   21.0485   37.7753   -8.8381 H   0  0  0  0  0  0
   19.7205   38.1495   -7.7375 H   0  0  0  0  0  0
   21.0261   39.2851   -7.9204 H   0  0  0  0  0  0
   18.2377   38.7991  -11.1917 H   0  0  0  0  0  0
   19.2128   37.4391  -10.7063 H   0  0  0  0  0  0
   16.8140   37.2105  -10.0395 H   0  0  0  0  0  0
   17.8470   37.1998   -8.6239 H   0  0  0  0  0  0
   14.8138   38.4604   -8.9288 H   0  0  0  0  0  0
   15.7658   37.7613   -7.6400 H   0  0  0  0  0  0
   14.4514   39.5244   -6.6658 H   0  0  0  0  0  0
   16.1107   40.0293   -6.6195 H   0  0  0  0  0  0
   14.1368   40.8949   -8.7999 H   0  0  0  0  0  0
   14.3687   41.7856   -7.3129 H   0  0  0  0  0  0
   16.6186   41.2762   -9.2916 H   0  0  0  0  0  0
   15.6209   42.7078   -9.2940 H   0  0  0  0  0  0
   16.4152   42.7621   -6.7456 H   0  0  0  0  0  0
   23.8781   39.5161   -9.2445 H   0  0  0  0  0  0
   23.3054   42.8868   -9.2192 H   0  0  0  0  0  0
   24.7495   41.9770   -9.5765 H   0  0  0  0  0  0
   24.4262   42.3460  -11.8934 H   0  0  0  0  0  0
   24.0374   44.9882  -11.6731 H   0  0  0  0  0  0
   24.6509   44.5831  -10.0983 H   0  0  0  0  0  0
   26.7563   42.8292  -10.2170 H   0  0  0  0  0  0
   29.6320   44.1113  -13.1701 H   0  0  0  0  0  0
   27.9003   45.5321  -14.2308 H   0  0  0  0  0  0
   25.5934   45.5859  -13.3166 H   0  0  0  0  0  0
   28.9193   42.1478   -9.9946 H   0  0  0  0  0  0
   30.4090   44.1173   -9.9433 H   0  0  0  0  0  0
   31.1623   43.6114  -11.4539 H   0  0  0  0  0  0
   31.3181   42.6182  -10.0130 H   0  0  0  0  0  0
   28.7395   40.7170  -12.0422 H   0  0  0  0  0  0
   30.2903   40.5501  -11.2429 H   0  0  0  0  0  0
   30.1558   41.5097  -12.7194 H   0  0  0  0  0  0
  1  2  1  0  0  0
  1 42  1  0  0  0
  1 43  1  0  0  0
  1 44  1  0  0  0
  2  3  1  0  0  0
  3  4  1  0  0  0
  3 45  1  0  0  0
  3 46  1  0  0  0
  4  9  1  0  0  0
  4  5  2  0  0  0
  5  6  1  0  0  0
  5 47  1  0  0  0
  6 24  1  0  0  0
  6  7  2  0  0  0
  7  8  1  0  0  0
  7 48  1  0  0  0
  8  9  2  0  0  0
  8 10  1  0  0  0
  9 49  1  0  0  0
 10 11  2  0  0  0
 10 12  1  0  0  0
 12 13  1  0  0  0
 12 50  1  0  0  0
 13 39  1  0  0  0
 13 14  1  0  0  0
 13 25  1  0  0  0
 14 15  1  0  0  0
 14 51  1  0  0  0
 14 52  1  0  0  0
 15 40  1  0  0  0
 15 16  1  0  0  0
 15 17  1  0  0  0
 16 53  1  0  0  0
 16 54  1  0  0  0
 16 55  1  0  0  0
 17 18  1  0  0  0
 17 56  1  0  0  0
 17 57  1  0  0  0
 18 19  1  0  0  0
 18 58  1  0  0  0
 18 59  1  0  0  0
 19 20  1  0  0  0
 20 21  1  0  0  0
 20 60  1  0  0  0
 20 61  1  0  0  0
 21 22  1  0  0  0
 21 62  1  0  0  0
 21 63  1  0  0  0
 22 23  1  0  0  0
 22 64  1  0  0  0
 22 65  1  0  0  0
 23 24  1  0  0  0
 23 66  1  0  0  0
 23 67  1  0  0  0
 24 68  1  0  0  0
 25 41  1  0  0  0
 25 26  1  0  0  0
 25 27  1  0  0  0
 26 69  1  0  0  0
 27 28  1  0  0  0
 27 70  1  0  0  0
 27 71  1  0  0  0
 28 29  1  0  0  0
 28 72  1  0  0  0
 29 30  1  0  0  0
 29 73  1  0  0  0
 29 74  1  0  0  0
 30 35  1  0  0  0
 30 31  2  0  0  0
 31 32  1  0  0  0
 31 75  1  0  0  0
 32 33  2  0  0  0
 32 36  1  0  0  0
 33 34  1  0  0  0
 33 76  1  0  0  0
 34 35  2  0  0  0
 34 77  1  0  0  0
 35 78  1  0  0  0
 36 37  1  0  0  0
 36 38  1  0  0  0
 36 79  1  0  0  0
 37 80  1  0  0  0
 37 81  1  0  0  0
 37 82  1  0  0  0
 38 83  1  0  0  0
 38 84  1  0  0  0
 38 85  1  0  0  0
M  END
> <s_m_source_file>
BACE_10.smi

> <i_m_source_file_index>
1

> <i_lp_mmshare_version>
42013

> <i_f3d_flags>
0

> <s_epik_input>
W2NIXTFbY0hdW2NIXWMoW0NIXShbQ0gzXSlbQ0gzXSlbY0hdYzFbQ0gyXVtOSF1bQ0gyXVtDQEBIXShbT0hdKVtDQEBIXShbTkhdQyg9TyljKFtjSF0yKVtjSF1jKFtjSF1jMjMpW0NIMl1PW0NIM10pW0NIMl1bQ0BIXShbQ0gzXSlbQ0gyXVtDSDJdT1tDSDJdW0NIMl1bQ0gyXVtDSDJdW05IXTM=

> <s_epik_cmdline>
J2VwaWtfcHl0aG9uJywgJy1waCcsICc3LjAnLCAnLXRuJywgJzgnLCAnLW1hJywgJzIwMCcsICctaW1hZScsICc8aW5maWxlLm1hZT4nLCAnLW9tYWUnLCAnPG91dGZpbGUubWFlPic=

> <r_epik_Ionization_Penalty>
  2.1223

> <r_epik_Ionization_Penalty_Charging>
  0.0000

> <r_epik_Ionization_Penalty_Neutral>
  2.1223

> <r_epik_State_Penalty>
  2.2595

> <r_epik_Charging_Adjusted_Penalty>
2.2595

> <i_epik_Tot_Q>
0

> <i_epik_Tot_abs_Q>
0

> <s_lp_Force_Field>
OPLS_2005

> <r_lp_Energy>
41.2261

> <b_lp_Chiralities_Consistent>
1

> <s_lp_Variant>
BACE_10.smi:1-2

> <chiral flag>
1

> <version>
0

> <s_i_glide_gridfile>
second_dock_grid_2

> <i_i_glide_lignum>
2

> <i_i_glide_rotatable_bonds>
9

> <r_i_docking_score>
-1.10455

> <r_i_glide_ligand_efficiency>
-0.0290672

> <r_i_glide_ligand_efficiency_sa>
-0.0977231

> <r_i_glide_ligand_efficiency_ln>
-0.238174

> <r_glide_XP_GScore>
-3.36405

> <r_i_glide_gscore>
-3.36405

> <r_i_glide_evdw>
-37.261

> <r_i_glide_ecoul>
-9.53406

> <r_i_glide_energy>
-46.795

> <r_i_glide_einternal>
2.36729

> <r_i_glide_emodel>
-65.7739

> <r_glide_XP_HBond>
-1.33

> <i_i_glide_confnum>
1

> <i_i_glide_posenum>
7

> <r_i_glide_eff_state_penalty>
2.2595

> <i_glide_XP_PoseRank>
1

$$$$
