BACE_117.smi:1
                    3D
 Structure written by MMmdl.
 91 94  0  0  1  0            999 V2000
   17.3419   46.7593  -11.9641 C   0  0  0  0  0  0
   17.1050   45.6333  -12.7929 O   0  0  0  0  0  0
   18.0609   44.6000  -12.6102 C   0  0  0  0  0  0
   17.9191   43.9341  -11.2490 C   0  0  0  0  0  0
   16.6414   43.7647  -10.6813 C   0  0  0  0  0  0
   16.5016   43.1532   -9.4161 C   0  0  0  0  0  0
   17.6499   42.7244   -8.7235 C   0  0  0  0  0  0
   18.9297   42.8567   -9.3026 C   0  0  0  0  0  0
   19.0625   43.4767  -10.5656 C   0  0  0  0  0  0
   20.1219   42.3199   -8.5730 C   0  0  0  0  0  0
   20.2217   42.4393   -7.3630 O   0  0  0  0  0  0
   20.9715   41.6167   -9.3299 N   0  0  0  0  0  0
   21.9965   40.7112   -8.8244 C   0  0  1  0  0  0
   21.5621   39.2323   -8.9376 C   0  0  0  0  0  0
   20.1742   38.9546   -8.3732 C   0  0  0  0  0  0
   19.0650   38.8213   -9.2373 C   0  0  0  0  0  0
   17.7643   38.6221   -8.7299 C   0  0  0  0  0  0
   17.5881   38.5428   -7.3256 C   0  0  0  0  0  0
   18.6931   38.6588   -6.4601 C   0  0  0  0  0  0
   19.9840   38.8636   -6.9801 C   0  0  0  0  0  0
   16.7469   38.5169   -9.6569 O   0  0  0  0  0  0
   15.3908   38.4546   -9.2160 C   0  0  0  0  0  0
   14.8595   39.8478   -8.8324 C   0  0  0  0  0  0
   14.7339   40.7905  -10.0440 C   0  0  0  0  0  0
   14.2766   42.2167   -9.6771 C   0  0  0  0  0  0
   15.2442   42.9269   -8.8439 N   0  0  0  0  0  0
   23.2776   40.9279   -9.6246 C   0  0  2  0  0  0
   24.4003   40.5665   -8.8407 O   0  0  0  0  0  0
   23.4708   42.3913  -10.0801 C   0  0  0  0  0  0
   24.6296   42.5165  -10.9770 N   0  0  0  0  0  0
   25.0201   43.8637  -11.4554 C   0  0  0  0  0  0
   23.9935   44.4133  -12.4749 C   0  0  0  0  0  0
   25.1088   44.8410  -10.2571 C   0  0  0  0  0  0
   26.3734   43.7574  -12.1513 C   0  0  0  0  0  0
   27.4075   42.7874  -11.9826 C   0  0  0  0  0  0
   28.3950   43.1895  -12.8382 C   0  0  0  0  0  0
   29.7419   42.6218  -13.1798 C   0  0  0  0  0  0
   30.9928   43.4209  -12.7039 C   0  0  0  0  0  0
   31.7253   43.9725  -13.9466 C   0  0  0  0  0  0
   30.5648   44.6168  -11.8248 C   0  0  0  0  0  0
   31.9805   42.5361  -11.9086 C   0  0  0  0  0  0
   28.0118   44.3160  -13.4897 O   0  0  0  0  0  0
   26.7358   44.6742  -13.0425 N   0  0  0  0  0  0
   22.2405   40.9450   -7.7881 H   0  0  0  0  0  0
   23.2488   40.2838  -10.5055 H   0  0  0  0  0  0
   16.5793   47.5156  -12.1504 H   0  0  0  0  0  0
   18.3144   47.2080  -12.1709 H   0  0  0  0  0  0
   17.2961   46.4925  -10.9074 H   0  0  0  0  0  0
   19.0676   45.0065  -12.7213 H   0  0  0  0  0  0
   17.9369   43.8358  -13.3793 H   0  0  0  0  0  0
   15.7762   44.1122  -11.2264 H   0  0  0  0  0  0
   17.5560   42.2422   -7.7617 H   0  0  0  0  0  0
   20.0359   43.6041  -11.0159 H   0  0  0  0  0  0
   20.7724   41.5746  -10.3192 H   0  0  0  0  0  0
   21.5821   38.9272   -9.9838 H   0  0  0  0  0  0
   22.2884   38.5969   -8.4308 H   0  0  0  0  0  0
   19.2054   38.8930  -10.3057 H   0  0  0  0  0  0
   16.6160   38.3954   -6.8789 H   0  0  0  0  0  0
   18.5473   38.5973   -5.3917 H   0  0  0  0  0  0
   20.8217   38.9656   -6.3060 H   0  0  0  0  0  0
   14.7942   38.0592  -10.0381 H   0  0  0  0  0  0
   15.2618   37.7363   -8.4063 H   0  0  0  0  0  0
   13.8982   39.7497   -8.3282 H   0  0  0  0  0  0
   15.5360   40.2967   -8.1052 H   0  0  0  0  0  0
   15.6784   40.8247  -10.5870 H   0  0  0  0  0  0
   14.0136   40.3654  -10.7429 H   0  0  0  0  0  0
   14.1158   42.7925  -10.5886 H   0  0  0  0  0  0
   13.3086   42.1784   -9.1776 H   0  0  0  0  0  0
   15.2715   42.5969   -7.8897 H   0  0  0  0  0  0
   24.6239   39.6687   -9.0331 H   0  0  0  0  0  0
   22.5737   42.7122  -10.6085 H   0  0  0  0  0  0
   23.5659   43.0372   -9.2078 H   0  0  0  0  0  0
   24.4729   41.9192  -11.7826 H   0  0  0  0  0  0
   23.0197   44.6059  -12.0240 H   0  0  0  0  0  0
   23.8398   43.7245  -13.3069 H   0  0  0  0  0  0
   24.3300   45.3605  -12.8989 H   0  0  0  0  0  0
   24.1508   44.9745   -9.7554 H   0  0  0  0  0  0
   25.4212   45.8374  -10.5718 H   0  0  0  0  0  0
   25.8223   44.4929   -9.5087 H   0  0  0  0  0  0
   27.4307   41.9230  -11.3356 H   0  0  0  0  0  0
   29.7811   41.6224  -12.7440 H   0  0  0  0  0  0
   29.7956   42.4535  -14.2563 H   0  0  0  0  0  0
   32.0873   43.1704  -14.5912 H   0  0  0  0  0  0
   32.5905   44.5761  -13.6693 H   0  0  0  0  0  0
   31.0708   44.6037  -14.5492 H   0  0  0  0  0  0
   30.0678   44.2936  -10.9102 H   0  0  0  0  0  0
   29.8780   45.2799  -12.3526 H   0  0  0  0  0  0
   31.4238   45.2178  -11.5236 H   0  0  0  0  0  0
   31.5571   42.1866  -10.9666 H   0  0  0  0  0  0
   32.8902   43.0834  -11.6581 H   0  0  0  0  0  0
   32.2811   41.6583  -12.4821 H   0  0  0  0  0  0
  1  2  1  0  0  0
  1 46  1  0  0  0
  1 47  1  0  0  0
  1 48  1  0  0  0
  2  3  1  0  0  0
  3  4  1  0  0  0
  3 49  1  0  0  0
  3 50  1  0  0  0
  4  9  1  0  0  0
  4  5  2  0  0  0
  5  6  1  0  0  0
  5 51  1  0  0  0
  6 26  1  0  0  0
  6  7  2  0  0  0
  7  8  1  0  0  0
  7 52  1  0  0  0
  8  9  2  0  0  0
  8 10  1  0  0  0
  9 53  1  0  0  0
 10 11  2  0  0  0
 10 12  1  0  0  0
 12 13  1  0  0  0
 12 54  1  0  0  0
 13 44  1  0  0  0
 13 14  1  0  0  0
 13 27  1  0  0  0
 14 15  1  0  0  0
 14 55  1  0  0  0
 14 56  1  0  0  0
 15 20  1  0  0  0
 15 16  2  0  0  0
 16 17  1  0  0  0
 16 57  1  0  0  0
 17 18  2  0  0  0
 17 21  1  0  0  0
 18 19  1  0  0  0
 18 58  1  0  0  0
 19 20  2  0  0  0
 19 59  1  0  0  0
 20 60  1  0  0  0
 21 22  1  0  0  0
 22 23  1  0  0  0
 22 61  1  0  0  0
 22 62  1  0  0  0
 23 24  1  0  0  0
 23 63  1  0  0  0
 23 64  1  0  0  0
 24 25  1  0  0  0
 24 65  1  0  0  0
 24 66  1  0  0  0
 25 26  1  0  0  0
 25 67  1  0  0  0
 25 68  1  0  0  0
 26 69  1  0  0  0
 27 45  1  0  0  0
 27 28  1  0  0  0
 27 29  1  0  0  0
 28 70  1  0  0  0
 29 30  1  0  0  0
 29 71  1  0  0  0
 29 72  1  0  0  0
 30 31  1  0  0  0
 30 73  1  0  0  0
 31 32  1  0  0  0
 31 33  1  0  0  0
 31 34  1  0  0  0
 32 74  1  0  0  0
 32 75  1  0  0  0
 32 76  1  0  0  0
 33 77  1  0  0  0
 33 78  1  0  0  0
 33 79  1  0  0  0
 34 43  2  0  0  0
 34 35  1  0  0  0
 35 36  2  0  0  0
 35 80  1  0  0  0
 36 37  1  0  0  0
 36 42  1  0  0  0
 37 38  1  0  0  0
 37 81  1  0  0  0
 37 82  1  0  0  0
 38 39  1  0  0  0
 38 40  1  0  0  0
 38 41  1  0  0  0
 39 83  1  0  0  0
 39 84  1  0  0  0
 39 85  1  0  0  0
 40 86  1  0  0  0
 40 87  1  0  0  0
 40 88  1  0  0  0
 41 89  1  0  0  0
 41 90  1  0  0  0
 41 91  1  0  0  0
 42 43  1  0  0  0
M  END
> <s_m_source_file>
BACE_117.smi

> <i_m_source_file_index>
1

> <i_lp_mmshare_version>
42013

> <i_f3d_flags>
0

> <s_epik_input>
W0NIM11DKFtDSDNdKShbQ0gzXSlbQ0gyXWMob24xKVtjSF1jMUMoW0NIM10pKFtDSDNdKVtOSF1bQ0gyXVtDQEBIXShbT0hdKVtDQEBIXShbTkhdQyg9TyljKFtjSF0yKVtjSF1jKFtjSF1jMjMpW0NIMl1PW0NIM10pW0NIMl1jNFtjSF1jKFtjSF1bY0hdW2NIXTQpT1tDSDJdW0NIMl1bQ0gyXVtDSDJdW05IXTM=

> <s_epik_cmdline>
J2VwaWtfcHl0aG9uJywgJy1waCcsICc3LjAnLCAnLXRuJywgJzgnLCAnLW1hJywgJzIwMCcsICctaW1hZScsICc8aW5maWxlLm1hZT4nLCAnLW9tYWUnLCAnPG91dGZpbGUubWFlPic=

> <r_lp_tautomer_probability>
1

> <r_epik_Ionization_Penalty>
  0.6633

> <r_epik_Ionization_Penalty_Charging>
  0.0000

> <r_epik_Ionization_Penalty_Neutral>
  0.6633

> <r_epik_State_Penalty>
  0.6824

> <r_epik_Charging_Adjusted_Penalty>
0.682449

> <i_epik_Tot_Q>
0

> <i_epik_Tot_abs_Q>
0

> <s_lp_Force_Field>
OPLS_2005

> <r_lp_Energy>
38.8696

> <b_lp_Chiralities_Consistent>
1

> <s_lp_Variant>
BACE_117.smi:1-2

> <chiral flag>
1

> <version>
0

> <s_i_glide_gridfile>
second_dock_grid_2

> <i_i_glide_lignum>
53

> <i_i_glide_rotatable_bonds>
10

> <r_i_docking_score>
-2.92343

> <r_i_glide_ligand_efficiency>
-0.0679867

> <r_i_glide_ligand_efficiency_sa>
-0.238185

> <r_i_glide_ligand_efficiency_ln>
-0.614011

> <r_glide_XP_GScore>
-3.60583

> <r_i_glide_gscore>
-3.60583

> <r_i_glide_evdw>
-38.8662

> <r_i_glide_ecoul>
-9.36593

> <r_i_glide_energy>
-48.2321

> <r_i_glide_einternal>
9.59745

> <r_i_glide_emodel>
-69.0325

> <r_glide_XP_HBond>
-1.33

> <i_i_glide_confnum>
1

> <i_i_glide_posenum>
1

> <r_i_glide_eff_state_penalty>
0.6824

> <i_glide_XP_PoseRank>
1

$$$$
BACE_122.smi:1
                    3D
 Structure written by MMmdl.
 82 85  0  0  1  0            999 V2000
   14.1648   43.6457   -9.2860 C   0  0  0  0  0  0
   15.2995   43.0115   -8.4611 C   0  0  0  0  0  0
   16.3352   44.0645   -8.0400 C   0  0  0  0  0  0
   15.9794   41.8297   -9.1369 C   0  0  0  0  0  0
   16.5786   40.8258   -8.3408 C   0  0  0  0  0  0
   17.2003   39.6922   -8.9257 C   0  0  0  0  0  0
   17.2144   39.6075  -10.3387 C   0  0  0  0  0  0
   16.6407   40.6149  -11.1319 C   0  0  0  0  0  0
   16.0247   41.7227  -10.5383 C   0  0  0  0  0  0
   17.8582   38.5798   -8.0689 C   0  0  0  0  0  0
   17.2829   38.5584   -6.6430 C   0  0  0  0  0  0
   17.6155   37.1822   -8.6849 C   0  0  0  0  0  0
   19.3241   38.7837   -7.9032 N   0  3  0  0  0  0
   20.0668   39.4066   -9.0188 C   0  0  0  0  0  0
   21.5847   39.4764   -8.7439 C   0  0  1  0  0  0
   22.0598   38.1502   -8.8403 O   0  0  0  0  0  0
   22.4273   40.3770   -9.7021 C   0  0  2  0  0  0
   23.6625   40.9452   -8.9566 C   0  0  0  0  0  0
   24.5460   41.8646   -9.7846 C   0  0  0  0  0  0
   24.2491   43.2416   -9.8866 C   0  0  0  0  0  0
   25.0447   44.0894  -10.6815 C   0  0  0  0  0  0
   26.1682   43.5593  -11.3540 C   0  0  0  0  0  0
   26.4897   42.1940  -11.2274 C   0  0  0  0  0  0
   25.6840   41.3499  -10.4400 C   0  0  0  0  0  0
   24.7316   45.4258  -10.7437 O   0  0  0  0  0  0
   24.4571   45.9424  -12.0426 C   0  0  0  0  0  0
   22.9350   46.0512  -12.2174 C   0  0  0  0  0  0
   22.3143   47.1429  -11.3247 C   0  0  0  0  0  0
   20.7747   47.1153  -11.2754 C   0  0  0  0  0  0
   20.2898   46.0630  -10.3906 N   0  0  0  0  0  0
   19.7498   44.9541  -11.0391 C   0  0  0  0  0  0
   18.5865   45.0450  -11.8286 C   0  0  0  0  0  0
   18.1266   43.8823  -12.4723 C   0  0  0  0  0  0
   18.8600   42.6893  -12.3322 C   0  0  0  0  0  0
   20.0158   42.6944  -11.5174 C   0  0  0  0  0  0
   20.4312   43.8073  -10.8670 N   0  0  0  0  0  0
   20.8468   41.4516  -11.3493 C   0  0  0  0  0  0
   20.7180   40.4766  -12.0908 O   0  0  0  0  0  0
   21.6427   41.4739  -10.2675 N   0  0  0  0  0  0
   21.7294   39.8253   -7.7198 H   0  0  0  0  0  0
   22.7833   39.7798  -10.5441 H   0  0  0  0  0  0
   13.4407   42.8943   -9.6055 H   0  0  0  0  0  0
   14.5417   44.1567  -10.1717 H   0  0  0  0  0  0
   13.6261   44.3817   -8.6889 H   0  0  0  0  0  0
   14.8252   42.5939   -7.5766 H   0  0  0  0  0  0
   17.0672   43.6411   -7.3517 H   0  0  0  0  0  0
   15.8603   44.9079   -7.5401 H   0  0  0  0  0  0
   16.8759   44.4500   -8.9049 H   0  0  0  0  0  0
   16.5406   40.9476   -7.2685 H   0  0  0  0  0  0
   17.6829   38.7797  -10.8452 H   0  0  0  0  0  0
   16.6813   40.5502  -12.2060 H   0  0  0  0  0  0
   15.5974   42.4821  -11.1723 H   0  0  0  0  0  0
   16.1917   38.5485   -6.6377 H   0  0  0  0  0  0
   17.5862   39.4219   -6.0647 H   0  0  0  0  0  0
   17.6602   37.7117   -6.0736 H   0  0  0  0  0  0
   16.5496   36.9968   -8.8202 H   0  0  0  0  0  0
   17.9919   36.3922   -8.0364 H   0  0  0  0  0  0
   18.1047   37.0480   -9.6494 H   0  0  0  0  0  0
   19.4406   39.3869   -7.1015 H   0  0  0  0  0  0
   19.8754   38.8777   -9.9535 H   0  0  0  0  0  0
   19.6656   40.4137   -9.1084 H   0  0  0  0  0  0
   22.9884   38.1636   -9.0530 H   0  0  0  0  0  0
   23.3378   41.5019   -8.0764 H   0  0  0  0  0  0
   24.2744   40.1285   -8.5736 H   0  0  0  0  0  0
   23.3954   43.6532   -9.3683 H   0  0  0  0  0  0
   26.7980   44.2014  -11.9521 H   0  0  0  0  0  0
   27.3560   41.7920  -11.7326 H   0  0  0  0  0  0
   25.9411   40.3031  -10.3563 H   0  0  0  0  0  0
   24.9231   46.9226  -12.1419 H   0  0  0  0  0  0
   24.8738   45.3218  -12.8366 H   0  0  0  0  0  0
   22.7018   46.2742  -13.2595 H   0  0  0  0  0  0
   22.4948   45.0757  -12.0123 H   0  0  0  0  0  0
   22.7154   47.0744  -10.3114 H   0  0  0  0  0  0
   22.6370   48.1140  -11.7048 H   0  0  0  0  0  0
   20.4109   48.0652  -10.8817 H   0  0  0  0  0  0
   20.3676   47.0233  -12.2832 H   0  0  0  0  0  0
   21.0046   45.7873   -9.7329 H   0  0  0  0  0  0
   18.0589   45.9807  -11.9332 H   0  0  0  0  0  0
   17.2393   43.9126  -13.0867 H   0  0  0  0  0  0
   18.5507   41.7890  -12.8397 H   0  0  0  0  0  0
   21.6560   42.3571   -9.7757 H   0  0  0  0  0  0
   19.7522   37.8935   -7.6907 H   0  0  0  0  0  0
  1  2  1  0  0  0
  1 42  1  0  0  0
  1 43  1  0  0  0
  1 44  1  0  0  0
  2  3  1  0  0  0
  2  4  1  0  0  0
  2 45  1  0  0  0
  3 46  1  0  0  0
  3 47  1  0  0  0
  3 48  1  0  0  0
  4  9  1  0  0  0
  4  5  2  0  0  0
  5  6  1  0  0  0
  5 49  1  0  0  0
  6  7  2  0  0  0
  6 10  1  0  0  0
  7  8  1  0  0  0
  7 50  1  0  0  0
  8  9  2  0  0  0
  8 51  1  0  0  0
  9 52  1  0  0  0
 10 11  1  0  0  0
 10 12  1  0  0  0
 10 13  1  0  0  0
 11 53  1  0  0  0
 11 54  1  0  0  0
 11 55  1  0  0  0
 12 56  1  0  0  0
 12 57  1  0  0  0
 12 58  1  0  0  0
 13 14  1  0  0  0
 13 59  1  0  0  0
 13 82  1  0  0  0
 14 15  1  0  0  0
 14 60  1  0  0  0
 14 61  1  0  0  0
 15 40  1  0  0  0
 15 16  1  0  0  0
 15 17  1  0  0  0
 16 62  1  0  0  0
 17 41  1  0  0  0
 17 39  1  0  0  0
 17 18  1  0  0  0
 18 19  1  0  0  0
 18 63  1  0  0  0
 18 64  1  0  0  0
 19 24  1  0  0  0
 19 20  2  0  0  0
 20 21  1  0  0  0
 20 65  1  0  0  0
 21 22  2  0  0  0
 21 25  1  0  0  0
 22 23  1  0  0  0
 22 66  1  0  0  0
 23 24  2  0  0  0
 23 67  1  0  0  0
 24 68  1  0  0  0
 25 26  1  0  0  0
 26 27  1  0  0  0
 26 69  1  0  0  0
 26 70  1  0  0  0
 27 28  1  0  0  0
 27 71  1  0  0  0
 27 72  1  0  0  0
 28 29  1  0  0  0
 28 73  1  0  0  0
 28 74  1  0  0  0
 29 30  1  0  0  0
 29 75  1  0  0  0
 29 76  1  0  0  0
 30 31  1  0  0  0
 30 77  1  0  0  0
 31 36  1  0  0  0
 31 32  2  0  0  0
 32 33  1  0  0  0
 32 78  1  0  0  0
 33 34  2  0  0  0
 33 79  1  0  0  0
 34 35  1  0  0  0
 34 80  1  0  0  0
 35 36  2  0  0  0
 35 37  1  0  0  0
 37 38  2  0  0  0
 37 39  1  0  0  0
 39 81  1  0  0  0
M  CHG  1  13   1
M  END
> <s_m_source_file>
BACE_122.smi

> <i_m_source_file_index>
1

> <i_lp_mmshare_version>
42013

> <i_f3d_flags>
0

> <s_epik_input>
W0NIM11bQ0hdKFtDSDNdKWMxW2NIXWMoW2NIXVtjSF1bY0hdMSlDKFtDSDNdKShbQ0gzXSlbTkhdW0NIMl1bQ0BASF0oW09IXSlbQ0BIXShbQ0gyXTIpW05IXUMoPU8pYyhuMylbY0hdW2NIXVtjSF1jM1tOSF1bQ0gyXVtDSDJdW0NIMl1bQ0gyXU9jKFtjSF1jMjQpW2NIXVtjSF1bY0hdNA==

> <s_epik_cmdline>
J2VwaWtfcHl0aG9uJywgJy1waCcsICc3LjAnLCAnLXRuJywgJzgnLCAnLW1hJywgJzIwMCcsICctaW1hZScsICc8aW5maWxlLm1hZT4nLCAnLW9tYWUnLCAnPG91dGZpbGUubWFlPic=

> <r_lp_tautomer_probability>
1

> <r_epik_Ionization_Penalty>
  0.0323

> <r_epik_Ionization_Penalty_Charging>
  0.0201

> <r_epik_Ionization_Penalty_Neutral>
  0.0123

> <r_epik_State_Penalty>
  0.0253

> <r_epik_Charging_Adjusted_Penalty>
0.0453276

> <i_epik_Tot_Q>
1

> <i_epik_Tot_abs_Q>
1

> <s_lp_Force_Field>
OPLS_2005

> <r_lp_Energy>
40.1793

> <b_lp_Chiralities_Consistent>
1

> <s_lp_Variant>
BACE_122.smi:1-1

> <chiral flag>
1

> <version>
0

> <s_i_glide_gridfile>
second_dock_grid_2

> <i_i_glide_lignum>
54

> <i_i_glide_rotatable_bonds>
7

> <r_i_docking_score>
-4.02734

> <r_i_glide_ligand_efficiency>
-0.103265

> <r_i_glide_ligand_efficiency_sa>
-0.350194

> <r_i_glide_ligand_efficiency_ln>
-0.863576

> <r_glide_XP_GScore>
-4.05264

> <r_i_glide_gscore>
-4.05264

> <r_i_glide_evdw>
-39.0935

> <r_i_glide_ecoul>
-6.36634

> <r_i_glide_energy>
-45.4599

> <r_i_glide_einternal>
2.47056

> <r_i_glide_emodel>
-64.7386

> <r_glide_XP_HBond>
-0.697907

> <i_i_glide_confnum>
1

> <i_i_glide_posenum>
4

> <r_i_glide_eff_state_penalty>
0.0253

> <i_glide_XP_PoseRank>
1

$$$$
