BACE_138.smi:1
                    3D
 Structure written by MMmdl.
 72 75  0  0  1  0            999 V2000
   20.8831   40.0296  -12.1757 C   0  0  0  0  0  0
   19.9369   40.6359  -11.1150 C   0  0  0  0  0  0
   18.5117   40.1946  -11.4805 C   0  0  0  0  0  0
   20.1599   40.0388   -9.7743 N   0  3  0  0  0  0
   21.5061   40.0688   -9.1609 C   0  0  0  0  0  0
   21.5265   39.2811   -7.8327 C   0  0  1  0  0  0
   22.8356   39.3628   -7.3131 O   0  0  0  0  0  0
   20.5428   39.7196   -6.7008 C   0  0  2  0  0  0
   19.3323   38.7671   -6.5278 C   0  0  0  0  0  0
   18.2439   38.7789   -7.5981 C   0  0  0  0  0  0
   18.1379   37.6934   -8.4885 C   0  0  0  0  0  0
   17.0565   37.6047   -9.3830 C   0  0  0  0  0  0
   16.0869   38.6222   -9.4172 C   0  0  0  0  0  0
   16.2019   39.7361   -8.5655 C   0  0  0  0  0  0
   17.2692   39.7984   -7.6412 C   0  0  0  0  0  0
   15.2484   40.7162   -8.6567 O   0  0  0  0  0  0
   15.7266   42.0516   -8.6781 C   0  0  0  0  0  0
   14.5221   42.9853   -8.8355 C   0  0  0  0  0  0
   14.8620   44.4080   -9.3089 C   0  0  0  0  0  0
   15.8756   45.1764   -8.4405 C   0  0  0  0  0  0
   17.1612   44.6921   -8.7821 O   0  0  0  0  0  0
   18.1117   44.6659   -7.7977 C   0  0  0  0  0  0
   18.3179   45.6851   -6.8432 C   0  0  0  0  0  0
   19.2606   45.6210   -5.8764 N   0  0  0  0  0  0
   20.0576   44.5238   -5.8348 C   0  0  0  0  0  0
   19.9191   43.4432   -6.7327 C   0  0  0  0  0  0
   18.9480   43.5436   -7.7438 C   0  0  0  0  0  0
   20.7564   42.2089   -6.6245 C   0  0  0  0  0  0
   21.9547   42.2419   -6.3585 O   0  0  0  0  0  0
   20.0604   41.0844   -6.8403 N   0  0  0  0  0  0
   20.0718   42.1753  -11.1101 C   0  0  0  0  0  0
   21.3427   42.7820  -10.9449 C   0  0  0  0  0  0
   21.4909   44.1840  -10.9864 C   0  0  0  0  0  0
   20.3740   45.0058  -11.2331 C   0  0  0  0  0  0
   19.1111   44.4227  -11.4291 C   0  0  0  0  0  0
   17.6159   45.5142  -11.8764 Br  0  0  0  0  0  0
   18.9582   43.0270  -11.3450 C   0  0  0  0  0  0
   21.3676   38.2221   -8.0561 H   0  0  0  0  0  0
   21.0748   39.6636   -5.7459 H   0  0  0  0  0  0
   20.6471   40.4090  -13.1702 H   0  0  0  0  0  0
   20.7909   38.9481  -12.2181 H   0  0  0  0  0  0
   21.9340   40.2596  -11.9988 H   0  0  0  0  0  0
   18.2011   40.5944  -12.4414 H   0  0  0  0  0  0
   17.7816   40.5247  -10.7387 H   0  0  0  0  0  0
   18.4341   39.1080  -11.5482 H   0  0  0  0  0  0
   19.5169   40.4773   -9.1290 H   0  0  0  0  0  0
   22.2328   39.6234   -9.8394 H   0  0  0  0  0  0
   21.8260   41.0937   -8.9897 H   0  0  0  0  0  0
   22.9752   40.2437   -6.9863 H   0  0  0  0  0  0
   19.7072   37.7501   -6.4396 H   0  0  0  0  0  0
   18.8412   38.9789   -5.5756 H   0  0  0  0  0  0
   18.8601   36.8956   -8.4489 H   0  0  0  0  0  0
   16.9669   36.7537  -10.0405 H   0  0  0  0  0  0
   15.2548   38.5535  -10.1020 H   0  0  0  0  0  0
   17.3074   40.5962   -6.9175 H   0  0  0  0  0  0
   16.2622   42.3036   -7.7646 H   0  0  0  0  0  0
   16.4101   42.1687   -9.5178 H   0  0  0  0  0  0
   13.8318   42.5483   -9.5588 H   0  0  0  0  0  0
   13.9830   43.0249   -7.8896 H   0  0  0  0  0  0
   15.2191   44.3779  -10.3397 H   0  0  0  0  0  0
   13.9200   44.9497   -9.3410 H   0  0  0  0  0  0
   15.8371   46.2442   -8.6585 H   0  0  0  0  0  0
   15.6469   45.0480   -7.3806 H   0  0  0  0  0  0
   17.7064   46.5757   -6.8476 H   0  0  0  0  0  0
   20.7893   44.4973   -5.0420 H   0  0  0  0  0  0
   18.8087   42.7495   -8.4633 H   0  0  0  0  0  0
   19.0574   41.1882   -6.8972 H   0  0  0  0  0  0
   22.2296   42.1854  -10.8037 H   0  0  0  0  0  0
   22.4679   44.6283  -10.8566 H   0  0  0  0  0  0
   20.4924   46.0772  -11.2944 H   0  0  0  0  0  0
   17.9623   42.6402  -11.4991 H   0  0  0  0  0  0
   19.8897   39.0680   -9.8402 H   0  0  0  0  0  0
  1  2  1  0  0  0
  1 40  1  0  0  0
  1 41  1  0  0  0
  1 42  1  0  0  0
  2  3  1  0  0  0
  2  4  1  0  0  0
  2 31  1  0  0  0
  3 43  1  0  0  0
  3 44  1  0  0  0
  3 45  1  0  0  0
  4  5  1  0  0  0
  4 46  1  0  0  0
  4 72  1  0  0  0
  5  6  1  0  0  0
  5 47  1  0  0  0
  5 48  1  0  0  0
  6 38  1  0  0  0
  6  7  1  0  0  0
  6  8  1  0  0  0
  7 49  1  0  0  0
  8 39  1  0  0  0
  8 30  1  0  0  0
  8  9  1  0  0  0
  9 10  1  0  0  0
  9 50  1  0  0  0
  9 51  1  0  0  0
 10 15  1  0  0  0
 10 11  2  0  0  0
 11 12  1  0  0  0
 11 52  1  0  0  0
 12 13  2  0  0  0
 12 53  1  0  0  0
 13 14  1  0  0  0
 13 54  1  0  0  0
 14 15  2  0  0  0
 14 16  1  0  0  0
 15 55  1  0  0  0
 16 17  1  0  0  0
 17 18  1  0  0  0
 17 56  1  0  0  0
 17 57  1  0  0  0
 18 19  1  0  0  0
 18 58  1  0  0  0
 18 59  1  0  0  0
 19 20  1  0  0  0
 19 60  1  0  0  0
 19 61  1  0  0  0
 20 21  1  0  0  0
 20 62  1  0  0  0
 20 63  1  0  0  0
 21 22  1  0  0  0
 22 27  1  0  0  0
 22 23  2  0  0  0
 23 24  1  0  0  0
 23 64  1  0  0  0
 24 25  2  0  0  0
 25 26  1  0  0  0
 25 65  1  0  0  0
 26 27  2  0  0  0
 26 28  1  0  0  0
 27 66  1  0  0  0
 28 29  2  0  0  0
 28 30  1  0  0  0
 30 67  1  0  0  0
 31 37  1  0  0  0
 31 32  2  0  0  0
 32 33  1  0  0  0
 32 68  1  0  0  0
 33 34  2  0  0  0
 33 69  1  0  0  0
 34 35  1  0  0  0
 34 70  1  0  0  0
 35 36  1  0  0  0
 35 37  2  0  0  0
 37 71  1  0  0  0
M  CHG  1   4   1
M  END
> <s_m_source_file>
BACE_138.smi

> <i_m_source_file_index>
1

> <i_lp_mmshare_version>
42013

> <i_f3d_flags>
0

> <s_epik_input>
QnJjKFtjSF0xKVtjSF1bY0hdW2NIXWMxQyhbQ0gzXSkoW0NIM10pW05IXVtDSDJdW0NAQEhdKFtPSF0pW0NASF0oW0NIMl0yKVtOSF1DKD1PKWMoW2NIXTMpW2NIXW5bY0hdYzNPW0NIMl1bQ0gyXVtDSDJdW0NIMl1PYyhbY0hdNClbY0hdW2NIXVtjSF1jMjQ=

> <s_epik_cmdline>
J2VwaWtfcHl0aG9uJywgJy1waCcsICc3LjAnLCAnLXRuJywgJzgnLCAnLW1hJywgJzIwMCcsICctaW1hZScsICc8aW5maWxlLm1hZT4nLCAnLW9tYWUnLCAnPG91dGZpbGUubWFlPic=

> <r_lp_tautomer_probability>
1

> <r_epik_Ionization_Penalty>
  0.0249

> <r_epik_Ionization_Penalty_Charging>
  0.0247

> <r_epik_Ionization_Penalty_Neutral>
  0.0002

> <r_epik_State_Penalty>
  0.0201

> <r_epik_Charging_Adjusted_Penalty>
0.0447449

> <i_epik_Tot_Q>
1

> <i_epik_Tot_abs_Q>
1

> <s_lp_Force_Field>
OPLS_2005

> <r_lp_Energy>
40.5644

> <b_lp_Chiralities_Consistent>
1

> <s_lp_Variant>
BACE_138.smi:1-1

> <chiral flag>
1

> <version>
0

> <s_i_glide_gridfile>
second_dock_grid_2

> <i_i_glide_lignum>
67

> <i_i_glide_rotatable_bonds>
6

> <r_i_docking_score>
-4.06953

> <r_i_glide_ligand_efficiency>
-0.109987

> <r_i_glide_ligand_efficiency_sa>
-0.366502

> <r_i_glide_ligand_efficiency_ln>
-0.882586

> <r_glide_XP_GScore>
-4.08963

> <r_i_glide_gscore>
-4.08963

> <r_i_glide_evdw>
-44.6516

> <r_i_glide_ecoul>
-6.90595

> <r_i_glide_energy>
-51.5575

> <r_i_glide_einternal>
1.75132

> <r_i_glide_emodel>
-70.9449

> <r_glide_XP_HBond>
-1.31642

> <i_i_glide_confnum>
1

> <i_i_glide_posenum>
5

> <r_i_glide_eff_state_penalty>
0.0201

> <i_glide_XP_PoseRank>
1

$$$$
BACE_138.smi:1
                    3D
 Structure written by MMmdl.
 71 74  0  0  1  0            999 V2000
   22.5898   44.2080   -9.7470 C   0  0  0  0  0  0
   22.8708   42.9575  -10.6139 C   0  0  0  0  0  0
   23.6213   43.4516  -11.8621 C   0  0  0  0  0  0
   23.7909   42.0374   -9.9026 N   0  0  0  0  0  0
   23.5450   41.6741   -8.4905 C   0  0  0  0  0  0
   22.5165   40.5357   -8.2612 C   0  0  1  0  0  0
   23.2550   39.3507   -8.0400 O   0  0  0  0  0  0
   21.5950   40.7526   -7.0320 C   0  0  2  0  0  0
   20.5848   39.6009   -6.8021 C   0  0  0  0  0  0
   19.5511   39.3960   -7.9075 C   0  0  0  0  0  0
   19.7280   38.3636   -8.8497 C   0  0  0  0  0  0
   18.7306   38.1053   -9.8074 C   0  0  0  0  0  0
   17.5523   38.8745   -9.8296 C   0  0  0  0  0  0
   17.3744   39.9364   -8.9249 C   0  0  0  0  0  0
   18.3828   40.1900   -7.9653 C   0  0  0  0  0  0
   16.1991   40.6503   -9.0037 O   0  0  0  0  0  0
   16.2731   42.0449   -8.7391 C   0  0  0  0  0  0
   14.8948   42.6924   -8.9564 C   0  0  0  0  0  0
   14.9154   44.1637   -9.4288 C   0  0  0  0  0  0
   15.7830   45.1209   -8.5955 C   0  0  0  0  0  0
   17.1412   44.9300   -8.9638 O   0  0  0  0  0  0
   18.0568   45.0759   -7.9544 C   0  0  0  0  0  0
   18.0605   46.1700   -7.0650 C   0  0  0  0  0  0
   18.9282   46.2870   -6.0375 N   0  0  0  0  0  0
   19.8472   45.3094   -5.8723 C   0  0  0  0  0  0
   19.9399   44.1733   -6.7039 C   0  0  0  0  0  0
   19.0354   44.0831   -7.7851 C   0  0  0  0  0  0
   20.9545   43.0996   -6.4247 C   0  0  0  0  0  0
   21.8076   43.2438   -5.5495 O   0  0  0  0  0  0
   20.8412   41.9930   -7.1753 N   0  0  0  0  0  0
   21.5839   42.2690  -11.1080 C   0  0  0  0  0  0
   21.6143   40.9200  -11.5400 C   0  0  0  0  0  0
   20.4528   40.2757  -11.9980 C   0  0  0  0  0  0
   19.2485   40.9907  -12.0850 C   0  0  0  0  0  0
   19.2150   42.3539  -11.7489 C   0  0  0  0  0  0
   17.6310   43.3597  -12.0675 Br  0  0  0  0  0  0
   20.3662   42.9833  -11.2386 C   0  0  0  0  0  0
   21.8842   40.3793   -9.1244 H   0  0  0  0  0  0
   22.2293   40.8119   -6.1455 H   0  0  0  0  0  0
   22.1505   45.0197  -10.3273 H   0  0  0  0  0  0
   23.5096   44.6019   -9.3127 H   0  0  0  0  0  0
   21.9052   43.9920   -8.9314 H   0  0  0  0  0  0
   23.0202   44.1523  -12.4410 H   0  0  0  0  0  0
   23.8798   42.6305  -12.5236 H   0  0  0  0  0  0
   24.5502   43.9572  -11.5964 H   0  0  0  0  0  0
   23.9298   41.1994  -10.4597 H   0  0  0  0  0  0
   24.4911   41.3739   -8.0418 H   0  0  0  0  0  0
   23.2763   42.5585   -7.9192 H   0  0  0  0  0  0
   23.7841   39.1477   -8.8062 H   0  0  0  0  0  0
   21.1173   38.6629   -6.6371 H   0  0  0  0  0  0
   20.0414   39.7841   -5.8736 H   0  0  0  0  0  0
   20.6180   37.7517   -8.8250 H   0  0  0  0  0  0
   18.8609   37.3089  -10.5220 H   0  0  0  0  0  0
   16.7845   38.6600  -10.5570 H   0  0  0  0  0  0
   18.2477   40.9719   -7.2383 H   0  0  0  0  0  0
   16.6003   42.2532   -7.7209 H   0  0  0  0  0  0
   17.0091   42.4683   -9.4180 H   0  0  0  0  0  0
   14.3438   42.1125   -9.6983 H   0  0  0  0  0  0
   14.3195   42.6029   -8.0340 H   0  0  0  0  0  0
   15.2313   44.2114  -10.4703 H   0  0  0  0  0  0
   13.8882   44.5263   -9.4153 H   0  0  0  0  0  0
   15.5139   46.1552   -8.8086 H   0  0  0  0  0  0
   15.6059   44.9507   -7.5326 H   0  0  0  0  0  0
   17.3336   46.9625   -7.1627 H   0  0  0  0  0  0
   20.5100   45.4388   -5.0292 H   0  0  0  0  0  0
   19.0490   43.2481   -8.4691 H   0  0  0  0  0  0
   20.1029   41.9651   -7.8625 H   0  0  0  0  0  0
   22.5281   40.3495  -11.5001 H   0  0  0  0  0  0
   20.4855   39.2354  -12.2864 H   0  0  0  0  0  0
   18.3549   40.5030  -12.4400 H   0  0  0  0  0  0
   20.3000   44.0299  -10.9870 H   0  0  0  0  0  0
  1  2  1  0  0  0
  1 40  1  0  0  0
  1 41  1  0  0  0
  1 42  1  0  0  0
  2  3  1  0  0  0
  2  4  1  0  0  0
  2 31  1  0  0  0
  3 43  1  0  0  0
  3 44  1  0  0  0
  3 45  1  0  0  0
  4  5  1  0  0  0
  4 46  1  0  0  0
  5  6  1  0  0  0
  5 47  1  0  0  0
  5 48  1  0  0  0
  6 38  1  0  0  0
  6  7  1  0  0  0
  6  8  1  0  0  0
  7 49  1  0  0  0
  8 39  1  0  0  0
  8 30  1  0  0  0
  8  9  1  0  0  0
  9 10  1  0  0  0
  9 50  1  0  0  0
  9 51  1  0  0  0
 10 15  1  0  0  0
 10 11  2  0  0  0
 11 12  1  0  0  0
 11 52  1  0  0  0
 12 13  2  0  0  0
 12 53  1  0  0  0
 13 14  1  0  0  0
 13 54  1  0  0  0
 14 15  2  0  0  0
 14 16  1  0  0  0
 15 55  1  0  0  0
 16 17  1  0  0  0
 17 18  1  0  0  0
 17 56  1  0  0  0
 17 57  1  0  0  0
 18 19  1  0  0  0
 18 58  1  0  0  0
 18 59  1  0  0  0
 19 20  1  0  0  0
 19 60  1  0  0  0
 19 61  1  0  0  0
 20 21  1  0  0  0
 20 62  1  0  0  0
 20 63  1  0  0  0
 21 22  1  0  0  0
 22 27  1  0  0  0
 22 23  2  0  0  0
 23 24  1  0  0  0
 23 64  1  0  0  0
 24 25  2  0  0  0
 25 26  1  0  0  0
 25 65  1  0  0  0
 26 27  2  0  0  0
 26 28  1  0  0  0
 27 66  1  0  0  0
 28 29  2  0  0  0
 28 30  1  0  0  0
 30 67  1  0  0  0
 31 37  1  0  0  0
 31 32  2  0  0  0
 32 33  1  0  0  0
 32 68  1  0  0  0
 33 34  2  0  0  0
 33 69  1  0  0  0
 34 35  1  0  0  0
 34 70  1  0  0  0
 35 36  1  0  0  0
 35 37  2  0  0  0
 37 71  1  0  0  0
M  END
> <s_m_source_file>
BACE_138.smi

> <i_m_source_file_index>
1

> <i_lp_mmshare_version>
42013

> <i_f3d_flags>
0

> <s_epik_input>
QnJjKFtjSF0xKVtjSF1bY0hdW2NIXWMxQyhbQ0gzXSkoW0NIM10pW05IXVtDSDJdW0NAQEhdKFtPSF0pW0NASF0oW0NIMl0yKVtOSF1DKD1PKWMoW2NIXTMpW2NIXW5bY0hdYzNPW0NIMl1bQ0gyXVtDSDJdW0NIMl1PYyhbY0hdNClbY0hdW2NIXVtjSF1jMjQ=

> <s_epik_cmdline>
J2VwaWtfcHl0aG9uJywgJy1waCcsICc3LjAnLCAnLXRuJywgJzgnLCAnLW1hJywgJzIwMCcsICctaW1hZScsICc8aW5maWxlLm1hZT4nLCAnLW9tYWUnLCAnPG91dGZpbGUubWFlPic=

> <r_lp_tautomer_probability>
1

> <r_epik_Ionization_Penalty>
  1.8955

> <r_epik_Ionization_Penalty_Charging>
  0.0000

> <r_epik_Ionization_Penalty_Neutral>
  1.8955

> <r_epik_State_Penalty>
  2.0160

> <r_epik_Charging_Adjusted_Penalty>
2.01604

> <i_epik_Tot_Q>
0

> <i_epik_Tot_abs_Q>
0

> <s_lp_Force_Field>
OPLS_2005

> <r_lp_Energy>
44.5331

> <b_lp_Chiralities_Consistent>
1

> <s_lp_Variant>
BACE_138.smi:1-2

> <chiral flag>
1

> <version>
0

> <s_i_glide_gridfile>
second_dock_grid_2

> <i_i_glide_lignum>
68

> <i_i_glide_rotatable_bonds>
6

> <r_i_docking_score>
-1.85792

> <r_i_glide_ligand_efficiency>
-0.050214

> <r_i_glide_ligand_efficiency_sa>
-0.167324

> <r_i_glide_ligand_efficiency_ln>
-0.402939

> <r_glide_XP_GScore>
-3.87392

> <r_i_glide_gscore>
-3.87392

> <r_i_glide_evdw>
-40.5079

> <r_i_glide_ecoul>
-8.28284

> <r_i_glide_energy>
-48.7907

> <r_i_glide_einternal>
8.06259

> <r_i_glide_emodel>
-63.898

> <r_glide_XP_HBond>
-1.03819

> <i_i_glide_confnum>
1

> <i_i_glide_posenum>
1

> <r_i_glide_eff_state_penalty>
2.016

> <i_glide_XP_PoseRank>
1

$$$$
