BACE_63.smi:1
                    3D
 Structure written by MMmdl.
 98101  0  0  1  0            999 V2000
   19.4163   48.2644   -8.4147 C   0  0  0  0  0  0
   18.7457   47.0806   -8.8078 O   0  0  0  0  0  0
   19.6421   46.0049   -9.0533 C   0  0  0  0  0  0
   18.9109   44.7330   -9.4349 C   0  0  0  0  0  0
   17.7604   44.3421   -8.7179 C   0  0  0  0  0  0
   17.0810   43.1514   -9.0424 C   0  0  0  0  0  0
   17.5826   42.3397  -10.0874 C   0  0  0  0  0  0
   18.7269   42.7232  -10.8108 C   0  0  0  0  0  0
   19.3912   43.9236  -10.4850 C   0  0  0  0  0  0
   19.1994   41.8772  -11.9513 C   0  0  0  0  0  0
   18.8600   42.1526  -13.0964 O   0  0  0  0  0  0
   19.9876   40.8228  -11.6948 N   0  0  0  0  0  0
   20.4881   40.3262  -10.4112 C   0  0  1  0  0  0
   20.0419   38.8485  -10.2771 C   0  0  0  0  0  0
   18.9505   38.6248   -9.2132 C   0  0  2  0  0  0
   19.5548   38.6031   -7.7964 C   0  0  0  0  0  0
   18.1701   37.3412   -9.5511 C   0  0  0  0  0  0
   17.0544   36.9384   -8.5834 C   0  0  0  0  0  0
   16.0047   38.0265   -8.3155 C   0  0  0  0  0  0
   15.2613   38.5226   -9.5629 C   0  0  0  0  0  0
   14.1346   39.5198   -9.2361 C   0  0  0  0  0  0
   14.5502   40.9992   -9.3187 C   0  0  0  0  0  0
   15.5406   41.4236   -8.2205 C   0  0  0  0  0  0
   15.9255   42.8235   -8.3170 N   0  0  0  0  0  0
   22.0252   40.4948  -10.3480 C   0  0  2  0  0  0
   22.4609   39.9536   -9.1164 O   0  0  0  0  0  0
   22.4721   41.9748  -10.4276 C   0  0  0  0  0  0
   23.8676   42.1501  -10.8400 N   0  0  0  0  0  0
   24.9319   41.8528   -9.8746 C   0  0  1  0  0  0
   26.2429   41.5665  -10.6227 C   0  0  0  0  0  0
   27.0608   42.8351  -10.9534 C   0  0  0  0  0  0
   28.4404   42.4206  -11.4910 C   0  0  0  0  0  0
   26.3721   43.7550  -11.9800 C   0  0  0  0  0  0
   27.3199   43.5941   -9.7742 O   0  0  0  0  0  0
   26.3062   43.7507   -8.8520 C   0  0  0  0  0  0
   26.5038   44.7010   -7.8309 C   0  0  0  0  0  0
   25.5615   44.8561   -6.7968 C   0  0  0  0  0  0
   24.4057   44.0501   -6.7645 C   0  0  0  0  0  0
   24.2018   43.1009   -7.7888 C   0  0  0  0  0  0
   25.1343   42.9500   -8.8401 C   0  0  0  0  0  0
   23.4062   44.1898   -5.6225 C   0  0  0  0  0  0
   22.0474   44.7026   -6.1213 C   0  0  0  0  0  0
   23.2591   42.8829   -4.8260 C   0  0  0  0  0  0
   20.0693   40.8996   -9.5837 H   0  0  0  0  0  0
   18.2467   39.4559   -9.2699 H   0  0  0  0  0  0
   22.4612   39.9205  -11.1651 H   0  0  0  0  0  0
   24.6940   40.9378   -9.3358 H   0  0  0  0  0  0
   18.6853   49.0601   -8.2599 H   0  0  0  0  0  0
   20.1183   48.5949   -9.1820 H   0  0  0  0  0  0
   19.9596   48.1184   -7.4784 H   0  0  0  0  0  0
   20.2271   45.8036   -8.1541 H   0  0  0  0  0  0
   20.3441   46.2783   -9.8445 H   0  0  0  0  0  0
   17.3989   44.9663   -7.9146 H   0  0  0  0  0  0
   17.0968   41.4165  -10.3613 H   0  0  0  0  0  0
   20.2681   44.2239  -11.0410 H   0  0  0  0  0  0
   20.2588   40.2786  -12.5001 H   0  0  0  0  0  0
   20.8855   38.1944  -10.0532 H   0  0  0  0  0  0
   19.6845   38.4884  -11.2428 H   0  0  0  0  0  0
   18.7850   38.5251   -7.0291 H   0  0  0  0  0  0
   20.1143   39.5154   -7.5910 H   0  0  0  0  0  0
   20.2352   37.7615   -7.6680 H   0  0  0  0  0  0
   17.7245   37.4662  -10.5320 H   0  0  0  0  0  0
   18.8600   36.5083   -9.6394 H   0  0  0  0  0  0
   17.5117   36.6341   -7.6437 H   0  0  0  0  0  0
   16.5531   36.0504   -8.9676 H   0  0  0  0  0  0
   16.4669   38.8378   -7.7624 H   0  0  0  0  0  0
   15.2585   37.6209   -7.6399 H   0  0  0  0  0  0
   15.9464   38.9558  -10.2921 H   0  0  0  0  0  0
   14.8291   37.6444  -10.0399 H   0  0  0  0  0  0
   13.3202   39.3608   -9.9389 H   0  0  0  0  0  0
   13.7011   39.3029   -8.2585 H   0  0  0  0  0  0
   13.6601   41.6215   -9.2401 H   0  0  0  0  0  0
   14.9479   41.2024  -10.3108 H   0  0  0  0  0  0
   16.4451   40.8233   -8.2524 H   0  0  0  0  0  0
   15.0969   41.2562   -7.2363 H   0  0  0  0  0  0
   15.7512   43.3396   -7.4598 H   0  0  0  0  0  0
   23.3362   39.6067   -9.2365 H   0  0  0  0  0  0
   22.2411   42.5094   -9.5100 H   0  0  0  0  0  0
   21.8748   42.4726  -11.1878 H   0  0  0  0  0  0
   24.0465   41.6554  -11.7182 H   0  0  0  0  0  0
   26.8588   40.9442   -9.9728 H   0  0  0  0  0  0
   26.0643   40.9655  -11.5142 H   0  0  0  0  0  0
   28.3500   41.8408  -12.4109 H   0  0  0  0  0  0
   28.9790   41.8073  -10.7685 H   0  0  0  0  0  0
   29.0603   43.2913  -11.7067 H   0  0  0  0  0  0
   26.1262   43.2113  -12.8911 H   0  0  0  0  0  0
   27.0173   44.5903  -12.2538 H   0  0  0  0  0  0
   25.4506   44.1861  -11.5897 H   0  0  0  0  0  0
   27.3982   45.3060   -7.8323 H   0  0  0  0  0  0
   25.7413   45.5828   -6.0172 H   0  0  0  0  0  0
   23.3418   42.4519   -7.7374 H   0  0  0  0  0  0
   23.7983   44.9374   -4.9315 H   0  0  0  0  0  0
   22.1591   45.6577   -6.6354 H   0  0  0  0  0  0
   21.3558   44.8515   -5.2915 H   0  0  0  0  0  0
   21.5854   44.0010   -6.8168 H   0  0  0  0  0  0
   24.2231   42.5514   -4.4399 H   0  0  0  0  0  0
   22.8493   42.0772   -5.4372 H   0  0  0  0  0  0
   22.5959   43.0177   -3.9705 H   0  0  0  0  0  0
  1  2  1  0  0  0
  1 48  1  0  0  0
  1 49  1  0  0  0
  1 50  1  0  0  0
  2  3  1  0  0  0
  3  4  1  0  0  0
  3 51  1  0  0  0
  3 52  1  0  0  0
  4  9  1  0  0  0
  4  5  2  0  0  0
  5  6  1  0  0  0
  5 53  1  0  0  0
  6 24  1  0  0  0
  6  7  2  0  0  0
  7  8  1  0  0  0
  7 54  1  0  0  0
  8  9  2  0  0  0
  8 10  1  0  0  0
  9 55  1  0  0  0
 10 11  2  0  0  0
 10 12  1  0  0  0
 12 13  1  0  0  0
 12 56  1  0  0  0
 13 44  1  0  0  0
 13 14  1  0  0  0
 13 25  1  0  0  0
 14 15  1  0  0  0
 14 57  1  0  0  0
 14 58  1  0  0  0
 15 45  1  0  0  0
 15 16  1  0  0  0
 15 17  1  0  0  0
 16 59  1  0  0  0
 16 60  1  0  0  0
 16 61  1  0  0  0
 17 18  1  0  0  0
 17 62  1  0  0  0
 17 63  1  0  0  0
 18 19  1  0  0  0
 18 64  1  0  0  0
 18 65  1  0  0  0
 19 20  1  0  0  0
 19 66  1  0  0  0
 19 67  1  0  0  0
 20 21  1  0  0  0
 20 68  1  0  0  0
 20 69  1  0  0  0
 21 22  1  0  0  0
 21 70  1  0  0  0
 21 71  1  0  0  0
 22 23  1  0  0  0
 22 72  1  0  0  0
 22 73  1  0  0  0
 23 24  1  0  0  0
 23 74  1  0  0  0
 23 75  1  0  0  0
 24 76  1  0  0  0
 25 46  1  0  0  0
 25 26  1  0  0  0
 25 27  1  0  0  0
 26 77  1  0  0  0
 27 28  1  0  0  0
 27 78  1  0  0  0
 27 79  1  0  0  0
 28 29  1  0  0  0
 28 80  1  0  0  0
 29 47  1  0  0  0
 29 40  1  0  0  0
 29 30  1  0  0  0
 30 31  1  0  0  0
 30 81  1  0  0  0
 30 82  1  0  0  0
 31 32  1  0  0  0
 31 33  1  0  0  0
 31 34  1  0  0  0
 32 83  1  0  0  0
 32 84  1  0  0  0
 32 85  1  0  0  0
 33 86  1  0  0  0
 33 87  1  0  0  0
 33 88  1  0  0  0
 34 35  1  0  0  0
 35 40  2  0  0  0
 35 36  1  0  0  0
 36 37  2  0  0  0
 36 89  1  0  0  0
 37 38  1  0  0  0
 37 90  1  0  0  0
 38 39  2  0  0  0
 38 41  1  0  0  0
 39 40  1  0  0  0
 39 91  1  0  0  0
 41 42  1  0  0  0
 41 43  1  0  0  0
 41 92  1  0  0  0
 42 93  1  0  0  0
 42 94  1  0  0  0
 42 95  1  0  0  0
 43 96  1  0  0  0
 43 97  1  0  0  0
 43 98  1  0  0  0
M  END
> <s_m_source_file>
BACE_63.smi

> <i_m_source_file_index>
1

> <i_lp_mmshare_version>
42013

> <i_f3d_flags>
0

> <s_epik_input>
W2NIXTFbY0hdYyhbQ0hdKFtDSDNdKVtDSDNdKVtjSF1jKGMxMilbQ0BIXShbQ0gyXUMoTzIpKFtDSDNdKVtDSDNdKVtOSF1bQ0gyXVtDQEBIXShbT0hdKVtDQEBIXShbTkhdQyg9TyljKFtjSF0zKVtjSF1jKFtjSF1jMzQpW0NIMl1PW0NIM10pW0NIMl1bQ0BIXShbQ0gzXSlbQ0gyXVtDSDJdW0NIMl1bQ0gyXVtDSDJdW0NIMl1bQ0gyXVtOSF00

> <s_epik_cmdline>
J2VwaWtfcHl0aG9uJywgJy1waCcsICc3LjAnLCAnLXRuJywgJzgnLCAnLW1hJywgJzIwMCcsICctaW1hZScsICc8aW5maWxlLm1hZT4nLCAnLW9tYWUnLCAnPG91dGZpbGUubWFlPic=

> <r_lp_tautomer_probability>
1

> <r_epik_Ionization_Penalty>
  2.1118

> <r_epik_Ionization_Penalty_Charging>
  0.0000

> <r_epik_Ionization_Penalty_Neutral>
  2.1118

> <r_epik_State_Penalty>
  2.2481

> <r_epik_Charging_Adjusted_Penalty>
2.24811

> <i_epik_Tot_Q>
0

> <i_epik_Tot_abs_Q>
0

> <s_lp_Force_Field>
OPLS_2005

> <r_lp_Energy>
51.1507

> <b_lp_Chiralities_Consistent>
1

> <s_lp_Variant>
BACE_63.smi:1-2

> <chiral flag>
1

> <version>
0

> <s_i_glide_gridfile>
second_dock_grid_2

> <i_i_glide_lignum>
25

> <i_i_glide_rotatable_bonds>
8

> <r_i_docking_score>
-2.57204

> <r_i_glide_ligand_efficiency>
-0.0598149

> <r_i_glide_ligand_efficiency_sa>
-0.209555

> <r_i_glide_ligand_efficiency_ln>
-0.540209

> <r_glide_XP_GScore>
-4.82014

> <r_i_glide_gscore>
-4.82014

> <r_i_glide_evdw>
-40.5272

> <r_i_glide_ecoul>
-11.2828

> <r_i_glide_energy>
-51.81

> <r_i_glide_einternal>
5.79756

> <r_i_glide_emodel>
-68.4404

> <r_glide_XP_HBond>
-1.51152

> <i_i_glide_confnum>
1

> <i_i_glide_posenum>
11

> <r_i_glide_eff_state_penalty>
2.2481

> <i_glide_XP_PoseRank>
1

$$$$
BACE_68.smi:1
                    3D
 Structure written by MMmdl.
 97100  0  0  1  0            999 V2000
   21.4953   38.9566   -7.1315 C   0  0  0  0  0  0
   20.2829   39.5567   -7.8608 C   0  0  2  0  0  0
   19.2159   38.4722   -8.1245 C   0  0  0  0  0  0
   18.2348   38.2493   -6.9597 C   0  0  0  0  0  0
   16.8869   38.9704   -7.1487 C   0  0  0  0  0  0
   16.0097   38.3441   -8.2583 C   0  0  0  0  0  0
   14.5871   38.9237   -8.3791 C   0  0  0  0  0  0
   14.4625   40.1205   -9.3330 C   0  0  0  0  0  0
   14.9475   41.4402   -8.7181 C   0  0  0  0  0  0
   14.6970   42.5643   -9.6061 N   0  0  0  0  0  0
   15.7092   43.0118  -10.4625 C   0  0  0  0  0  0
   15.6202   44.3231  -10.9646 C   0  0  0  0  0  0
   16.6237   44.8411  -11.8072 C   0  0  0  0  0  0
   17.7136   44.0185  -12.1698 C   0  0  0  0  0  0
   17.8286   42.7099  -11.6535 C   0  0  0  0  0  0
   16.8064   42.1995  -10.8303 C   0  0  0  0  0  0
   18.9996   41.8642  -12.0538 C   0  0  0  0  0  0
   19.2602   41.7500  -13.2403 O   0  0  0  0  0  0
   19.7962   41.2960  -11.1352 N   0  0  0  0  0  0
   19.7489   41.3163   -9.6762 C   0  0  1  0  0  0
   20.7165   40.2116   -9.1857 C   0  0  0  0  0  0
   20.1229   42.7019   -9.0695 C   0  0  2  0  0  0
   18.9618   43.5010   -8.9778 O   0  0  0  0  0  0
   21.2328   43.5184   -9.7937 C   0  0  0  0  0  0
   22.5883   43.1935   -9.3318 N   0  0  0  0  0  0
   23.1205   44.0175   -8.2374 C   0  0  0  0  0  0
   23.8643   45.2782   -8.6077 C   0  0  0  0  0  0
   24.6225   44.0733   -8.0883 C   0  0  0  0  0  0
   22.2594   43.9962   -7.0094 C   0  0  0  0  0  0
   22.4392   42.9980   -6.0272 C   0  0  0  0  0  0
   21.5621   42.8986   -4.9194 C   0  0  0  0  0  0
   20.4776   43.8018   -4.8401 C   0  0  0  0  0  0
   20.3115   44.8223   -5.7917 C   0  0  0  0  0  0
   21.2133   44.9317   -6.8619 C   0  0  0  0  0  0
   21.7602   41.8647   -3.7983 C   0  0  0  0  0  0
   20.5191   40.9631   -3.6785 C   0  0  0  0  0  0
   22.9796   40.9481   -4.0288 C   0  0  0  0  0  0
   21.9628   42.6168   -2.4676 C   0  0  0  0  0  0
   16.4820   46.2358  -12.3471 C   0  0  0  0  0  0
   15.4158   46.5568  -12.8790 O   0  0  0  0  0  0
   17.5253   47.0919  -12.2170 N   0  0  0  0  0  0
   17.4807   48.4032  -12.8647 C   0  0  0  0  0  0
   18.6917   46.8567  -11.3590 C   0  0  0  0  0  0
   19.8591   40.3332   -7.2214 H   0  0  0  0  0  0
   18.7491   41.0325   -9.3515 H   0  0  0  0  0  0
   20.3934   42.5333   -8.0294 H   0  0  0  0  0  0
   21.2107   38.5513   -6.1609 H   0  0  0  0  0  0
   21.9499   38.1517   -7.7103 H   0  0  0  0  0  0
   22.2634   39.7110   -6.9685 H   0  0  0  0  0  0
   19.7117   37.5323   -8.3659 H   0  0  0  0  0  0
   18.6587   38.7149   -9.0270 H   0  0  0  0  0  0
   18.0597   37.1808   -6.8406 H   0  0  0  0  0  0
   18.6882   38.5689   -6.0219 H   0  0  0  0  0  0
   16.3370   38.9353   -6.2061 H   0  0  0  0  0  0
   17.0773   40.0234   -7.3341 H   0  0  0  0  0  0
   16.5027   38.3898   -9.2288 H   0  0  0  0  0  0
   15.9110   37.2823   -8.0404 H   0  0  0  0  0  0
   14.1771   39.1590   -7.3953 H   0  0  0  0  0  0
   13.9407   38.1422   -8.7778 H   0  0  0  0  0  0
   14.9903   39.9065  -10.2623 H   0  0  0  0  0  0
   13.4164   40.2281   -9.6252 H   0  0  0  0  0  0
   14.4489   41.6235   -7.7680 H   0  0  0  0  0  0
   16.0062   41.4004   -8.4760 H   0  0  0  0  0  0
   13.9696   43.2033   -9.3232 H   0  0  0  0  0  0
   14.7781   44.9443  -10.6939 H   0  0  0  0  0  0
   18.4760   44.3952  -12.8379 H   0  0  0  0  0  0
   16.8770   41.1780  -10.4885 H   0  0  0  0  0  0
   20.5663   40.7713  -11.5235 H   0  0  0  0  0  0
   21.7193   40.6275   -9.0884 H   0  0  0  0  0  0
   20.8176   39.4185   -9.9301 H   0  0  0  0  0  0
   18.5297   43.5050   -9.8204 H   0  0  0  0  0  0
   21.0605   44.5864   -9.6572 H   0  0  0  0  0  0
   21.1753   43.3740  -10.8712 H   0  0  0  0  0  0
   22.6744   42.2090   -9.1034 H   0  0  0  0  0  0
   23.9839   45.5139   -9.6633 H   0  0  0  0  0  0
   23.7806   46.1354   -7.9435 H   0  0  0  0  0  0
   25.0357   44.1394   -7.0836 H   0  0  0  0  0  0
   25.2323   43.5315   -8.8082 H   0  0  0  0  0  0
   23.2600   42.3090   -6.1531 H   0  0  0  0  0  0
   19.7770   43.7418   -4.0217 H   0  0  0  0  0  0
   19.4894   45.5169   -5.7077 H   0  0  0  0  0  0
   21.0668   45.7016   -7.6052 H   0  0  0  0  0  0
   19.6601   41.5392   -3.3437 H   0  0  0  0  0  0
   20.6648   40.1669   -2.9476 H   0  0  0  0  0  0
   20.2664   40.4939   -4.6302 H   0  0  0  0  0  0
   23.9125   41.5116   -4.0398 H   0  0  0  0  0  0
   22.8992   40.3942   -4.9600 H   0  0  0  0  0  0
   23.0607   40.2019   -3.2406 H   0  0  0  0  0  0
   22.8568   43.2410   -2.4938 H   0  0  0  0  0  0
   22.0599   41.9217   -1.6402 H   0  0  0  0  0  0
   21.1226   43.2676   -2.2235 H   0  0  0  0  0  0
   18.4526   48.8983  -12.8561 H   0  0  0  0  0  0
   16.7646   49.0558  -12.3597 H   0  0  0  0  0  0
   17.1825   48.3099  -13.9127 H   0  0  0  0  0  0
   19.1327   47.7933  -11.0136 H   0  0  0  0  0  0
   19.4613   46.2993  -11.8991 H   0  0  0  0  0  0
   18.4320   46.2929  -10.4607 H   0  0  0  0  0  0
  1  2  1  0  0  0
  1 47  1  0  0  0
  1 48  1  0  0  0
  1 49  1  0  0  0
  2 44  1  0  0  0
  2 21  1  0  0  0
  2  3  1  0  0  0
  3  4  1  0  0  0
  3 50  1  0  0  0
  3 51  1  0  0  0
  4  5  1  0  0  0
  4 52  1  0  0  0
  4 53  1  0  0  0
  5  6  1  0  0  0
  5 54  1  0  0  0
  5 55  1  0  0  0
  6  7  1  0  0  0
  6 56  1  0  0  0
  6 57  1  0  0  0
  7  8  1  0  0  0
  7 58  1  0  0  0
  7 59  1  0  0  0
  8  9  1  0  0  0
  8 60  1  0  0  0
  8 61  1  0  0  0
  9 10  1  0  0  0
  9 62  1  0  0  0
  9 63  1  0  0  0
 10 11  1  0  0  0
 10 64  1  0  0  0
 11 16  1  0  0  0
 11 12  2  0  0  0
 12 13  1  0  0  0
 12 65  1  0  0  0
 13 14  2  0  0  0
 13 39  1  0  0  0
 14 15  1  0  0  0
 14 66  1  0  0  0
 15 16  2  0  0  0
 15 17  1  0  0  0
 16 67  1  0  0  0
 17 18  2  0  0  0
 17 19  1  0  0  0
 19 20  1  0  0  0
 19 68  1  0  0  0
 20 45  1  0  0  0
 20 21  1  0  0  0
 20 22  1  0  0  0
 21 69  1  0  0  0
 21 70  1  0  0  0
 22 46  1  0  0  0
 22 23  1  0  0  0
 22 24  1  0  0  0
 23 71  1  0  0  0
 24 25  1  0  0  0
 24 72  1  0  0  0
 24 73  1  0  0  0
 25 26  1  0  0  0
 25 74  1  0  0  0
 26 28  1  0  0  0
 26 27  1  0  0  0
 26 29  1  0  0  0
 27 28  1  0  0  0
 27 75  1  0  0  0
 27 76  1  0  0  0
 28 77  1  0  0  0
 28 78  1  0  0  0
 29 34  1  0  0  0
 29 30  2  0  0  0
 30 31  1  0  0  0
 30 79  1  0  0  0
 31 32  2  0  0  0
 31 35  1  0  0  0
 32 33  1  0  0  0
 32 80  1  0  0  0
 33 34  2  0  0  0
 33 81  1  0  0  0
 34 82  1  0  0  0
 35 36  1  0  0  0
 35 37  1  0  0  0
 35 38  1  0  0  0
 36 83  1  0  0  0
 36 84  1  0  0  0
 36 85  1  0  0  0
 37 86  1  0  0  0
 37 87  1  0  0  0
 37 88  1  0  0  0
 38 89  1  0  0  0
 38 90  1  0  0  0
 38 91  1  0  0  0
 39 40  2  0  0  0
 39 41  1  0  0  0
 41 42  1  0  0  0
 41 43  1  0  0  0
 42 92  1  0  0  0
 42 93  1  0  0  0
 42 94  1  0  0  0
 43 95  1  0  0  0
 43 96  1  0  0  0
 43 97  1  0  0  0
M  END
> <s_m_source_file>
BACE_68.smi

> <i_m_source_file_index>
1

> <i_lp_mmshare_version>
42013

> <i_f3d_flags>
0

> <s_epik_input>
W05IXTFbQ0gyXVtDSDJdW0NIMl1bQ0gyXVtDSDJdW0NIMl1bQ0gyXVtDQEBIXShbQ0gzXSlbQ0gyXVtDQEhdKFtOSF1DKD1PKWMoW2NIXTIpW2NIXWMoW2NIXWMxMilDKD1PKU4oW0NIM10pW0NIM10pW0NASF0oW09IXSlbQ0gyXVtOSF1DMyhbQ0gyXVtDSDJdMyljNFtjSF1jKEMoW0NIM10pKFtDSDNdKVtDSDNdKVtjSF1bY0hdW2NIXTQ=

> <s_epik_cmdline>
J2VwaWtfcHl0aG9uJywgJy1waCcsICc3LjAnLCAnLXRuJywgJzgnLCAnLW1hJywgJzIwMCcsICctaW1hZScsICc8aW5maWxlLm1hZT4nLCAnLW9tYWUnLCAnPG91dGZpbGUubWFlPic=

> <r_epik_Ionization_Penalty>
  0.3642

> <r_epik_Ionization_Penalty_Charging>
  0.0000

> <r_epik_Ionization_Penalty_Neutral>
  0.3642

> <r_epik_State_Penalty>
  0.3611

> <r_epik_Charging_Adjusted_Penalty>
0.361069

> <i_epik_Tot_Q>
0

> <i_epik_Tot_abs_Q>
0

> <s_lp_Force_Field>
OPLS_2005

> <r_lp_Energy>
68.3834

> <b_lp_Chiralities_Consistent>
1

> <s_lp_Variant>
BACE_68.smi:1-1

> <chiral flag>
1

> <version>
0

> <s_i_glide_gridfile>
second_dock_grid_2

> <i_i_glide_lignum>
26

> <i_i_glide_rotatable_bonds>
9

> <r_i_docking_score>
-3.5901

> <r_i_glide_ligand_efficiency>
-0.0834907

> <r_i_glide_ligand_efficiency_sa>
-0.292501

> <r_i_glide_ligand_efficiency_ln>
-0.754033

> <r_glide_XP_GScore>
-3.9512

> <r_i_glide_gscore>
-3.9512

> <r_i_glide_evdw>
-44.8989

> <r_i_glide_ecoul>
-5.27712

> <r_i_glide_energy>
-50.176

> <r_i_glide_einternal>
6.96295

> <r_i_glide_emodel>
-68.2466

> <r_glide_XP_HBond>
-1.36883

> <i_i_glide_confnum>
1

> <i_i_glide_posenum>
3

> <r_i_glide_eff_state_penalty>
0.3611

> <i_glide_XP_PoseRank>
1

$$$$
