BACE_56.smi:1
                    3D
 Structure written by MMmdl.
 88 91  0  0  1  0            999 V2000
   21.6602   39.3896  -10.1429 C   0  0  0  0  0  0
   20.5077   40.3448   -9.7865 C   0  0  2  0  0  0
   19.1807   39.5933   -9.5588 C   0  0  0  0  0  0
   19.2089   38.5837   -8.3949 C   0  0  0  0  0  0
   17.8222   38.0031   -8.0895 C   0  0  0  0  0  0
   16.9355   38.9489   -7.2563 C   0  0  0  0  0  0
   15.4320   38.6558   -7.4021 C   0  0  0  0  0  0
   14.7126   39.5484   -8.4112 C   0  0  0  0  0  0
   15.1596   39.3357   -9.8640 C   0  0  0  0  0  0
   14.4616   40.2413  -10.7588 N   0  0  0  0  0  0
   14.9655   41.5444  -10.7101 C   0  0  0  0  0  0
   16.2399   41.8454  -11.2401 C   0  0  0  0  0  0
   16.6758   43.1863  -11.3106 C   0  0  0  0  0  0
   15.8849   44.2076  -10.7445 C   0  0  0  0  0  0
   14.6539   43.8957  -10.1377 C   0  0  0  0  0  0
   14.1834   42.5701  -10.1445 C   0  0  0  0  0  0
   17.8531   43.5563  -12.1566 C   0  0  0  0  0  0
   17.6585   44.1012  -13.2399 O   0  0  0  0  0  0
   19.0980   43.2815  -11.7555 N   0  0  0  0  0  0
   19.6477   42.7345  -10.5192 C   0  0  1  0  0  0
   20.3592   41.4072  -10.9005 C   0  0  0  0  0  0
   20.5989   43.8380   -9.9528 C   0  0  2  0  0  0
   21.4175   44.3281  -11.0055 O   0  0  0  0  0  0
   21.5816   43.4198   -8.8417 C   0  0  0  0  0  0
   20.9930   43.2346   -7.5035 N   0  0  0  0  0  0
   20.7283   44.4319   -6.6739 C   0  0  0  0  0  0
   19.9256   44.1932   -5.3841 C   0  0  0  0  0  0
   19.0928   45.3499   -5.6401 O   0  0  0  0  0  0
   19.4728   45.2517   -7.0317 C   0  0  0  0  0  0
   22.0117   45.2569   -6.3909 C   0  0  0  0  0  0
   23.3099   44.7113   -6.5679 C   0  0  0  0  0  0
   24.4810   45.4984   -6.4444 C   0  0  0  0  0  0
   24.3425   46.8240   -5.9690 C   0  0  0  0  0  0
   23.0713   47.3577   -5.6964 C   0  0  0  0  0  0
   21.9166   46.5900   -5.9245 C   0  0  0  0  0  0
   25.8619   44.9195   -6.8166 C   0  0  0  0  0  0
   26.4572   44.2304   -5.5831 C   0  0  0  0  0  0
   25.7637   43.8864   -7.9652 C   0  0  0  0  0  0
   26.8422   46.0160   -7.2930 C   0  0  0  0  0  0
   20.7699   40.8294   -8.8508 H   0  0  0  0  0  0
   18.8493   42.5407   -9.8018 H   0  0  0  0  0  0
   19.9983   44.6850   -9.6233 H   0  0  0  0  0  0
   21.4592   38.8693  -11.0774 H   0  0  0  0  0  0
   21.8355   38.6424   -9.3702 H   0  0  0  0  0  0
   22.5978   39.9311  -10.2685 H   0  0  0  0  0  0
   18.8876   39.0783  -10.4746 H   0  0  0  0  0  0
   18.3979   40.3270   -9.3689 H   0  0  0  0  0  0
   19.6224   39.0437   -7.4970 H   0  0  0  0  0  0
   19.8728   37.7583   -8.6537 H   0  0  0  0  0  0
   17.9322   37.0667   -7.5420 H   0  0  0  0  0  0
   17.3358   37.7321   -9.0259 H   0  0  0  0  0  0
   17.1252   39.9953   -7.4993 H   0  0  0  0  0  0
   17.2186   38.8412   -6.2075 H   0  0  0  0  0  0
   14.9524   38.8190   -6.4400 H   0  0  0  0  0  0
   15.2601   37.6093   -7.6411 H   0  0  0  0  0  0
   14.8488   40.5882   -8.1116 H   0  0  0  0  0  0
   13.6447   39.3497   -8.3408 H   0  0  0  0  0  0
   16.2356   39.4738   -9.9603 H   0  0  0  0  0  0
   14.9492   38.3091  -10.1645 H   0  0  0  0  0  0
   13.4550   40.1658  -10.6241 H   0  0  0  0  0  0
   16.8278   41.0614  -11.6985 H   0  0  0  0  0  0
   16.2079   45.2372  -10.8036 H   0  0  0  0  0  0
   14.0522   44.6774   -9.7000 H   0  0  0  0  0  0
   13.2232   42.3371   -9.7064 H   0  0  0  0  0  0
   19.8252   43.6091  -12.3756 H   0  0  0  0  0  0
   21.3396   41.6517  -11.3129 H   0  0  0  0  0  0
   19.8280   40.9324  -11.7282 H   0  0  0  0  0  0
   21.9610   45.0245  -10.6670 H   0  0  0  0  0  0
   22.3672   44.1711   -8.8016 H   0  0  0  0  0  0
   22.1058   42.5135   -9.1408 H   0  0  0  0  0  0
   21.5382   42.5692   -6.9627 H   0  0  0  0  0  0
   19.3376   43.2728   -5.3961 H   0  0  0  0  0  0
   20.5080   44.2678   -4.4652 H   0  0  0  0  0  0
   18.7276   44.6911   -7.6009 H   0  0  0  0  0  0
   19.6743   46.2116   -7.5080 H   0  0  0  0  0  0
   23.4069   43.6789   -6.8566 H   0  0  0  0  0  0
   25.2037   47.4535   -5.8061 H   0  0  0  0  0  0
   22.9778   48.3697   -5.3299 H   0  0  0  0  0  0
   20.9565   47.0413   -5.7260 H   0  0  0  0  0  0
   26.6357   44.9517   -4.7861 H   0  0  0  0  0  0
   27.4096   43.7506   -5.8114 H   0  0  0  0  0  0
   25.7761   43.4704   -5.1958 H   0  0  0  0  0  0
   25.2410   44.3013   -8.8277 H   0  0  0  0  0  0
   25.2546   42.9687   -7.6703 H   0  0  0  0  0  0
   26.7531   43.5826   -8.3081 H   0  0  0  0  0  0
   26.4311   46.5774   -8.1315 H   0  0  0  0  0  0
   27.7883   45.5852   -7.6216 H   0  0  0  0  0  0
   27.0927   46.7238   -6.5037 H   0  0  0  0  0  0
  1  2  1  0  0  0
  1 43  1  0  0  0
  1 44  1  0  0  0
  1 45  1  0  0  0
  2 40  1  0  0  0
  2 21  1  0  0  0
  2  3  1  0  0  0
  3  4  1  0  0  0
  3 46  1  0  0  0
  3 47  1  0  0  0
  4  5  1  0  0  0
  4 48  1  0  0  0
  4 49  1  0  0  0
  5  6  1  0  0  0
  5 50  1  0  0  0
  5 51  1  0  0  0
  6  7  1  0  0  0
  6 52  1  0  0  0
  6 53  1  0  0  0
  7  8  1  0  0  0
  7 54  1  0  0  0
  7 55  1  0  0  0
  8  9  1  0  0  0
  8 56  1  0  0  0
  8 57  1  0  0  0
  9 10  1  0  0  0
  9 58  1  0  0  0
  9 59  1  0  0  0
 10 11  1  0  0  0
 10 60  1  0  0  0
 11 16  1  0  0  0
 11 12  2  0  0  0
 12 13  1  0  0  0
 12 61  1  0  0  0
 13 14  2  0  0  0
 13 17  1  0  0  0
 14 15  1  0  0  0
 14 62  1  0  0  0
 15 16  2  0  0  0
 15 63  1  0  0  0
 16 64  1  0  0  0
 17 18  2  0  0  0
 17 19  1  0  0  0
 19 20  1  0  0  0
 19 65  1  0  0  0
 20 41  1  0  0  0
 20 21  1  0  0  0
 20 22  1  0  0  0
 21 66  1  0  0  0
 21 67  1  0  0  0
 22 42  1  0  0  0
 22 23  1  0  0  0
 22 24  1  0  0  0
 23 68  1  0  0  0
 24 25  1  0  0  0
 24 69  1  0  0  0
 24 70  1  0  0  0
 25 26  1  0  0  0
 25 71  1  0  0  0
 26 29  1  0  0  0
 26 27  1  0  0  0
 26 30  1  0  0  0
 27 28  1  0  0  0
 27 72  1  0  0  0
 27 73  1  0  0  0
 28 29  1  0  0  0
 29 74  1  0  0  0
 29 75  1  0  0  0
 30 35  1  0  0  0
 30 31  2  0  0  0
 31 32  1  0  0  0
 31 76  1  0  0  0
 32 33  2  0  0  0
 32 36  1  0  0  0
 33 34  1  0  0  0
 33 77  1  0  0  0
 34 35  2  0  0  0
 34 78  1  0  0  0
 35 79  1  0  0  0
 36 37  1  0  0  0
 36 38  1  0  0  0
 36 39  1  0  0  0
 37 80  1  0  0  0
 37 81  1  0  0  0
 37 82  1  0  0  0
 38 83  1  0  0  0
 38 84  1  0  0  0
 38 85  1  0  0  0
 39 86  1  0  0  0
 39 87  1  0  0  0
 39 88  1  0  0  0
M  END
> <s_m_source_file>
BACE_56.smi

> <i_m_source_file_index>
1

> <i_lp_mmshare_version>
42013

> <i_f3d_flags>
0

> <s_epik_input>
W05IXTFbQ0gyXVtDSDJdW0NIMl1bQ0gyXVtDSDJdW0NIMl1bQ0gyXVtDQEBIXShbQ0gzXSlbQ0gyXVtDQEhdKFtOSF1DKD1PKWMoW2NIXWMxMilbY0hdW2NIXVtjSF0yKVtDQEhdKFtPSF0pW0NIMl1bTkhdQzMoW0NIMl1PW0NIMl0zKWM0W2NIXWMoQyhbQ0gzXSkoW0NIM10pW0NIM10pW2NIXVtjSF1bY0hdNA==

> <s_epik_cmdline>
J2VwaWtfcHl0aG9uJywgJy1waCcsICc3LjAnLCAnLXRuJywgJzgnLCAnLW1hJywgJzIwMCcsICctaW1hZScsICc8aW5maWxlLm1hZT4nLCAnLW9tYWUnLCAnPG91dGZpbGUubWFlPic=

> <r_epik_Ionization_Penalty>
  0.7364

> <r_epik_Ionization_Penalty_Charging>
  0.0000

> <r_epik_Ionization_Penalty_Neutral>
  0.7364

> <r_epik_State_Penalty>
  0.7613

> <r_epik_Charging_Adjusted_Penalty>
0.761291

> <i_epik_Tot_Q>
0

> <i_epik_Tot_abs_Q>
0

> <s_lp_Force_Field>
OPLS_2005

> <r_lp_Energy>
57.7949

> <b_lp_Chiralities_Consistent>
1

> <s_lp_Variant>
BACE_56.smi:1-2

> <chiral flag>
1

> <version>
0

> <s_i_glide_gridfile>
second_dock_grid_2

> <i_i_glide_lignum>
15

> <i_i_glide_rotatable_bonds>
7

> <r_i_docking_score>
-2.66149

> <r_i_glide_ligand_efficiency>
-0.0682434

> <r_i_glide_ligand_efficiency_sa>
-0.231428

> <r_i_glide_ligand_efficiency_ln>
-0.570699

> <r_glide_XP_GScore>
-3.42279

> <r_i_glide_gscore>
-3.42279

> <r_i_glide_evdw>
-37.0241

> <r_i_glide_ecoul>
-12.2952

> <r_i_glide_energy>
-49.3193

> <r_i_glide_einternal>
7.72206

> <r_i_glide_emodel>
-63.0057

> <r_glide_XP_HBond>
-1.55303

> <i_i_glide_confnum>
1

> <i_i_glide_posenum>
16

> <r_i_glide_eff_state_penalty>
0.7613

> <i_glide_XP_PoseRank>
1

$$$$
BACE_57.smi:1
                    3D
 Structure written by MMmdl.
 89 91  0  0  1  0            999 V2000
   21.5174   38.8917   -9.9552 C   0  0  0  0  0  0
   21.3106   39.9388   -8.8420 C   0  0  2  0  0  0
   19.8282   40.2381   -8.5421 C   0  0  0  0  0  0
   18.8992   39.0354   -8.3000 C   0  0  0  0  0  0
   17.4422   39.5182   -8.2807 C   0  0  0  0  0  0
   16.3874   38.4325   -8.5330 C   0  0  0  0  0  0
   14.9786   39.0039   -8.8021 C   0  0  0  0  0  0
   14.8896   39.9163  -10.0469 C   0  0  0  0  0  0
   15.0023   41.4190   -9.7192 C   0  0  0  0  0  0
   15.1733   42.2483  -10.9044 N   0  0  0  0  0  0
   16.4557   42.7875  -11.0805 C   0  0  0  0  0  0
   17.5742   41.9755  -11.3822 C   0  0  0  0  0  0
   18.8525   42.5505  -11.5847 C   0  0  0  0  0  0
   18.9994   43.9510  -11.4760 C   0  0  0  0  0  0
   17.8912   44.7616  -11.1672 C   0  0  0  0  0  0
   16.6233   44.1823  -10.9803 C   0  0  0  0  0  0
   20.0021   41.6871  -12.0338 C   0  0  0  0  0  0
   19.8499   40.9471  -13.0028 O   0  0  0  0  0  0
   21.1812   41.7255  -11.3765 N   0  0  0  0  0  0
   21.5119   42.3046  -10.0710 C   0  0  1  0  0  0
   22.1165   41.2432   -9.0979 C   0  0  0  0  0  0
   22.4007   43.5657  -10.2646 C   0  0  2  0  0  0
   21.6041   44.6883  -10.5875 O   0  0  0  0  0  0
   23.4559   43.4161  -11.3781 C   0  0  0  0  0  0
   24.2523   42.1812  -11.1919 N   0  3  0  0  0  0
   25.5623   42.2808  -10.4954 C   0  0  0  0  0  0
   25.4512   43.2040   -9.2606 C   0  0  0  0  0  0
   26.0636   40.8912  -10.0492 C   0  0  0  0  0  0
   26.5367   42.8700  -11.4984 C   0  0  0  0  0  0
   27.7176   42.2970  -12.0531 C   0  0  0  0  0  0
   28.2292   43.2873  -12.8418 C   0  0  0  0  0  0
   29.4614   43.3786  -13.6859 C   0  0  0  0  0  0
   30.7524   42.7820  -13.0610 C   0  0  0  0  0  0
   30.3812   41.7661  -11.9631 C   0  0  0  0  0  0
   31.5672   43.9207  -12.4180 C   0  0  0  0  0  0
   31.6348   42.0850  -14.1191 C   0  0  0  0  0  0
   27.4337   44.3845  -12.7884 O   0  0  0  0  0  0
   26.3645   44.1126  -11.9299 N   0  0  0  0  0  0
   21.7336   39.4933   -7.9405 H   0  0  0  0  0  0
   20.5841   42.6452   -9.6159 H   0  0  0  0  0  0
   22.9172   43.8074   -9.3361 H   0  0  0  0  0  0
   20.9547   39.1274  -10.8568 H   0  0  0  0  0  0
   21.2008   37.9016   -9.6271 H   0  0  0  0  0  0
   22.5691   38.8072  -10.2297 H   0  0  0  0  0  0
   19.7617   40.9174   -7.6914 H   0  0  0  0  0  0
   19.4210   40.7823   -9.3888 H   0  0  0  0  0  0
   19.0121   38.3141   -9.1085 H   0  0  0  0  0  0
   19.1533   38.5189   -7.3741 H   0  0  0  0  0  0
   17.2287   40.0541   -7.3552 H   0  0  0  0  0  0
   17.3535   40.2432   -9.0826 H   0  0  0  0  0  0
   16.6858   37.8261   -9.3890 H   0  0  0  0  0  0
   16.3525   37.7556   -7.6788 H   0  0  0  0  0  0
   14.3038   38.1596   -8.9473 H   0  0  0  0  0  0
   14.6066   39.5283   -7.9210 H   0  0  0  0  0  0
   15.6463   39.6178  -10.7726 H   0  0  0  0  0  0
   13.9317   39.7507  -10.5413 H   0  0  0  0  0  0
   14.0868   41.7392   -9.2211 H   0  0  0  0  0  0
   15.7994   41.6248   -9.0069 H   0  0  0  0  0  0
   14.4337   42.9289  -11.0050 H   0  0  0  0  0  0
   17.4470   40.9083  -11.4914 H   0  0  0  0  0  0
   19.9508   44.4207  -11.6671 H   0  0  0  0  0  0
   18.0077   45.8330  -11.0981 H   0  0  0  0  0  0
   15.7757   44.8147  -10.7627 H   0  0  0  0  0  0
   21.9107   41.1525  -11.7759 H   0  0  0  0  0  0
   22.2595   41.7240   -8.1303 H   0  0  0  0  0  0
   23.1187   40.9646   -9.4239 H   0  0  0  0  0  0
   20.9907   44.8364   -9.8833 H   0  0  0  0  0  0
   22.9688   43.4211  -12.3515 H   0  0  0  0  0  0
   24.1261   44.2757  -11.3543 H   0  0  0  0  0  0
   23.6867   41.5199  -10.6788 H   0  0  0  0  0  0
   26.4258   43.3597   -8.7961 H   0  0  0  0  0  0
   24.8087   42.7834   -8.4873 H   0  0  0  0  0  0
   25.0516   44.1835   -9.5269 H   0  0  0  0  0  0
   27.0685   40.9555   -9.6298 H   0  0  0  0  0  0
   26.1029   40.1901  -10.8838 H   0  0  0  0  0  0
   25.4259   40.4532   -9.2812 H   0  0  0  0  0  0
   28.1409   41.3171  -11.8886 H   0  0  0  0  0  0
   29.2493   42.8561  -14.6196 H   0  0  0  0  0  0
   29.6292   44.4168  -13.9758 H   0  0  0  0  0  0
   31.2712   41.3278  -11.5101 H   0  0  0  0  0  0
   29.7814   40.9475  -12.3591 H   0  0  0  0  0  0
   29.8044   42.2347  -11.1651 H   0  0  0  0  0  0
   30.9847   44.4458  -11.6598 H   0  0  0  0  0  0
   31.8805   44.6562  -13.1600 H   0  0  0  0  0  0
   32.4685   43.5420  -11.9345 H   0  0  0  0  0  0
   32.5749   41.7463  -13.6838 H   0  0  0  0  0  0
   31.8797   42.7613  -14.9388 H   0  0  0  0  0  0
   31.1484   41.2085  -14.5477 H   0  0  0  0  0  0
   24.4302   41.7914  -12.1065 H   0  0  0  0  0  0
  1  2  1  0  0  0
  1 42  1  0  0  0
  1 43  1  0  0  0
  1 44  1  0  0  0
  2 39  1  0  0  0
  2 21  1  0  0  0
  2  3  1  0  0  0
  3  4  1  0  0  0
  3 45  1  0  0  0
  3 46  1  0  0  0
  4  5  1  0  0  0
  4 47  1  0  0  0
  4 48  1  0  0  0
  5  6  1  0  0  0
  5 49  1  0  0  0
  5 50  1  0  0  0
  6  7  1  0  0  0
  6 51  1  0  0  0
  6 52  1  0  0  0
  7  8  1  0  0  0
  7 53  1  0  0  0
  7 54  1  0  0  0
  8  9  1  0  0  0
  8 55  1  0  0  0
  8 56  1  0  0  0
  9 10  1  0  0  0
  9 57  1  0  0  0
  9 58  1  0  0  0
 10 11  1  0  0  0
 10 59  1  0  0  0
 11 16  1  0  0  0
 11 12  2  0  0  0
 12 13  1  0  0  0
 12 60  1  0  0  0
 13 14  2  0  0  0
 13 17  1  0  0  0
 14 15  1  0  0  0
 14 61  1  0  0  0
 15 16  2  0  0  0
 15 62  1  0  0  0
 16 63  1  0  0  0
 17 18  2  0  0  0
 17 19  1  0  0  0
 19 20  1  0  0  0
 19 64  1  0  0  0
 20 40  1  0  0  0
 20 21  1  0  0  0
 20 22  1  0  0  0
 21 65  1  0  0  0
 21 66  1  0  0  0
 22 41  1  0  0  0
 22 23  1  0  0  0
 22 24  1  0  0  0
 23 67  1  0  0  0
 24 25  1  0  0  0
 24 68  1  0  0  0
 24 69  1  0  0  0
 25 26  1  0  0  0
 25 70  1  0  0  0
 25 89  1  0  0  0
 26 27  1  0  0  0
 26 28  1  0  0  0
 26 29  1  0  0  0
 27 71  1  0  0  0
 27 72  1  0  0  0
 27 73  1  0  0  0
 28 74  1  0  0  0
 28 75  1  0  0  0
 28 76  1  0  0  0
 29 38  2  0  0  0
 29 30  1  0  0  0
 30 31  2  0  0  0
 30 77  1  0  0  0
 31 32  1  0  0  0
 31 37  1  0  0  0
 32 33  1  0  0  0
 32 78  1  0  0  0
 32 79  1  0  0  0
 33 34  1  0  0  0
 33 35  1  0  0  0
 33 36  1  0  0  0
 34 80  1  0  0  0
 34 81  1  0  0  0
 34 82  1  0  0  0
 35 83  1  0  0  0
 35 84  1  0  0  0
 35 85  1  0  0  0
 36 86  1  0  0  0
 36 87  1  0  0  0
 36 88  1  0  0  0
 37 38  1  0  0  0
M  CHG  1  25   1
M  END
> <s_m_source_file>
BACE_57.smi

> <i_m_source_file_index>
1

> <i_lp_mmshare_version>
42013

> <i_f3d_flags>
0

> <s_epik_input>
W05IXTFbQ0gyXVtDSDJdW0NIMl1bQ0gyXVtDSDJdW0NIMl1bQ0gyXVtDQEBIXShbQ0gzXSlbQ0gyXVtDQEhdKFtOSF1DKD1PKWMoW2NIXWMxMilbY0hdW2NIXVtjSF0yKVtDQEhdKFtPSF0pW0NIMl1bTkhdQyhbQ0gzXSkoW0NIM10pYzNbY0hdYyhvbjMpW0NIMl1DKFtDSDNdKShbQ0gzXSlbQ0gzXQ==

> <s_epik_cmdline>
J2VwaWtfcHl0aG9uJywgJy1waCcsICc3LjAnLCAnLXRuJywgJzgnLCAnLW1hJywgJzIwMCcsICctaW1hZScsICc8aW5maWxlLm1hZT4nLCAnLW9tYWUnLCAnPG91dGZpbGUubWFlPic=

> <r_epik_Ionization_Penalty>
  0.2150

> <r_epik_Ionization_Penalty_Charging>
  0.2143

> <r_epik_Ionization_Penalty_Neutral>
  0.0007

> <r_epik_State_Penalty>
  0.2045

> <r_epik_Charging_Adjusted_Penalty>
0.418799

> <i_epik_Tot_Q>
1

> <i_epik_Tot_abs_Q>
1

> <s_lp_Force_Field>
OPLS_2005

> <r_lp_Energy>
40.582

> <b_lp_Chiralities_Consistent>
1

> <s_lp_Variant>
BACE_57.smi:1-1

> <chiral flag>
1

> <version>
0

> <s_i_glide_gridfile>
second_dock_grid_2

> <i_i_glide_lignum>
16

> <i_i_glide_rotatable_bonds>
8

> <r_i_docking_score>
-3.48282

> <r_i_glide_ligand_efficiency>
-0.0916532

> <r_i_glide_ligand_efficiency_sa>
-0.308136

> <r_i_glide_ligand_efficiency_ln>
-0.750998

> <r_glide_XP_GScore>
-3.68732

> <r_i_glide_gscore>
-3.68732

> <r_i_glide_evdw>
-36.738

> <r_i_glide_ecoul>
-12.5592

> <r_i_glide_energy>
-49.2973

> <r_i_glide_einternal>
6.53417

> <r_i_glide_emodel>
-69.8902

> <r_glide_XP_HBond>
-0.439331

> <i_i_glide_confnum>
1

> <i_i_glide_posenum>
8

> <r_i_glide_eff_state_penalty>
0.2045

> <i_glide_XP_PoseRank>
1

$$$$
