BACE_62.smi:1
                    3D
 Structure written by MMmdl.
 87 90  0  0  1  0            999 V2000
   19.8577   45.7154   -6.6783 C   0  0  0  0  0  0
   19.6452   46.4705   -7.8617 O   0  0  0  0  0  0
   18.3058   46.4436   -8.3379 C   0  0  0  0  0  0
   17.8729   45.0853   -8.8590 C   0  0  0  0  0  0
   17.1125   44.2292   -8.0373 C   0  0  0  0  0  0
   16.7128   42.9612   -8.4969 C   0  0  0  0  0  0
   17.0649   42.5558   -9.8027 C   0  0  0  0  0  0
   17.8123   43.4115  -10.6366 C   0  0  0  0  0  0
   18.2177   44.6773  -10.1638 C   0  0  0  0  0  0
   18.1360   42.9849  -12.0324 C   0  0  0  0  0  0
   17.4371   43.3650  -12.9694 O   0  0  0  0  0  0
   19.1776   42.1612  -12.2209 N   0  0  0  0  0  0
   20.1777   41.6711  -11.2695 C   0  0  1  0  0  0
   20.1342   40.1226  -11.2966 C   0  0  0  0  0  0
   19.4071   39.4829  -10.0962 C   0  0  2  0  0  0
   20.2908   39.5325   -8.8409 C   0  0  0  0  0  0
   18.9703   38.0589  -10.4780 C   0  0  0  0  0  0
   18.5306   37.1238   -9.3427 C   0  0  0  0  0  0
   17.3866   37.6224   -8.4564 C   0  0  0  0  0  0
   16.0524   37.8227   -9.1952 C   0  0  0  0  0  0
   14.9694   38.4884   -8.3291 C   0  0  0  0  0  0
   14.9602   40.0224   -8.3792 C   0  0  0  0  0  0
   16.1372   40.7091   -7.6810 C   0  0  0  0  0  0
   15.9627   42.1500   -7.6399 N   0  0  0  0  0  0
   21.5503   42.2973  -11.6422 C   0  0  2  0  0  0
   22.0517   41.7502  -12.8400 O   0  0  0  0  0  0
   22.6383   42.3066  -10.5543 C   0  0  0  0  0  0
   22.9484   40.9787  -10.0261 N   0  0  0  0  0  0
   23.8563   40.9716   -8.8813 C   0  0  0  0  0  0
   23.2599   41.6381   -7.6556 C   0  0  0  0  0  0
   22.4623   40.9048   -6.7530 C   0  0  0  0  0  0
   21.9248   41.5202   -5.6084 C   0  0  0  0  0  0
   21.2595   40.7035   -4.7208 O   0  0  0  0  0  0
   21.4047   41.0418   -3.3488 C   0  0  0  0  0  0
   20.4060   42.1221   -2.9336 C   0  0  0  0  0  0
   20.2350   43.1815   -4.0194 C   0  0  0  0  0  0
   21.5013   43.6578   -4.4399 O   0  0  0  0  0  0
   22.1131   42.9211   -5.4225 C   0  0  0  0  0  0
   22.9421   43.6360   -6.3055 C   0  0  0  0  0  0
   23.5224   42.9992   -7.4127 C   0  0  0  0  0  0
   19.9401   42.0194  -10.2650 H   0  0  0  0  0  0
   18.5020   40.0521   -9.8921 H   0  0  0  0  0  0
   21.3736   43.3525  -11.8574 H   0  0  0  0  0  0
   20.8747   45.8752   -6.3233 H   0  0  0  0  0  0
   19.7347   44.6468   -6.8563 H   0  0  0  0  0  0
   19.1756   46.0187   -5.8831 H   0  0  0  0  0  0
   18.2245   47.1670   -9.1498 H   0  0  0  0  0  0
   17.6208   46.7876   -7.5595 H   0  0  0  0  0  0
   16.8503   44.5393   -7.0362 H   0  0  0  0  0  0
   16.7458   41.5953  -10.1803 H   0  0  0  0  0  0
   18.7934   45.3353  -10.7983 H   0  0  0  0  0  0
   19.3407   41.8728  -13.1714 H   0  0  0  0  0  0
   21.1359   39.7004  -11.3597 H   0  0  0  0  0  0
   19.6609   39.7944  -12.2240 H   0  0  0  0  0  0
   19.7952   39.1501   -7.9517 H   0  0  0  0  0  0
   20.5635   40.5604   -8.6139 H   0  0  0  0  0  0
   21.2086   38.9608   -8.9783 H   0  0  0  0  0  0
   19.7879   37.5699  -11.0034 H   0  0  0  0  0  0
   18.1699   38.1502  -11.2069 H   0  0  0  0  0  0
   19.3964   36.9500   -8.7112 H   0  0  0  0  0  0
   18.2605   36.1522   -9.7559 H   0  0  0  0  0  0
   17.6905   38.5284   -7.9472 H   0  0  0  0  0  0
   17.2580   36.8989   -7.6541 H   0  0  0  0  0  0
   16.1915   38.4108  -10.1018 H   0  0  0  0  0  0
   15.6955   36.8468   -9.5221 H   0  0  0  0  0  0
   13.9943   38.1603   -8.6909 H   0  0  0  0  0  0
   15.0304   38.1492   -7.2943 H   0  0  0  0  0  0
   14.0601   40.3448   -7.8688 H   0  0  0  0  0  0
   14.8690   40.3640   -9.4101 H   0  0  0  0  0  0
   17.0793   40.4786   -8.1696 H   0  0  0  0  0  0
   16.2177   40.3475   -6.6540 H   0  0  0  0  0  0
   15.6772   42.5330   -6.7360 H   0  0  0  0  0  0
   22.9245   41.3710  -12.7244 H   0  0  0  0  0  0
   22.2772   42.9503   -9.7532 H   0  0  0  0  0  0
   23.5436   42.7795  -10.9386 H   0  0  0  0  0  0
   23.3213   40.3812  -10.7583 H   0  0  0  0  0  0
   24.8021   41.4500   -9.1417 H   0  0  0  0  0  0
   24.0985   39.9435   -8.6131 H   0  0  0  0  0  0
   22.3017   39.8489   -6.9131 H   0  0  0  0  0  0
   21.2379   40.1500   -2.7514 H   0  0  0  0  0  0
   22.4300   41.3568   -3.1401 H   0  0  0  0  0  0
   19.4392   41.6711   -2.7151 H   0  0  0  0  0  0
   20.7430   42.5863   -2.0061 H   0  0  0  0  0  0
   19.6631   44.0176   -3.6382 H   0  0  0  0  0  0
   19.6603   42.8020   -4.8658 H   0  0  0  0  0  0
   23.1088   44.6908   -6.1472 H   0  0  0  0  0  0
   24.1458   43.5622   -8.0914 H   0  0  0  0  0  0
  1  2  1  0  0  0
  1 44  1  0  0  0
  1 45  1  0  0  0
  1 46  1  0  0  0
  2  3  1  0  0  0
  3  4  1  0  0  0
  3 47  1  0  0  0
  3 48  1  0  0  0
  4  9  1  0  0  0
  4  5  2  0  0  0
  5  6  1  0  0  0
  5 49  1  0  0  0
  6 24  1  0  0  0
  6  7  2  0  0  0
  7  8  1  0  0  0
  7 50  1  0  0  0
  8  9  2  0  0  0
  8 10  1  0  0  0
  9 51  1  0  0  0
 10 11  2  0  0  0
 10 12  1  0  0  0
 12 13  1  0  0  0
 12 52  1  0  0  0
 13 41  1  0  0  0
 13 14  1  0  0  0
 13 25  1  0  0  0
 14 15  1  0  0  0
 14 53  1  0  0  0
 14 54  1  0  0  0
 15 42  1  0  0  0
 15 16  1  0  0  0
 15 17  1  0  0  0
 16 55  1  0  0  0
 16 56  1  0  0  0
 16 57  1  0  0  0
 17 18  1  0  0  0
 17 58  1  0  0  0
 17 59  1  0  0  0
 18 19  1  0  0  0
 18 60  1  0  0  0
 18 61  1  0  0  0
 19 20  1  0  0  0
 19 62  1  0  0  0
 19 63  1  0  0  0
 20 21  1  0  0  0
 20 64  1  0  0  0
 20 65  1  0  0  0
 21 22  1  0  0  0
 21 66  1  0  0  0
 21 67  1  0  0  0
 22 23  1  0  0  0
 22 68  1  0  0  0
 22 69  1  0  0  0
 23 24  1  0  0  0
 23 70  1  0  0  0
 23 71  1  0  0  0
 24 72  1  0  0  0
 25 43  1  0  0  0
 25 26  1  0  0  0
 25 27  1  0  0  0
 26 73  1  0  0  0
 27 28  1  0  0  0
 27 74  1  0  0  0
 27 75  1  0  0  0
 28 29  1  0  0  0
 28 76  1  0  0  0
 29 30  1  0  0  0
 29 77  1  0  0  0
 29 78  1  0  0  0
 30 40  1  0  0  0
 30 31  2  0  0  0
 31 32  1  0  0  0
 31 79  1  0  0  0
 32 38  2  0  0  0
 32 33  1  0  0  0
 33 34  1  0  0  0
 34 35  1  0  0  0
 34 80  1  0  0  0
 34 81  1  0  0  0
 35 36  1  0  0  0
 35 82  1  0  0  0
 35 83  1  0  0  0
 36 37  1  0  0  0
 36 84  1  0  0  0
 36 85  1  0  0  0
 37 38  1  0  0  0
 38 39  1  0  0  0
 39 40  2  0  0  0
 39 86  1  0  0  0
 40 87  1  0  0  0
M  END
> <s_m_source_file>
BACE_62.smi

> <i_m_source_file_index>
1

> <i_lp_mmshare_version>
42013

> <i_f3d_flags>
0

> <s_epik_input>
W05IXTFbQ0gyXVtDSDJdW0NIMl1bQ0gyXVtDSDJdW0NIMl1bQ0gyXVtDQEBIXShbQ0gzXSlbQ0gyXVtDQEhdKFtOSF1DKD1PKWMoW2NIXTIpW2NIXWMoW2NIXWMxMilbQ0gyXU9bQ0gzXSlbQ0BIXShbT0hdKVtDSDJdW05IXVtDSDJdYyhbY0hdMylbY0hdW2NIXWMoYzM0KU9bQ0gyXVtDSDJdW0NIMl1PNA==

> <s_epik_cmdline>
J2VwaWtfcHl0aG9uJywgJy1waCcsICc3LjAnLCAnLXRuJywgJzgnLCAnLW1hJywgJzIwMCcsICctaW1hZScsICc8aW5maWxlLm1hZT4nLCAnLW9tYWUnLCAnPG91dGZpbGUubWFlPic=

> <r_lp_tautomer_probability>
1

> <r_epik_Ionization_Penalty>
  2.1365

> <r_epik_Ionization_Penalty_Charging>
  0.0000

> <r_epik_Ionization_Penalty_Neutral>
  2.1365

> <r_epik_State_Penalty>
  2.2746

> <r_epik_Charging_Adjusted_Penalty>
2.27465

> <i_epik_Tot_Q>
0

> <i_epik_Tot_abs_Q>
0

> <s_lp_Force_Field>
OPLS_2005

> <r_lp_Energy>
56.6392

> <b_lp_Chiralities_Consistent>
1

> <s_lp_Variant>
BACE_62.smi:1-2

> <chiral flag>
1

> <version>
0

> <s_i_glide_gridfile>
second_dock_grid_2

> <i_i_glide_lignum>
23

> <i_i_glide_rotatable_bonds>
8

> <r_i_docking_score>
-3.74566

> <r_i_glide_ligand_efficiency>
-0.0936414

> <r_i_glide_ligand_efficiency_sa>
-0.320249

> <r_i_glide_ligand_efficiency_ln>
-0.798838

> <r_glide_XP_GScore>
-6.02026

> <r_i_glide_gscore>
-6.02026

> <r_i_glide_evdw>
-34.232

> <r_i_glide_ecoul>
-15.096

> <r_i_glide_energy>
-49.3281

> <r_i_glide_einternal>
10.6693

> <r_i_glide_emodel>
-69.0688

> <r_glide_XP_HBond>
-2.09427

> <i_i_glide_confnum>
1

> <i_i_glide_posenum>
9

> <r_i_glide_eff_state_penalty>
2.2746

> <i_glide_XP_PoseRank>
1

$$$$
BACE_63.smi:1
                    3D
 Structure written by MMmdl.
 99102  0  0  1  0            999 V2000
   17.8430   48.1511   -6.9579 C   0  0  0  0  0  0
   17.6255   46.8190   -7.3873 O   0  0  0  0  0  0
   17.4072   46.7181   -8.7865 C   0  0  0  0  0  0
   17.2216   45.2796   -9.2346 C   0  0  0  0  0  0
   16.4877   44.3740   -8.4413 C   0  0  0  0  0  0
   16.3059   43.0361   -8.8507 C   0  0  0  0  0  0
   16.8823   42.6064  -10.0654 C   0  0  0  0  0  0
   17.5974   43.5092  -10.8789 C   0  0  0  0  0  0
   17.7515   44.8499  -10.4693 C   0  0  0  0  0  0
   18.1320   43.0534  -12.1992 C   0  0  0  0  0  0
   17.6583   43.4985  -13.2403 O   0  0  0  0  0  0
   19.0969   42.1216  -12.2182 N   0  0  0  0  0  0
   20.0021   41.7238  -11.1389 C   0  0  1  0  0  0
   20.1832   40.1913  -11.1517 C   0  0  0  0  0  0
   19.5019   39.4743   -9.9672 C   0  0  2  0  0  0
   20.3744   39.5263   -8.6984 C   0  0  0  0  0  0
   19.1595   38.0408  -10.3972 C   0  0  0  0  0  0
   18.5220   37.1257   -9.3399 C   0  0  0  0  0  0
   17.2218   37.6329   -8.7061 C   0  0  0  0  0  0
   16.0813   37.9111   -9.6895 C   0  0  0  0  0  0
   14.8375   38.5156   -9.0223 C   0  0  0  0  0  0
   14.7812   40.0491   -9.0716 C   0  0  0  0  0  0
   15.7347   40.7449   -8.0853 C   0  0  0  0  0  0
   15.5394   42.1865   -8.0399 N   0  0  0  0  0  0
   21.3133   42.5259  -11.2910 C   0  0  2  0  0  0
   22.0599   42.1501  -12.4398 O   0  0  0  0  0  0
   22.2189   42.5067  -10.0526 C   0  0  0  0  0  0
   23.2150   41.4096  -10.1230 N   0  3  0  0  0  0
   24.3820   41.4396   -9.2135 C   0  0  1  0  0  0
   25.6651   41.2455  -10.0395 C   0  0  0  0  0  0
   26.3006   42.5655  -10.5279 C   0  0  0  0  0  0
   27.7081   42.2678  -11.0701 C   0  0  0  0  0  0
   25.4846   43.2665  -11.6288 C   0  0  0  0  0  0
   26.4793   43.4906   -9.4555 O   0  0  0  0  0  0
   25.4917   43.6226   -8.5002 C   0  0  0  0  0  0
   25.5835   44.7156   -7.6163 C   0  0  0  0  0  0
   24.6716   44.8623   -6.5538 C   0  0  0  0  0  0
   23.6537   43.9070   -6.3521 C   0  0  0  0  0  0
   23.5540   42.8161   -7.2400 C   0  0  0  0  0  0
   24.4608   42.6692   -8.3148 C   0  0  0  0  0  0
   22.6816   44.0546   -5.1878 C   0  0  0  0  0  0
   21.2710   44.4150   -5.6800 C   0  0  0  0  0  0
   22.6607   42.8052   -4.2890 C   0  0  0  0  0  0
   19.5734   42.0103  -10.1781 H   0  0  0  0  0  0
   18.5598   39.9781   -9.7542 H   0  0  0  0  0  0
   21.0318   43.5709  -11.4403 H   0  0  0  0  0  0
   24.2751   40.5708   -8.5624 H   0  0  0  0  0  0
   17.9709   48.1696   -5.8756 H   0  0  0  0  0  0
   17.0003   48.7945   -7.2077 H   0  0  0  0  0  0
   18.7447   48.5670   -7.4083 H   0  0  0  0  0  0
   18.2549   47.1540   -9.3194 H   0  0  0  0  0  0
   16.5178   47.2848   -9.0668 H   0  0  0  0  0  0
   16.0615   44.7091   -7.5071 H   0  0  0  0  0  0
   16.7623   41.5897  -10.4038 H   0  0  0  0  0  0
   18.2906   45.5458  -11.0974 H   0  0  0  0  0  0
   19.3531   41.7823  -13.1308 H   0  0  0  0  0  0
   21.2344   39.9075  -11.1784 H   0  0  0  0  0  0
   19.7842   39.8026  -12.0909 H   0  0  0  0  0  0
   19.8711   39.0661   -7.8487 H   0  0  0  0  0  0
   20.5894   40.5513   -8.4013 H   0  0  0  0  0  0
   21.3239   39.0068   -8.8411 H   0  0  0  0  0  0
   18.4795   38.1147  -11.2399 H   0  0  0  0  0  0
   20.0598   37.5609  -10.7746 H   0  0  0  0  0  0
   18.3352   36.1498   -9.7856 H   0  0  0  0  0  0
   19.2454   36.9515   -8.5478 H   0  0  0  0  0  0
   16.8694   36.8528   -8.0394 H   0  0  0  0  0  0
   17.4303   38.4970   -8.0797 H   0  0  0  0  0  0
   16.4074   38.5660  -10.4960 H   0  0  0  0  0  0
   15.8053   36.9615  -10.1478 H   0  0  0  0  0  0
   13.9610   38.1493   -9.5546 H   0  0  0  0  0  0
   14.7259   38.1577   -7.9972 H   0  0  0  0  0  0
   13.7606   40.3376   -8.8409 H   0  0  0  0  0  0
   14.9461   40.3923  -10.0916 H   0  0  0  0  0  0
   15.5573   40.3571   -7.0808 H   0  0  0  0  0  0
   16.7749   40.5285   -8.3169 H   0  0  0  0  0  0
   15.2624   42.5440   -7.1247 H   0  0  0  0  0  0
   22.2714   41.2247  -12.4475 H   0  0  0  0  0  0
   21.6248   42.4446   -9.1399 H   0  0  0  0  0  0
   22.7226   43.4711  -10.0136 H   0  0  0  0  0  0
   23.5968   41.4496  -11.0605 H   0  0  0  0  0  0
   26.3956   40.7343   -9.4197 H   0  0  0  0  0  0
   25.4989   40.5513  -10.8635 H   0  0  0  0  0  0
   27.6709   41.5818  -11.9170 H   0  0  0  0  0  0
   28.3401   41.8115  -10.3077 H   0  0  0  0  0  0
   28.2051   43.1783  -11.4053 H   0  0  0  0  0  0
   25.2784   42.5914  -12.4530 H   0  0  0  0  0  0
   26.0272   44.1214  -12.0344 H   0  0  0  0  0  0
   24.5339   43.6471  -11.2703 H   0  0  0  0  0  0
   26.3769   45.4378   -7.7426 H   0  0  0  0  0  0
   24.7705   45.7021   -5.8820 H   0  0  0  0  0  0
   22.7849   42.0729   -7.0856 H   0  0  0  0  0  0
   23.0324   44.8822   -4.5696 H   0  0  0  0  0  0
   21.2837   45.3316   -6.2690 H   0  0  0  0  0  0
   20.5915   44.5700   -4.8412 H   0  0  0  0  0  0
   20.8493   43.6245   -6.3030 H   0  0  0  0  0  0
   23.6605   42.5605   -3.9280 H   0  0  0  0  0  0
   22.2736   41.9301   -4.8141 H   0  0  0  0  0  0
   22.0284   42.9677   -3.4153 H   0  0  0  0  0  0
   22.7489   40.5207  -10.0115 H   0  0  0  0  0  0
  1  2  1  0  0  0
  1 48  1  0  0  0
  1 49  1  0  0  0
  1 50  1  0  0  0
  2  3  1  0  0  0
  3  4  1  0  0  0
  3 51  1  0  0  0
  3 52  1  0  0  0
  4  9  1  0  0  0
  4  5  2  0  0  0
  5  6  1  0  0  0
  5 53  1  0  0  0
  6 24  1  0  0  0
  6  7  2  0  0  0
  7  8  1  0  0  0
  7 54  1  0  0  0
  8  9  2  0  0  0
  8 10  1  0  0  0
  9 55  1  0  0  0
 10 11  2  0  0  0
 10 12  1  0  0  0
 12 13  1  0  0  0
 12 56  1  0  0  0
 13 44  1  0  0  0
 13 14  1  0  0  0
 13 25  1  0  0  0
 14 15  1  0  0  0
 14 57  1  0  0  0
 14 58  1  0  0  0
 15 45  1  0  0  0
 15 16  1  0  0  0
 15 17  1  0  0  0
 16 59  1  0  0  0
 16 60  1  0  0  0
 16 61  1  0  0  0
 17 18  1  0  0  0
 17 62  1  0  0  0
 17 63  1  0  0  0
 18 19  1  0  0  0
 18 64  1  0  0  0
 18 65  1  0  0  0
 19 20  1  0  0  0
 19 66  1  0  0  0
 19 67  1  0  0  0
 20 21  1  0  0  0
 20 68  1  0  0  0
 20 69  1  0  0  0
 21 22  1  0  0  0
 21 70  1  0  0  0
 21 71  1  0  0  0
 22 23  1  0  0  0
 22 72  1  0  0  0
 22 73  1  0  0  0
 23 24  1  0  0  0
 23 74  1  0  0  0
 23 75  1  0  0  0
 24 76  1  0  0  0
 25 46  1  0  0  0
 25 26  1  0  0  0
 25 27  1  0  0  0
 26 77  1  0  0  0
 27 28  1  0  0  0
 27 78  1  0  0  0
 27 79  1  0  0  0
 28 29  1  0  0  0
 28 80  1  0  0  0
 28 99  1  0  0  0
 29 47  1  0  0  0
 29 40  1  0  0  0
 29 30  1  0  0  0
 30 31  1  0  0  0
 30 81  1  0  0  0
 30 82  1  0  0  0
 31 32  1  0  0  0
 31 33  1  0  0  0
 31 34  1  0  0  0
 32 83  1  0  0  0
 32 84  1  0  0  0
 32 85  1  0  0  0
 33 86  1  0  0  0
 33 87  1  0  0  0
 33 88  1  0  0  0
 34 35  1  0  0  0
 35 40  2  0  0  0
 35 36  1  0  0  0
 36 37  2  0  0  0
 36 89  1  0  0  0
 37 38  1  0  0  0
 37 90  1  0  0  0
 38 39  2  0  0  0
 38 41  1  0  0  0
 39 40  1  0  0  0
 39 91  1  0  0  0
 41 42  1  0  0  0
 41 43  1  0  0  0
 41 92  1  0  0  0
 42 93  1  0  0  0
 42 94  1  0  0  0
 42 95  1  0  0  0
 43 96  1  0  0  0
 43 97  1  0  0  0
 43 98  1  0  0  0
M  CHG  1  28   1
M  END
> <s_m_source_file>
BACE_63.smi

> <i_m_source_file_index>
1

> <i_lp_mmshare_version>
42013

> <i_f3d_flags>
0

> <s_epik_input>
W2NIXTFbY0hdYyhbQ0hdKFtDSDNdKVtDSDNdKVtjSF1jKGMxMilbQ0BIXShbQ0gyXUMoTzIpKFtDSDNdKVtDSDNdKVtOSF1bQ0gyXVtDQEBIXShbT0hdKVtDQEBIXShbTkhdQyg9TyljKFtjSF0zKVtjSF1jKFtjSF1jMzQpW0NIMl1PW0NIM10pW0NIMl1bQ0BIXShbQ0gzXSlbQ0gyXVtDSDJdW0NIMl1bQ0gyXVtDSDJdW0NIMl1bQ0gyXVtOSF00

> <s_epik_cmdline>
J2VwaWtfcHl0aG9uJywgJy1waCcsICc3LjAnLCAnLXRuJywgJzgnLCAnLW1hJywgJzIwMCcsICctaW1hZScsICc8aW5maWxlLm1hZT4nLCAnLW9tYWUnLCAnPG91dGZpbGUubWFlPic=

> <r_lp_tautomer_probability>
1

> <r_epik_Ionization_Penalty>
  0.0176

> <r_epik_Ionization_Penalty_Charging>
  0.0170

> <r_epik_Ionization_Penalty_Neutral>
  0.0006

> <r_epik_State_Penalty>
  0.0135

> <r_epik_Charging_Adjusted_Penalty>
0.0305184

> <i_epik_Tot_Q>
1

> <i_epik_Tot_abs_Q>
1

> <s_lp_Force_Field>
OPLS_2005

> <r_lp_Energy>
47.065

> <b_lp_Chiralities_Consistent>
1

> <s_lp_Variant>
BACE_63.smi:1-1

> <chiral flag>
1

> <version>
0

> <s_i_glide_gridfile>
second_dock_grid_2

> <i_i_glide_lignum>
24

> <i_i_glide_rotatable_bonds>
8

> <r_i_docking_score>
-5.95879

> <r_i_glide_ligand_efficiency>
-0.138577

> <r_i_glide_ligand_efficiency_sa>
-0.485489

> <r_i_glide_ligand_efficiency_ln>
-1.25153

> <r_glide_XP_GScore>
-5.97229

> <r_i_glide_gscore>
-5.97229

> <r_i_glide_evdw>
-41.3875

> <r_i_glide_ecoul>
-13.3151

> <r_i_glide_energy>
-54.7026

> <r_i_glide_einternal>
7.83749

> <r_i_glide_emodel>
-77.6291

> <r_glide_XP_HBond>
-1.88644

> <i_i_glide_confnum>
1

> <i_i_glide_posenum>
5

> <r_i_glide_eff_state_penalty>
0.0135

> <i_glide_XP_PoseRank>
1

$$$$
