BACE_81.smi:1
                    3D
 Structure written by MMmdl.
 92 96  0  0  1  0            999 V2000
   22.4373   47.7487   -7.4659 C   0  0  0  0  0  0
   21.9144   46.3136   -7.2825 C   0  0  2  0  0  0
   23.0910   45.3227   -7.1200 C   0  0  0  0  0  0
   23.6218   45.2102   -5.6778 C   0  0  0  0  0  0
   22.7322   44.3664   -4.7466 C   0  0  0  0  0  0
   22.8436   42.8592   -5.0110 C   0  0  0  0  0  0
   21.8681   42.0239   -4.1689 C   0  0  0  0  0  0
   21.8814   40.5136   -4.4851 C   0  0  0  0  0  0
   21.3288   40.1420   -5.8771 C   0  0  0  0  0  0
   22.3898   40.1217   -6.8328 O   0  0  0  0  0  0
   22.3591   40.9136   -7.9642 C   0  0  0  0  0  0
   23.5886   41.0705   -8.6393 C   0  0  0  0  0  0
   23.7010   41.9000   -9.7750 C   0  0  0  0  0  0
   22.5537   42.5502  -10.2668 C   0  0  0  0  0  0
   21.3154   42.4025   -9.6154 C   0  0  0  0  0  0
   21.2127   41.5759   -8.4728 C   0  0  0  0  0  0
   20.1201   43.1171  -10.1660 C   0  0  0  0  0  0
   19.6245   42.7633  -11.2333 O   0  0  0  0  0  0
   19.6365   44.1780   -9.4960 N   0  0  0  0  0  0
   20.0228   44.7276   -8.1959 C   0  0  1  0  0  0
   20.9879   45.9170   -8.4563 C   0  0  0  0  0  0
   18.7385   45.1329   -7.4005 C   0  0  2  0  0  0
   19.0800   45.3468   -6.0446 O   0  0  0  0  0  0
   17.5844   44.0950   -7.3675 C   0  0  0  0  0  0
   16.8954   43.9772   -8.6580 N   0  0  0  0  0  0
   15.6848   43.1595   -8.6686 C   0  0  0  0  0  0
   14.7372   43.3935   -9.8235 C   0  0  0  0  0  0
   14.3513   43.8431   -8.4397 C   0  0  0  0  0  0
   15.9259   41.7309   -8.2565 C   0  0  0  0  0  0
   16.7612   40.8467   -8.9753 C   0  0  0  0  0  0
   16.9857   39.5282   -8.5004 C   0  0  0  0  0  0
   16.3204   39.1400   -7.3134 C   0  0  0  0  0  0
   15.4917   40.0495   -6.6389 C   0  0  0  0  0  0
   15.3467   41.3039   -7.1156 N   0  3  0  0  0  0
   17.9193   38.5315   -9.2071 C   0  0  0  0  0  0
   17.1649   37.2175   -9.4879 C   0  0  0  0  0  0
   18.4637   39.0696  -10.5492 C   0  0  0  0  0  0
   19.1257   38.2246   -8.3004 C   0  0  0  0  0  0
   24.9838   42.1058  -10.4397 C   0  0  0  0  0  0
   25.3047   43.0498  -11.3268 N   0  0  0  0  0  0
   26.6360   42.8243  -11.6377 C   0  0  0  0  0  0
   27.0632   41.7502  -10.9058 C   0  0  0  0  0  0
   26.0284   41.2887  -10.1363 O   0  0  0  0  0  0
   21.3291   46.3232   -6.3667 H   0  0  0  0  0  0
   20.5415   43.9613   -7.6212 H   0  0  0  0  0  0
   18.3442   46.0718   -7.7900 H   0  0  0  0  0  0
   23.0221   47.8432   -8.3814 H   0  0  0  0  0  0
   23.0739   48.0481   -6.6326 H   0  0  0  0  0  0
   21.6149   48.4634   -7.5207 H   0  0  0  0  0  0
   23.9059   45.6284   -7.7758 H   0  0  0  0  0  0
   22.8121   44.3352   -7.4801 H   0  0  0  0  0  0
   23.7463   46.2070   -5.2561 H   0  0  0  0  0  0
   24.6218   44.7756   -5.6901 H   0  0  0  0  0  0
   21.6929   44.6842   -4.8301 H   0  0  0  0  0  0
   23.0249   44.5570   -3.7133 H   0  0  0  0  0  0
   23.8679   42.5410   -4.8214 H   0  0  0  0  0  0
   22.6520   42.6722   -6.0608 H   0  0  0  0  0  0
   22.1103   42.1641   -3.1149 H   0  0  0  0  0  0
   20.8525   42.4043   -4.2958 H   0  0  0  0  0  0
   21.2554   40.0245   -3.7376 H   0  0  0  0  0  0
   22.8809   40.0986   -4.3479 H   0  0  0  0  0  0
   20.4848   40.7862   -6.1083 H   0  0  0  0  0  0
   20.9295   39.1288   -5.8414 H   0  0  0  0  0  0
   24.4602   40.5597   -8.2569 H   0  0  0  0  0  0
   22.6253   43.1797  -11.1421 H   0  0  0  0  0  0
   20.2409   41.4698   -8.0162 H   0  0  0  0  0  0
   18.9090   44.6888   -9.9714 H   0  0  0  0  0  0
   21.6248   45.6965   -9.3145 H   0  0  0  0  0  0
   20.3935   46.7797   -8.7615 H   0  0  0  0  0  0
   19.5274   44.5741   -5.7300 H   0  0  0  0  0  0
   16.8614   44.4077   -6.6169 H   0  0  0  0  0  0
   17.9628   43.1238   -7.0427 H   0  0  0  0  0  0
   17.5459   43.6015   -9.3384 H   0  0  0  0  0  0
   14.9798   44.1743  -10.5413 H   0  0  0  0  0  0
   14.1992   42.5375  -10.2260 H   0  0  0  0  0  0
   13.5591   43.2901   -7.9410 H   0  0  0  0  0  0
   14.3655   44.9135   -8.2455 H   0  0  0  0  0  0
   17.2373   41.2079   -9.8739 H   0  0  0  0  0  0
   16.4524   38.1523   -6.8904 H   0  0  0  0  0  0
   14.9781   39.8226   -5.7105 H   0  0  0  0  0  0
   16.8571   36.7097   -8.5724 H   0  0  0  0  0  0
   17.7935   36.5188  -10.0382 H   0  0  0  0  0  0
   16.2675   37.3926  -10.0813 H   0  0  0  0  0  0
   19.0764   39.9627  -10.4098 H   0  0  0  0  0  0
   17.6574   39.3174  -11.2403 H   0  0  0  0  0  0
   19.0952   38.3289  -11.0426 H   0  0  0  0  0  0
   19.6858   39.1290   -8.0712 H   0  0  0  0  0  0
   19.8155   37.5275   -8.7789 H   0  0  0  0  0  0
   18.8216   37.7778   -7.3535 H   0  0  0  0  0  0
   27.1686   43.4365  -12.3496 H   0  0  0  0  0  0
   28.0001   41.2182  -10.8304 H   0  0  0  0  0  0
   14.7878   41.9516   -6.5471 H   0  0  0  0  0  0
  1  2  1  0  0  0
  1 47  1  0  0  0
  1 48  1  0  0  0
  1 49  1  0  0  0
  2 44  1  0  0  0
  2 21  1  0  0  0
  2  3  1  0  0  0
  3  4  1  0  0  0
  3 50  1  0  0  0
  3 51  1  0  0  0
  4  5  1  0  0  0
  4 52  1  0  0  0
  4 53  1  0  0  0
  5  6  1  0  0  0
  5 54  1  0  0  0
  5 55  1  0  0  0
  6  7  1  0  0  0
  6 56  1  0  0  0
  6 57  1  0  0  0
  7  8  1  0  0  0
  7 58  1  0  0  0
  7 59  1  0  0  0
  8  9  1  0  0  0
  8 60  1  0  0  0
  8 61  1  0  0  0
  9 10  1  0  0  0
  9 62  1  0  0  0
  9 63  1  0  0  0
 10 11  1  0  0  0
 11 16  1  0  0  0
 11 12  2  0  0  0
 12 13  1  0  0  0
 12 64  1  0  0  0
 13 14  2  0  0  0
 13 39  1  0  0  0
 14 15  1  0  0  0
 14 65  1  0  0  0
 15 16  2  0  0  0
 15 17  1  0  0  0
 16 66  1  0  0  0
 17 18  2  0  0  0
 17 19  1  0  0  0
 19 20  1  0  0  0
 19 67  1  0  0  0
 20 45  1  0  0  0
 20 21  1  0  0  0
 20 22  1  0  0  0
 21 68  1  0  0  0
 21 69  1  0  0  0
 22 46  1  0  0  0
 22 23  1  0  0  0
 22 24  1  0  0  0
 23 70  1  0  0  0
 24 25  1  0  0  0
 24 71  1  0  0  0
 24 72  1  0  0  0
 25 26  1  0  0  0
 25 73  1  0  0  0
 26 28  1  0  0  0
 26 27  1  0  0  0
 26 29  1  0  0  0
 27 28  1  0  0  0
 27 74  1  0  0  0
 27 75  1  0  0  0
 28 76  1  0  0  0
 28 77  1  0  0  0
 29 34  1  0  0  0
 29 30  2  0  0  0
 30 31  1  0  0  0
 30 78  1  0  0  0
 31 32  2  0  0  0
 31 35  1  0  0  0
 32 33  1  0  0  0
 32 79  1  0  0  0
 33 34  2  0  0  0
 33 80  1  0  0  0
 34 92  1  0  0  0
 35 36  1  0  0  0
 35 37  1  0  0  0
 35 38  1  0  0  0
 36 81  1  0  0  0
 36 82  1  0  0  0
 36 83  1  0  0  0
 37 84  1  0  0  0
 37 85  1  0  0  0
 37 86  1  0  0  0
 38 87  1  0  0  0
 38 88  1  0  0  0
 38 89  1  0  0  0
 39 43  1  0  0  0
 39 40  2  0  0  0
 40 41  1  0  0  0
 41 42  2  0  0  0
 41 90  1  0  0  0
 42 43  1  0  0  0
 42 91  1  0  0  0
M  CHG  1  34   1
M  END
> <s_m_source_file>
BACE_81.smi

> <i_m_source_file_index>
1

> <i_lp_mmshare_version>
42013

> <i_f3d_flags>
0

> <s_epik_input>
TzFbQ0gyXVtDSDJdW0NIMl1bQ0gyXVtDSDJdW0NIMl1bQ0gyXVtDQEBIXShbQ0gzXSlbQ0gyXVtDQEhdKFtOSF1DKD1PKWMoW2NIXTIpW2NIXWMoW2NIXWMxMiktYzNuW2NIXVtjSF1vMylbQ0BIXShbT0hdKVtDSDJdW05IXUM0KFtDSDJdW0NIMl00KWM1W2NIXWMoW2NIXVtjSF1uNSlDKFtDSDNdKShbQ0gzXSlbQ0gzXQ==

> <s_epik_cmdline>
J2VwaWtfcHl0aG9uJywgJy1waCcsICc3LjAnLCAnLXRuJywgJzgnLCAnLW1hJywgJzIwMCcsICctaW1hZScsICc8aW5maWxlLm1hZT4nLCAnLW9tYWUnLCAnPG91dGZpbGUubWFlPic=

> <r_epik_Ionization_Penalty>
  2.3769

> <r_epik_Ionization_Penalty_Charging>
  2.3769

> <r_epik_Ionization_Penalty_Neutral>
  0.0000

> <r_epik_State_Penalty>
  1.5172

> <r_epik_Charging_Adjusted_Penalty>
3.89406

> <i_epik_Tot_Q>
1

> <i_epik_Tot_abs_Q>
1

> <s_lp_Force_Field>
OPLS_2005

> <r_lp_Energy>
60.7398

> <b_lp_Chiralities_Consistent>
1

> <s_lp_Variant>
BACE_81.smi:1-2

> <chiral flag>
1

> <version>
0

> <s_i_glide_gridfile>
second_dock_grid_2

> <i_i_glide_lignum>
35

> <i_i_glide_rotatable_bonds>
8

> <r_i_docking_score>
-4.83871

> <r_i_glide_ligand_efficiency>
-0.112528

> <r_i_glide_ligand_efficiency_sa>
-0.394231

> <r_i_glide_ligand_efficiency_ln>
-1.01628

> <r_glide_XP_GScore>
-6.35591

> <r_i_glide_gscore>
-6.35591

> <r_i_glide_evdw>
-45.1277

> <r_i_glide_ecoul>
-11.6072

> <r_i_glide_energy>
-56.7349

> <r_i_glide_einternal>
2.97217

> <r_i_glide_emodel>
-74.8006

> <r_glide_XP_HBond>
-0.900003

> <i_i_glide_confnum>
1

> <i_i_glide_posenum>
5

> <r_i_glide_eff_state_penalty>
1.5172

> <i_glide_XP_PoseRank>
1

$$$$
BACE_81.smi:1
                    3D
 Structure written by MMmdl.
 92 96  0  0  1  0            999 V2000
   20.0115   39.0246   -6.9070 C   0  0  0  0  0  0
   19.3112   38.8675   -8.2676 C   0  0  2  0  0  0
   18.3230   37.6800   -8.2544 C   0  0  0  0  0  0
   17.1438   37.8556   -9.2245 C   0  0  0  0  0  0
   16.0717   38.8051   -8.6691 C   0  0  0  0  0  0
   15.1955   39.4239   -9.7672 C   0  0  0  0  0  0
   14.4600   40.7033   -9.3320 C   0  0  0  0  0  0
   15.2282   42.0213   -9.5590 C   0  0  0  0  0  0
   16.2266   42.3973   -8.4438 C   0  0  0  0  0  0
   16.9057   43.6129   -8.7392 O   0  0  0  0  0  0
   18.0113   43.5763   -9.5632 C   0  0  0  0  0  0
   18.7337   44.7790   -9.7038 C   0  0  0  0  0  0
   19.8748   44.8513  -10.5326 C   0  0  0  0  0  0
   20.2858   43.7062  -11.2400 C   0  0  0  0  0  0
   19.5735   42.4958  -11.1182 C   0  0  0  0  0  0
   18.4502   42.4272  -10.2710 C   0  0  0  0  0  0
   19.9751   41.3104  -11.9420 C   0  0  0  0  0  0
   19.8575   41.3500  -13.1646 O   0  0  0  0  0  0
   20.4894   40.2380  -11.3235 N   0  0  0  0  0  0
   20.9076   40.0777   -9.9239 C   0  0  1  0  0  0
   20.3383   38.7278   -9.4163 C   0  0  0  0  0  0
   22.4567   40.1586   -9.8379 C   0  0  2  0  0  0
   22.8908   39.9688   -8.5079 O   0  0  0  0  0  0
   23.0320   41.5156  -10.3005 C   0  0  0  0  0  0
   24.5121   41.5048  -10.4389 N   0  3  0  0  0  0
   25.2136   42.7433  -10.8939 C   0  0  0  0  0  0
   24.6250   43.3984  -12.1311 C   0  0  0  0  0  0
   24.4733   44.0689  -10.7841 C   0  0  0  0  0  0
   26.7072   42.6428  -10.7956 C   0  0  0  0  0  0
   27.4754   43.4729   -9.9512 C   0  0  0  0  0  0
   28.8889   43.4118  -10.0144 C   0  0  0  0  0  0
   29.4522   42.4886  -10.9265 C   0  0  0  0  0  0
   28.6004   41.6826  -11.7040 C   0  0  0  0  0  0
   27.2558   41.7501  -11.6401 N   0  0  0  0  0  0
   29.7873   44.3645   -9.2016 C   0  0  0  0  0  0
   30.1934   45.5390  -10.1078 C   0  0  0  0  0  0
   29.0667   44.9388   -7.9623 C   0  0  0  0  0  0
   31.0745   43.6563   -8.7150 C   0  0  0  0  0  0
   20.6151   46.1037  -10.6615 C   0  0  0  0  0  0
   20.3498   47.2882  -10.1110 N   0  0  0  0  0  0
   21.3604   48.1295  -10.5532 C   0  0  0  0  0  0
   22.1971   47.4032  -11.3550 C   0  0  0  0  0  0
   21.7356   46.1166  -11.4365 O   0  0  0  0  0  0
   18.7334   39.7777   -8.4275 H   0  0  0  0  0  0
   20.5072   40.8838   -9.3079 H   0  0  0  0  0  0
   22.8599   39.3495  -10.4403 H   0  0  0  0  0  0
   19.2864   39.1574   -6.1046 H   0  0  0  0  0  0
   20.6645   39.8959   -6.8970 H   0  0  0  0  0  0
   20.6175   38.1499   -6.6667 H   0  0  0  0  0  0
   18.8592   36.7755   -8.5190 H   0  0  0  0  0  0
   17.9266   37.5109   -7.2504 H   0  0  0  0  0  0
   16.6823   36.8899   -9.4267 H   0  0  0  0  0  0
   17.5180   38.2146  -10.1827 H   0  0  0  0  0  0
   15.4428   38.2700   -7.9539 H   0  0  0  0  0  0
   16.5432   39.5834   -8.0813 H   0  0  0  0  0  0
   14.4584   38.6679  -10.0401 H   0  0  0  0  0  0
   15.7718   39.6240  -10.6716 H   0  0  0  0  0  0
   13.5374   40.7606   -9.9120 H   0  0  0  0  0  0
   14.1482   40.6142   -8.2923 H   0  0  0  0  0  0
   14.5004   42.8293   -9.6235 H   0  0  0  0  0  0
   15.7144   41.9990  -10.5338 H   0  0  0  0  0  0
   16.9538   41.6185   -8.2318 H   0  0  0  0  0  0
   15.6789   42.5474   -7.5139 H   0  0  0  0  0  0
   18.4050   45.6543   -9.1632 H   0  0  0  0  0  0
   21.1450   43.7533  -11.8924 H   0  0  0  0  0  0
   17.9229   41.4886  -10.2000 H   0  0  0  0  0  0
   20.6862   39.4532  -11.9267 H   0  0  0  0  0  0
   19.8697   38.1937  -10.2446 H   0  0  0  0  0  0
   21.1394   38.0583   -9.0993 H   0  0  0  0  0  0
   23.3358   39.1282   -8.4627 H   0  0  0  0  0  0
   22.7135   42.2849   -9.5933 H   0  0  0  0  0  0
   22.6091   41.7689  -11.2698 H   0  0  0  0  0  0
   24.7599   40.7786  -11.1004 H   0  0  0  0  0  0
   25.3237   43.8582  -12.8282 H   0  0  0  0  0  0
   23.7306   42.9987  -12.5979 H   0  0  0  0  0  0
   23.4616   44.1320  -10.3970 H   0  0  0  0  0  0
   25.0656   44.9678  -10.6224 H   0  0  0  0  0  0
   26.9688   44.1758   -9.3115 H   0  0  0  0  0  0
   30.5184   42.4012  -11.0656 H   0  0  0  0  0  0
   29.0119   40.9692  -12.4029 H   0  0  0  0  0  0
   30.7378   45.1949  -10.9888 H   0  0  0  0  0  0
   30.8359   46.2461   -9.5825 H   0  0  0  0  0  0
   29.3201   46.0885  -10.4603 H   0  0  0  0  0  0
   28.6720   44.1501   -7.3210 H   0  0  0  0  0  0
   28.2365   45.5900   -8.2358 H   0  0  0  0  0  0
   29.7404   45.5409   -7.3547 H   0  0  0  0  0  0
   30.8600   42.7682   -8.1221 H   0  0  0  0  0  0
   31.6773   44.3193   -8.0926 H   0  0  0  0  0  0
   31.7174   43.3535   -9.5409 H   0  0  0  0  0  0
   21.4042   49.1697  -10.2624 H   0  0  0  0  0  0
   23.0968   47.6348  -11.9086 H   0  0  0  0  0  0
   24.8897   41.2409   -9.5371 H   0  0  0  0  0  0
  1  2  1  0  0  0
  1 47  1  0  0  0
  1 48  1  0  0  0
  1 49  1  0  0  0
  2 44  1  0  0  0
  2 21  1  0  0  0
  2  3  1  0  0  0
  3  4  1  0  0  0
  3 50  1  0  0  0
  3 51  1  0  0  0
  4  5  1  0  0  0
  4 52  1  0  0  0
  4 53  1  0  0  0
  5  6  1  0  0  0
  5 54  1  0  0  0
  5 55  1  0  0  0
  6  7  1  0  0  0
  6 56  1  0  0  0
  6 57  1  0  0  0
  7  8  1  0  0  0
  7 58  1  0  0  0
  7 59  1  0  0  0
  8  9  1  0  0  0
  8 60  1  0  0  0
  8 61  1  0  0  0
  9 10  1  0  0  0
  9 62  1  0  0  0
  9 63  1  0  0  0
 10 11  1  0  0  0
 11 16  1  0  0  0
 11 12  2  0  0  0
 12 13  1  0  0  0
 12 64  1  0  0  0
 13 14  2  0  0  0
 13 39  1  0  0  0
 14 15  1  0  0  0
 14 65  1  0  0  0
 15 16  2  0  0  0
 15 17  1  0  0  0
 16 66  1  0  0  0
 17 18  2  0  0  0
 17 19  1  0  0  0
 19 20  1  0  0  0
 19 67  1  0  0  0
 20 45  1  0  0  0
 20 21  1  0  0  0
 20 22  1  0  0  0
 21 68  1  0  0  0
 21 69  1  0  0  0
 22 46  1  0  0  0
 22 23  1  0  0  0
 22 24  1  0  0  0
 23 70  1  0  0  0
 24 25  1  0  0  0
 24 71  1  0  0  0
 24 72  1  0  0  0
 25 26  1  0  0  0
 25 73  1  0  0  0
 25 92  1  0  0  0
 26 28  1  0  0  0
 26 27  1  0  0  0
 26 29  1  0  0  0
 27 28  1  0  0  0
 27 74  1  0  0  0
 27 75  1  0  0  0
 28 76  1  0  0  0
 28 77  1  0  0  0
 29 34  1  0  0  0
 29 30  2  0  0  0
 30 31  1  0  0  0
 30 78  1  0  0  0
 31 32  2  0  0  0
 31 35  1  0  0  0
 32 33  1  0  0  0
 32 79  1  0  0  0
 33 34  2  0  0  0
 33 80  1  0  0  0
 35 36  1  0  0  0
 35 37  1  0  0  0
 35 38  1  0  0  0
 36 81  1  0  0  0
 36 82  1  0  0  0
 36 83  1  0  0  0
 37 84  1  0  0  0
 37 85  1  0  0  0
 37 86  1  0  0  0
 38 87  1  0  0  0
 38 88  1  0  0  0
 38 89  1  0  0  0
 39 43  1  0  0  0
 39 40  2  0  0  0
 40 41  1  0  0  0
 41 42  2  0  0  0
 41 90  1  0  0  0
 42 43  1  0  0  0
 42 91  1  0  0  0
M  CHG  1  25   1
M  END
> <s_m_source_file>
BACE_81.smi

> <i_m_source_file_index>
1

> <i_lp_mmshare_version>
42013

> <i_f3d_flags>
0

> <s_epik_input>
TzFbQ0gyXVtDSDJdW0NIMl1bQ0gyXVtDSDJdW0NIMl1bQ0gyXVtDQEBIXShbQ0gzXSlbQ0gyXVtDQEhdKFtOSF1DKD1PKWMoW2NIXTIpW2NIXWMoW2NIXWMxMiktYzNuW2NIXVtjSF1vMylbQ0BIXShbT0hdKVtDSDJdW05IXUM0KFtDSDJdW0NIMl00KWM1W2NIXWMoW2NIXVtjSF1uNSlDKFtDSDNdKShbQ0gzXSlbQ0gzXQ==

> <s_epik_cmdline>
J2VwaWtfcHl0aG9uJywgJy1waCcsICc3LjAnLCAnLXRuJywgJzgnLCAnLW1hJywgJzIwMCcsICctaW1hZScsICc8aW5maWxlLm1hZT4nLCAnLW9tYWUnLCAnPG91dGZpbGUubWFlPic=

> <r_lp_tautomer_probability>
1

> <r_epik_Ionization_Penalty>
  0.7256

> <r_epik_Ionization_Penalty_Charging>
  0.7242

> <r_epik_Ionization_Penalty_Neutral>
  0.0014

> <r_epik_State_Penalty>
  1.7267

> <r_epik_Charging_Adjusted_Penalty>
2.45089

> <i_epik_Tot_Q>
1

> <i_epik_Tot_abs_Q>
1

> <s_lp_Force_Field>
OPLS_2005

> <r_lp_Energy>
46.0364

> <b_lp_Chiralities_Consistent>
1

> <s_lp_Variant>
BACE_81.smi:1-3

> <chiral flag>
1

> <version>
0

> <s_i_glide_gridfile>
second_dock_grid_2

> <i_i_glide_lignum>
36

> <i_i_glide_rotatable_bonds>
8

> <r_i_docking_score>
-3.66152

> <r_i_glide_ligand_efficiency>
-0.0851517

> <r_i_glide_ligand_efficiency_sa>
-0.29832

> <r_i_glide_ligand_efficiency_ln>
-0.769034

> <r_glide_XP_GScore>
-5.38822

> <r_i_glide_gscore>
-5.38822

> <r_i_glide_evdw>
-39.6536

> <r_i_glide_ecoul>
-10.5993

> <r_i_glide_energy>
-50.253

> <r_i_glide_einternal>
8.27004

> <r_i_glide_emodel>
-70.0959

> <r_glide_XP_HBond>
-0.645927

> <i_i_glide_confnum>
1

> <i_i_glide_posenum>
7

> <r_i_glide_eff_state_penalty>
1.7267

> <i_glide_XP_PoseRank>
1

$$$$
