BACE_61.smi:1
                    3D
 Structure written by MMmdl.
 86 88  0  0  1  0            999 V2000
   20.0237   42.7388   -1.6098 C   0  0  0  0  0  0
   20.4613   42.6280   -2.9514 O   0  0  0  0  0  0
   20.9411   41.3320   -3.2737 C   0  0  0  0  0  0
   21.4201   41.2594   -4.7100 C   0  0  0  0  0  0
   21.0988   40.1501   -5.5166 C   0  0  0  0  0  0
   21.5497   40.0567   -6.8473 C   0  0  0  0  0  0
   22.2923   41.1289   -7.3905 C   0  0  0  0  0  0
   22.5567   42.2770   -6.6129 C   0  0  0  0  0  0
   22.1802   42.3110   -5.2557 C   0  0  0  0  0  0
   23.2020   43.4601   -7.2574 C   0  0  0  0  0  0
   24.3774   43.4021   -7.6059 O   0  0  0  0  0  0
   22.4561   44.5556   -7.4937 N   0  0  0  0  0  0
   21.0541   44.8924   -7.1790 C   0  0  1  0  0  0
   19.9955   43.8326   -7.5961 C   0  0  0  0  0  0
   20.0041   43.3769   -9.0743 C   0  0  2  0  0  0
   19.6454   44.5319  -10.0298 C   0  0  0  0  0  0
   19.0399   42.1786   -9.2261 C   0  0  0  0  0  0
   18.9135   41.6010  -10.6489 C   0  0  0  0  0  0
   18.1135   40.2866  -10.7114 C   0  0  0  0  0  0
   18.7111   39.0744   -9.9634 C   0  0  0  0  0  0
   20.0148   38.5134  -10.5624 C   0  0  0  0  0  0
   21.3238   39.1697  -10.0748 C   0  0  0  0  0  0
   21.9312   38.5559   -8.8008 C   0  0  0  0  0  0
   21.2116   38.9123   -7.5846 N   0  0  0  0  0  0
   20.8743   45.4287   -5.7302 C   0  0  2  0  0  0
   19.5738   45.9842   -5.6453 O   0  0  0  0  0  0
   21.8537   46.5798   -5.4076 C   0  0  0  0  0  0
   23.0507   46.1724   -4.6569 N   0  0  0  0  0  0
   24.1248   47.1768   -4.5989 C   0  0  0  0  0  0
   23.7025   48.5005   -3.9752 C   0  0  0  0  0  0
   24.1147   48.8750   -2.6794 C   0  0  0  0  0  0
   23.6601   50.0918   -2.1072 C   0  0  0  0  0  0
   22.7590   50.8957   -2.8394 C   0  0  0  0  0  0
   22.3607   50.5472   -4.1488 C   0  0  0  0  0  0
   22.8774   49.3633   -4.7163 C   0  0  0  0  0  0
   21.4892   51.3662   -4.8357 O   0  0  0  0  0  0
   20.8593   50.8393   -5.9965 C   0  0  0  0  0  0
   24.0181   50.5300   -0.8499 O   0  0  0  0  0  0
   25.0743   49.8551   -0.1787 C   0  0  0  0  0  0
   20.8711   45.7566   -7.8164 H   0  0  0  0  0  0
   21.0032   43.0257   -9.3325 H   0  0  0  0  0  0
   20.9257   44.6406   -4.9811 H   0  0  0  0  0  0
   19.6603   43.7480   -1.4263 H   0  0  0  0  0  0
   20.8399   42.5457   -0.9128 H   0  0  0  0  0  0
   19.2091   42.0448   -1.4016 H   0  0  0  0  0  0
   21.7727   41.0670   -2.6176 H   0  0  0  0  0  0
   20.1500   40.5969   -3.1119 H   0  0  0  0  0  0
   20.5015   39.3510   -5.1134 H   0  0  0  0  0  0
   22.6236   41.1105   -8.4161 H   0  0  0  0  0  0
   22.4345   43.1581   -4.6371 H   0  0  0  0  0  0
   22.9611   45.2886   -7.9691 H   0  0  0  0  0  0
   20.0665   42.9655   -6.9431 H   0  0  0  0  0  0
   18.9986   44.2246   -7.3962 H   0  0  0  0  0  0
   18.6472   44.9213   -9.8276 H   0  0  0  0  0  0
   19.6749   44.2168  -11.0727 H   0  0  0  0  0  0
   20.3505   45.3572   -9.9456 H   0  0  0  0  0  0
   19.3873   41.3944   -8.5546 H   0  0  0  0  0  0
   18.0458   42.4530   -8.8689 H   0  0  0  0  0  0
   18.3988   42.3266  -11.2770 H   0  0  0  0  0  0
   19.8911   41.4714  -11.1091 H   0  0  0  0  0  0
   17.1134   40.4716  -10.3181 H   0  0  0  0  0  0
   17.9718   40.0142  -11.7568 H   0  0  0  0  0  0
   18.8251   39.2747   -8.8986 H   0  0  0  0  0  0
   17.9661   38.2778  -10.0153 H   0  0  0  0  0  0
   20.0587   37.4466  -10.3480 H   0  0  0  0  0  0
   19.9574   38.5824  -11.6483 H   0  0  0  0  0  0
   22.0605   39.0434  -10.8647 H   0  0  0  0  0  0
   21.2156   40.2434   -9.9553 H   0  0  0  0  0  0
   21.9654   37.4695   -8.8895 H   0  0  0  0  0  0
   22.9688   38.8741   -8.7016 H   0  0  0  0  0  0
   20.6669   38.1901   -7.1343 H   0  0  0  0  0  0
   18.9737   45.3671   -6.0401 H   0  0  0  0  0  0
   22.1439   47.0600   -6.3425 H   0  0  0  0  0  0
   21.3259   47.3447   -4.8406 H   0  0  0  0  0  0
   23.4268   45.3052   -5.0323 H   0  0  0  0  0  0
   24.9682   46.7755   -4.0362 H   0  0  0  0  0  0
   24.5023   47.3721   -5.6033 H   0  0  0  0  0  0
   24.7716   48.2103   -2.1387 H   0  0  0  0  0  0
   22.3809   51.8037   -2.3920 H   0  0  0  0  0  0
   22.6194   49.0753   -5.7219 H   0  0  0  0  0  0
   20.1133   51.5429   -6.3671 H   0  0  0  0  0  0
   20.3462   49.9008   -5.7780 H   0  0  0  0  0  0
   21.5721   50.6783   -6.8049 H   0  0  0  0  0  0
   25.2973   50.3745    0.7540 H   0  0  0  0  0  0
   25.9855   49.8472   -0.7784 H   0  0  0  0  0  0
   24.7977   48.8307    0.0717 H   0  0  0  0  0  0
  1  2  1  0  0  0
  1 43  1  0  0  0
  1 44  1  0  0  0
  1 45  1  0  0  0
  2  3  1  0  0  0
  3  4  1  0  0  0
  3 46  1  0  0  0
  3 47  1  0  0  0
  4  9  1  0  0  0
  4  5  2  0  0  0
  5  6  1  0  0  0
  5 48  1  0  0  0
  6 24  1  0  0  0
  6  7  2  0  0  0
  7  8  1  0  0  0
  7 49  1  0  0  0
  8  9  2  0  0  0
  8 10  1  0  0  0
  9 50  1  0  0  0
 10 11  2  0  0  0
 10 12  1  0  0  0
 12 13  1  0  0  0
 12 51  1  0  0  0
 13 40  1  0  0  0
 13 14  1  0  0  0
 13 25  1  0  0  0
 14 15  1  0  0  0
 14 52  1  0  0  0
 14 53  1  0  0  0
 15 41  1  0  0  0
 15 16  1  0  0  0
 15 17  1  0  0  0
 16 54  1  0  0  0
 16 55  1  0  0  0
 16 56  1  0  0  0
 17 18  1  0  0  0
 17 57  1  0  0  0
 17 58  1  0  0  0
 18 19  1  0  0  0
 18 59  1  0  0  0
 18 60  1  0  0  0
 19 20  1  0  0  0
 19 61  1  0  0  0
 19 62  1  0  0  0
 20 21  1  0  0  0
 20 63  1  0  0  0
 20 64  1  0  0  0
 21 22  1  0  0  0
 21 65  1  0  0  0
 21 66  1  0  0  0
 22 23  1  0  0  0
 22 67  1  0  0  0
 22 68  1  0  0  0
 23 24  1  0  0  0
 23 69  1  0  0  0
 23 70  1  0  0  0
 24 71  1  0  0  0
 25 42  1  0  0  0
 25 26  1  0  0  0
 25 27  1  0  0  0
 26 72  1  0  0  0
 27 28  1  0  0  0
 27 73  1  0  0  0
 27 74  1  0  0  0
 28 29  1  0  0  0
 28 75  1  0  0  0
 29 30  1  0  0  0
 29 76  1  0  0  0
 29 77  1  0  0  0
 30 35  1  0  0  0
 30 31  2  0  0  0
 31 32  1  0  0  0
 31 78  1  0  0  0
 32 33  2  0  0  0
 32 38  1  0  0  0
 33 34  1  0  0  0
 33 79  1  0  0  0
 34 35  2  0  0  0
 34 36  1  0  0  0
 35 80  1  0  0  0
 36 37  1  0  0  0
 37 81  1  0  0  0
 37 82  1  0  0  0
 37 83  1  0  0  0
 38 39  1  0  0  0
 39 84  1  0  0  0
 39 85  1  0  0  0
 39 86  1  0  0  0
M  END
> <s_m_source_file>
BACE_61.smi

> <i_m_source_file_index>
1

> <i_lp_mmshare_version>
42013

> <i_f3d_flags>
0

> <s_epik_input>
W05IXTFbQ0gyXVtDSDJdW0NIMl1bQ0gyXVtDSDJdW0NIMl1bQ0gyXVtDQEBIXShbQ0gzXSlbQ0gyXVtDQEhdKFtOSF1DKD1PKWMoW2NIXTIpW2NIXWMoW2NIXWMxMilbQ0gyXU9bQ0gzXSlbQ0BIXShbT0hdKVtDSDJdW05IXVtDSDJdYzNbY0hdYyhPW0NIM10pW2NIXWMoW2NIXTMpT1tDSDNd

> <s_epik_cmdline>
J2VwaWtfcHl0aG9uJywgJy1waCcsICc3LjAnLCAnLXRuJywgJzgnLCAnLW1hJywgJzIwMCcsICctaW1hZScsICc8aW5maWxlLm1hZT4nLCAnLW9tYWUnLCAnPG91dGZpbGUubWFlPic=

> <r_lp_tautomer_probability>
1

> <r_epik_Ionization_Penalty>
  2.0770

> <r_epik_Ionization_Penalty_Charging>
  0.0000

> <r_epik_Ionization_Penalty_Neutral>
  2.0770

> <r_epik_State_Penalty>
  2.2107

> <r_epik_Charging_Adjusted_Penalty>
2.21072

> <i_epik_Tot_Q>
0

> <i_epik_Tot_abs_Q>
0

> <s_lp_Force_Field>
OPLS_2005

> <r_lp_Energy>
57.8544

> <b_lp_Chiralities_Consistent>
1

> <s_lp_Variant>
BACE_61.smi:1-2

> <chiral flag>
1

> <version>
0

> <s_i_glide_gridfile>
second_dock_grid_2

> <i_i_glide_lignum>
21

> <i_i_glide_rotatable_bonds>
10

> <r_i_docking_score>
-2.93717

> <r_i_glide_ligand_efficiency>
-0.0753122

> <r_i_glide_ligand_efficiency_sa>
-0.255399

> <r_i_glide_ligand_efficiency_ln>
-0.629814

> <r_glide_XP_GScore>
-5.14787

> <r_i_glide_gscore>
-5.14787

> <r_i_glide_evdw>
-44.2158

> <r_i_glide_ecoul>
-5.66302

> <r_i_glide_energy>
-49.8788

> <r_i_glide_einternal>
8.05748

> <r_i_glide_emodel>
-70.9015

> <r_glide_XP_HBond>
-1.3811

> <i_i_glide_confnum>
1

> <i_i_glide_posenum>
42

> <r_i_glide_eff_state_penalty>
2.2107

> <i_glide_XP_PoseRank>
1

$$$$
BACE_62.smi:1
                    3D
 Structure written by MMmdl.
 88 91  0  0  1  0            999 V2000
   16.9327   47.6391   -9.2704 C   0  0  0  0  0  0
   18.3008   47.4098   -8.9764 O   0  0  0  0  0  0
   18.9793   46.7123  -10.0090 C   0  0  0  0  0  0
   18.4814   45.2843  -10.1335 C   0  0  0  0  0  0
   17.4658   44.8109   -9.2779 C   0  0  0  0  0  0
   16.9860   43.4889   -9.3878 C   0  0  0  0  0  0
   17.5453   42.6336  -10.3704 C   0  0  0  0  0  0
   18.5646   43.0979  -11.2333 C   0  0  0  0  0  0
   19.0195   44.4290  -11.1164 C   0  0  0  0  0  0
   19.0910   42.2319  -12.3430 C   0  0  0  0  0  0
   18.8572   42.5495  -13.5081 O   0  0  0  0  0  0
   19.8174   41.1305  -12.0577 N   0  0  0  0  0  0
   20.3469   40.6166  -10.7849 C   0  0  1  0  0  0
   19.8457   39.1453  -10.6198 C   0  0  0  0  0  0
   18.9776   38.8446   -9.3670 C   0  0  2  0  0  0
   19.8175   38.8105   -8.0728 C   0  0  0  0  0  0
   18.1725   37.5325   -9.5755 C   0  0  0  0  0  0
   17.1691   37.1246   -8.4685 C   0  0  0  0  0  0
   16.1150   38.1762   -8.0609 C   0  0  0  0  0  0
   15.1436   38.5965   -9.1842 C   0  0  0  0  0  0
   14.1235   39.6797   -8.7693 C   0  0  0  0  0  0
   14.5265   41.1345   -9.0948 C   0  0  0  0  0  0
   15.6721   41.6985   -8.2330 C   0  0  0  0  0  0
   15.9526   43.0999   -8.5180 N   0  0  0  0  0  0
   21.9050   40.7187  -10.8030 C   0  0  2  0  0  0
   22.4288   40.1634   -9.6114 O   0  0  0  0  0  0
   22.4662   42.1573  -10.9023 C   0  0  0  0  0  0
   23.9151   42.1561  -11.2001 N   0  3  0  0  0  0
   24.7720   41.7721  -10.0598 C   0  0  0  0  0  0
   26.2112   42.2103  -10.2906 C   0  0  0  0  0  0
   27.0454   41.4666  -11.1465 C   0  0  0  0  0  0
   28.3779   41.8658  -11.3747 C   0  0  0  0  0  0
   29.1510   41.0739  -12.1858 O   0  0  0  0  0  0
   29.6803   41.7157  -13.3370 C   0  0  0  0  0  0
   30.9211   42.5422  -12.9937 C   0  0  0  0  0  0
   30.5893   43.7823  -12.1614 C   0  0  0  0  0  0
   30.1877   43.4303  -10.8454 O   0  0  0  0  0  0
   28.8851   43.0182  -10.7187 C   0  0  0  0  0  0
   28.0489   43.7471   -9.8490 C   0  0  0  0  0  0
   26.7137   43.3525   -9.6408 C   0  0  0  0  0  0
   19.9819   41.2194   -9.9540 H   0  0  0  0  0  0
   18.2578   39.6555   -9.2762 H   0  0  0  0  0  0
   22.2874   40.1347  -11.6419 H   0  0  0  0  0  0
   16.4675   48.1761   -8.4438 H   0  0  0  0  0  0
   16.3921   46.7013   -9.4055 H   0  0  0  0  0  0
   16.8151   48.2446  -10.1701 H   0  0  0  0  0  0
   20.0526   46.7010   -9.8110 H   0  0  0  0  0  0
   18.8396   47.2252  -10.9622 H   0  0  0  0  0  0
   17.0441   45.4715   -8.5334 H   0  0  0  0  0  0
   17.1769   41.6269  -10.4984 H   0  0  0  0  0  0
   19.7823   44.7998  -11.7866 H   0  0  0  0  0  0
   20.1062   40.5945  -12.8635 H   0  0  0  0  0  0
   19.2629   38.8774  -11.5029 H   0  0  0  0  0  0
   20.6821   38.4457  -10.6495 H   0  0  0  0  0  0
   19.2018   38.6350   -7.1915 H   0  0  0  0  0  0
   20.3230   39.7595   -7.8999 H   0  0  0  0  0  0
   20.5756   38.0273   -8.1065 H   0  0  0  0  0  0
   18.8734   36.7081   -9.7144 H   0  0  0  0  0  0
   17.6242   37.5960  -10.5156 H   0  0  0  0  0  0
   17.7210   36.8249   -7.5774 H   0  0  0  0  0  0
   16.6518   36.2207   -8.7925 H   0  0  0  0  0  0
   16.6166   39.0413   -7.6344 H   0  0  0  0  0  0
   15.5284   37.7602   -7.2407 H   0  0  0  0  0  0
   15.6852   38.9290  -10.0693 H   0  0  0  0  0  0
   14.5921   37.7083   -9.4956 H   0  0  0  0  0  0
   13.8611   39.5813   -7.7152 H   0  0  0  0  0  0
   13.1990   39.4803   -9.3128 H   0  0  0  0  0  0
   14.7722   41.2157  -10.1539 H   0  0  0  0  0  0
   13.6488   41.7659   -8.9494 H   0  0  0  0  0  0
   15.4009   41.6274   -7.1793 H   0  0  0  0  0  0
   16.5826   41.1161   -8.3507 H   0  0  0  0  0  0
   15.6413   43.7725   -7.8319 H   0  0  0  0  0  0
   22.9784   39.4292   -9.8391 H   0  0  0  0  0  0
   22.2795   42.7044   -9.9766 H   0  0  0  0  0  0
   21.9780   42.7105  -11.7038 H   0  0  0  0  0  0
   24.1803   43.0828  -11.5017 H   0  0  0  0  0  0
   24.7364   40.6909   -9.9182 H   0  0  0  0  0  0
   24.3938   42.2260   -9.1427 H   0  0  0  0  0  0
   26.6593   40.5826  -11.6322 H   0  0  0  0  0  0
   29.9531   40.9386  -14.0510 H   0  0  0  0  0  0
   28.9224   42.3279  -13.8258 H   0  0  0  0  0  0
   31.6589   41.9256  -12.4803 H   0  0  0  0  0  0
   31.3882   42.8659  -13.9239 H   0  0  0  0  0  0
   29.8308   44.3934  -12.6507 H   0  0  0  0  0  0
   31.4786   44.4071  -12.0783 H   0  0  0  0  0  0
   28.4343   44.6165   -9.3371 H   0  0  0  0  0  0
   26.0794   43.9209   -8.9767 H   0  0  0  0  0  0
   24.0843   41.5097  -11.9574 H   0  0  0  0  0  0
  1  2  1  0  0  0
  1 44  1  0  0  0
  1 45  1  0  0  0
  1 46  1  0  0  0
  2  3  1  0  0  0
  3  4  1  0  0  0
  3 47  1  0  0  0
  3 48  1  0  0  0
  4  9  1  0  0  0
  4  5  2  0  0  0
  5  6  1  0  0  0
  5 49  1  0  0  0
  6 24  1  0  0  0
  6  7  2  0  0  0
  7  8  1  0  0  0
  7 50  1  0  0  0
  8  9  2  0  0  0
  8 10  1  0  0  0
  9 51  1  0  0  0
 10 11  2  0  0  0
 10 12  1  0  0  0
 12 13  1  0  0  0
 12 52  1  0  0  0
 13 41  1  0  0  0
 13 14  1  0  0  0
 13 25  1  0  0  0
 14 15  1  0  0  0
 14 53  1  0  0  0
 14 54  1  0  0  0
 15 42  1  0  0  0
 15 16  1  0  0  0
 15 17  1  0  0  0
 16 55  1  0  0  0
 16 56  1  0  0  0
 16 57  1  0  0  0
 17 18  1  0  0  0
 17 58  1  0  0  0
 17 59  1  0  0  0
 18 19  1  0  0  0
 18 60  1  0  0  0
 18 61  1  0  0  0
 19 20  1  0  0  0
 19 62  1  0  0  0
 19 63  1  0  0  0
 20 21  1  0  0  0
 20 64  1  0  0  0
 20 65  1  0  0  0
 21 22  1  0  0  0
 21 66  1  0  0  0
 21 67  1  0  0  0
 22 23  1  0  0  0
 22 68  1  0  0  0
 22 69  1  0  0  0
 23 24  1  0  0  0
 23 70  1  0  0  0
 23 71  1  0  0  0
 24 72  1  0  0  0
 25 43  1  0  0  0
 25 26  1  0  0  0
 25 27  1  0  0  0
 26 73  1  0  0  0
 27 28  1  0  0  0
 27 74  1  0  0  0
 27 75  1  0  0  0
 28 29  1  0  0  0
 28 76  1  0  0  0
 28 88  1  0  0  0
 29 30  1  0  0  0
 29 77  1  0  0  0
 29 78  1  0  0  0
 30 40  1  0  0  0
 30 31  2  0  0  0
 31 32  1  0  0  0
 31 79  1  0  0  0
 32 38  2  0  0  0
 32 33  1  0  0  0
 33 34  1  0  0  0
 34 35  1  0  0  0
 34 80  1  0  0  0
 34 81  1  0  0  0
 35 36  1  0  0  0
 35 82  1  0  0  0
 35 83  1  0  0  0
 36 37  1  0  0  0
 36 84  1  0  0  0
 36 85  1  0  0  0
 37 38  1  0  0  0
 38 39  1  0  0  0
 39 40  2  0  0  0
 39 86  1  0  0  0
 40 87  1  0  0  0
M  CHG  1  28   1
M  END
> <s_m_source_file>
BACE_62.smi

> <i_m_source_file_index>
1

> <i_lp_mmshare_version>
42013

> <i_f3d_flags>
0

> <s_epik_input>
W05IXTFbQ0gyXVtDSDJdW0NIMl1bQ0gyXVtDSDJdW0NIMl1bQ0gyXVtDQEBIXShbQ0gzXSlbQ0gyXVtDQEhdKFtOSF1DKD1PKWMoW2NIXTIpW2NIXWMoW2NIXWMxMilbQ0gyXU9bQ0gzXSlbQ0BIXShbT0hdKVtDSDJdW05IXVtDSDJdYyhbY0hdMylbY0hdW2NIXWMoYzM0KU9bQ0gyXVtDSDJdW0NIMl1PNA==

> <s_epik_cmdline>
J2VwaWtfcHl0aG9uJywgJy1waCcsICc3LjAnLCAnLXRuJywgJzgnLCAnLW1hJywgJzIwMCcsICctaW1hZScsICc8aW5maWxlLm1hZT4nLCAnLW9tYWUnLCAnPG91dGZpbGUubWFlPic=

> <r_lp_tautomer_probability>
1

> <r_epik_Ionization_Penalty>
  0.0169

> <r_epik_Ionization_Penalty_Charging>
  0.0163

> <r_epik_Ionization_Penalty_Neutral>
  0.0006

> <r_epik_State_Penalty>
  0.0129

> <r_epik_Charging_Adjusted_Penalty>
0.0292154

> <i_epik_Tot_Q>
1

> <i_epik_Tot_abs_Q>
1

> <s_lp_Force_Field>
OPLS_2005

> <r_lp_Energy>
53.9557

> <b_lp_Chiralities_Consistent>
1

> <s_lp_Variant>
BACE_62.smi:1-1

> <chiral flag>
1

> <version>
0

> <s_i_glide_gridfile>
second_dock_grid_2

> <i_i_glide_lignum>
22

> <i_i_glide_rotatable_bonds>
8

> <r_i_docking_score>
-5.66791

> <r_i_glide_ligand_efficiency>
-0.141698

> <r_i_glide_ligand_efficiency_sa>
-0.4846

> <r_i_glide_ligand_efficiency_ln>
-1.2088

> <r_glide_XP_GScore>
-5.68081

> <r_i_glide_gscore>
-5.68081

> <r_i_glide_evdw>
-32.7737

> <r_i_glide_ecoul>
-15.295

> <r_i_glide_energy>
-48.0687

> <r_i_glide_einternal>
4.58664

> <r_i_glide_emodel>
-72.5113

> <r_glide_XP_HBond>
-1.52014

> <i_i_glide_confnum>
1

> <i_i_glide_posenum>
4

> <r_i_glide_eff_state_penalty>
0.0129

> <i_glide_XP_PoseRank>
1

$$$$
