BACE_84.smi:1
 OpenBabel10021819343D
Structure written by MMmdl.
 87 89  0  0  1  0  0  0  0  0999 V2000
   17.7830   36.9393   -9.7059 C   0  0  0  0  0  0  0  0  0  0  0  0
   18.1654   38.0389   -8.7264 C   0  0  2  0  0  0  0  0  0  0  0  0
   17.2111   39.2572   -8.8482 C   0  0  0  0  0  0  0  0  0  0  0  0
   15.7198   38.8947   -8.7020 C   0  0  0  0  0  0  0  0  0  0  0  0
   14.7803   40.1003   -8.5449 C   0  0  0  0  0  0  0  0  0  0  0  0
   14.7865   41.0812   -9.7342 C   0  0  0  0  0  0  0  0  0  0  0  0
   15.4113   42.4444   -9.3832 C   0  0  0  0  0  0  0  0  0  0  0  0
   15.5876   43.3884  -10.5912 C   0  0  0  0  0  0  0  0  0  0  0  0
   16.7411   42.9759  -11.5178 C   0  0  0  0  0  0  0  0  0  0  0  0
   17.9300   43.0108  -10.7463 O   0  0  0  0  0  0  0  0  0  0  0  0
   18.9935   42.2297  -11.1324 C   0  0  0  0  0  0  0  0  0  0  0  0
   19.9707   41.9435  -10.1686 C   0  0  0  0  0  0  0  0  0  0  0  0
   21.0166   41.0626  -10.5086 C   0  0  0  0  0  0  0  0  0  0  0  0
   21.0798   40.5784  -11.8292 C   0  0  0  0  0  0  0  0  0  0  0  0
   20.0679   40.9500  -12.7284 C   0  0  0  0  0  0  0  0  0  0  0  0
   19.0330   41.7520  -12.3979 N   0  0  0  0  0  0  0  0  0  0  0  0
   22.0274   40.6210   -9.4965 C   0  0  0  0  0  0  0  0  0  0  0  0
   23.2122   40.9141   -9.6435 O   0  0  0  0  0  0  0  0  0  0  0  0
   21.6119   39.8661   -8.4631 N   0  0  0  0  0  0  0  0  0  0  0  0
   20.2480   39.5069   -8.0388 C   0  0  1  0  0  0  0  0  0  0  0  0
   19.6564   38.4011   -8.9496 C   0  0  0  0  0  0  0  0  0  0  0  0
   20.2742   39.1232   -6.5356 C   0  0  2  0  0  0  0  0  0  0  0  0
   18.9717   38.9500   -6.0289 O   0  0  0  0  0  0  0  0  0  0  0  0
   20.9892   40.1410   -5.6245 C   0  0  0  0  0  0  0  0  0  0  0  0
   20.4601   41.5071   -5.8512 N   0  3  0  0  0  0  0  0  0  0  0  0
   21.1590   42.6624   -5.2334 C   0  0  0  0  0  0  0  0  0  0  0  0
   21.0339   42.5836   -3.7002 C   0  0  0  0  0  0  0  0  0  0  0  0
   22.6440   42.6839   -5.6616 C   0  0  0  0  0  0  0  0  0  0  0  0
   20.4636   43.9124   -5.7513 C   0  0  0  0  0  0  0  0  0  0  0  0
   19.2612   44.0384   -6.5143 C   0  0  0  0  0  0  0  0  0  0  0  0
   19.0898   45.3885   -6.6468 C   0  0  0  0  0  0  0  0  0  0  0  0
   18.0245   46.2312   -7.2753 C   0  0  0  0  0  0  0  0  0  0  0  0
   18.4234   47.0118   -8.5556 C   0  0  0  0  0  0  0  0  0  0  0  0
   19.4497   48.1152   -8.2312 C   0  0  0  0  0  0  0  0  0  0  0  0
   17.1611   47.6760   -9.1366 C   0  0  0  0  0  0  0  0  0  0  0  0
   19.0160   46.0671   -9.6175 C   0  0  0  0  0  0  0  0  0  0  0  0
   20.0951   46.0466   -6.0222 O   0  0  0  0  0  0  0  0  0  0  0  0
   20.9661   45.1040   -5.4726 N   0  0  0  0  0  0  0  0  0  0  0  0
   18.0315   37.5853   -7.7471 H   0  0  0  0  0  0  0  0  0  0  0  0
   19.6273   40.3934   -8.1372 H   0  0  0  0  0  0  0  0  0  0  0  0
   20.7740   38.1574   -6.4396 H   0  0  0  0  0  0  0  0  0  0  0  0
   17.8412   37.3498  -10.7114 H   0  0  0  0  0  0  0  0  0  0  0  0
   16.7767   36.5573   -9.5368 H   0  0  0  0  0  0  0  0  0  0  0  0
   18.4601   36.0903   -9.6399 H   0  0  0  0  0  0  0  0  0  0  0  0
   17.4468   39.9878   -8.0755 H   0  0  0  0  0  0  0  0  0  0  0  0
   17.3766   39.7592   -9.8025 H   0  0  0  0  0  0  0  0  0  0  0  0
   15.3877   38.3111   -9.5616 H   0  0  0  0  0  0  0  0  0  0  0  0
   15.5944   38.2497   -7.8293 H   0  0  0  0  0  0  0  0  0  0  0  0
   13.7703   39.7010   -8.4375 H   0  0  0  0  0  0  0  0  0  0  0  0
   14.9875   40.6200   -7.6074 H   0  0  0  0  0  0  0  0  0  0  0  0
   15.2942   40.6270  -10.5857 H   0  0  0  0  0  0  0  0  0  0  0  0
   13.7584   41.2449  -10.0613 H   0  0  0  0  0  0  0  0  0  0  0  0
   14.7757   42.9332   -8.6425 H   0  0  0  0  0  0  0  0  0  0  0  0
   16.3715   42.2941   -8.8877 H   0  0  0  0  0  0  0  0  0  0  0  0
   14.6555   43.4429  -11.1565 H   0  0  0  0  0  0  0  0  0  0  0  0
   15.7822   44.3973  -10.2242 H   0  0  0  0  0  0  0  0  0  0  0  0
   16.5435   41.9842  -11.9245 H   0  0  0  0  0  0  0  0  0  0  0  0
   16.8301   43.6698  -12.3544 H   0  0  0  0  0  0  0  0  0  0  0  0
   19.8908   42.3664   -9.1784 H   0  0  0  0  0  0  0  0  0  0  0  0
   21.8807   39.9217  -12.1436 H   0  0  0  0  0  0  0  0  0  0  0  0
   20.0744   40.5714  -13.7403 H   0  0  0  0  0  0  0  0  0  0  0  0
   22.3596   39.4991   -7.8934 H   0  0  0  0  0  0  0  0  0  0  0  0
   20.2620   37.5018   -8.8407 H   0  0  0  0  0  0  0  0  0  0  0  0
   19.7700   38.6977   -9.9924 H   0  0  0  0  0  0  0  0  0  0  0  0
   18.4443   39.7309   -6.1370 H   0  0  0  0  0  0  0  0  0  0  0  0
   20.8684   39.8574   -4.5780 H   0  0  0  0  0  0  0  0  0  0  0  0
   22.0576   40.0959   -5.8334 H   0  0  0  0  0  0  0  0  0  0  0  0
   20.4592   41.6694   -6.8460 H   0  0  0  0  0  0  0  0  0  0  0  0
   21.5022   43.4451   -3.2244 H   0  0  0  0  0  0  0  0  0  0  0  0
   21.5256   41.6996   -3.2954 H   0  0  0  0  0  0  0  0  0  0  0  0
   19.9902   42.5623   -3.3828 H   0  0  0  0  0  0  0  0  0  0  0  0
   23.1474   43.5819   -5.3018 H   0  0  0  0  0  0  0  0  0  0  0  0
   22.7550   42.6604   -6.7477 H   0  0  0  0  0  0  0  0  0  0  0  0
   23.2058   41.8477   -5.2431 H   0  0  0  0  0  0  0  0  0  0  0  0
   18.5975   43.2702   -6.8894 H   0  0  0  0  0  0  0  0  0  0  0  0
   17.1764   45.5819   -7.5027 H   0  0  0  0  0  0  0  0  0  0  0  0
   17.6593   46.9384   -6.5301 H   0  0  0  0  0  0  0  0  0  0  0  0
   19.6577   48.7284   -9.1081 H   0  0  0  0  0  0  0  0  0  0  0  0
   20.4029   47.7002   -7.9037 H   0  0  0  0  0  0  0  0  0  0  0  0
   19.0893   48.7782   -7.4437 H   0  0  0  0  0  0  0  0  0  0  0  0
   16.7257   48.3786   -8.4264 H   0  0  0  0  0  0  0  0  0  0  0  0
   16.3969   46.9382   -9.3846 H   0  0  0  0  0  0  0  0  0  0  0  0
   17.3864   48.2307  -10.0477 H   0  0  0  0  0  0  0  0  0  0  0  0
   19.2661   46.6060  -10.5316 H   0  0  0  0  0  0  0  0  0  0  0  0
   18.2994   45.2920   -9.8835 H   0  0  0  0  0  0  0  0  0  0  0  0
   19.9261   45.5757   -9.2712 H   0  0  0  0  0  0  0  0  0  0  0  0
   19.4966   41.5193   -5.5261 H   0  0  0  0  0  0  0  0  0  0  0  0
  1  2  1  0  0  0  0
  1 42  1  0  0  0  0
  1 43  1  0  0  0  0
  1 44  1  0  0  0  0
  2 39  1  1  0  0  0
  2 21  1  0  0  0  0
  2  3  1  0  0  0  0
  3  4  1  0  0  0  0
  3 45  1  0  0  0  0
  3 46  1  0  0  0  0
  4  5  1  0  0  0  0
  4 47  1  0  0  0  0
  4 48  1  0  0  0  0
  5  6  1  0  0  0  0
  5 49  1  0  0  0  0
  5 50  1  0  0  0  0
  6  7  1  0  0  0  0
  6 51  1  0  0  0  0
  6 52  1  0  0  0  0
  7  8  1  0  0  0  0
  7 53  1  0  0  0  0
  7 54  1  0  0  0  0
  8  9  1  0  0  0  0
  8 55  1  0  0  0  0
  8 56  1  0  0  0  0
  9 10  1  0  0  0  0
  9 57  1  0  0  0  0
  9 58  1  0  0  0  0
 10 11  1  0  0  0  0
 11 16  1  0  0  0  0
 11 12  2  0  0  0  0
 12 13  1  0  0  0  0
 12 59  1  0  0  0  0
 13 14  2  0  0  0  0
 13 17  1  0  0  0  0
 14 15  1  0  0  0  0
 14 60  1  0  0  0  0
 15 16  2  0  0  0  0
 15 61  1  0  0  0  0
 17 18  2  0  0  0  0
 17 19  1  0  0  0  0
 19 20  1  0  0  0  0
 19 62  1  0  0  0  0
 20 40  1  6  0  0  0
 20 21  1  0  0  0  0
 20 22  1  0  0  0  0
 21 63  1  0  0  0  0
 21 64  1  0  0  0  0
 22 41  1  1  0  0  0
 22 23  1  0  0  0  0
 22 24  1  0  0  0  0
 23 65  1  0  0  0  0
 24 25  1  0  0  0  0
 24 66  1  0  0  0  0
 24 67  1  0  0  0  0
 25 26  1  0  0  0  0
 25 68  1  0  0  0  0
 25 87  1  0  0  0  0
 26 27  1  0  0  0  0
 26 28  1  0  0  0  0
 26 29  1  0  0  0  0
 27 69  1  0  0  0  0
 27 70  1  0  0  0  0
 27 71  1  0  0  0  0
 28 72  1  0  0  0  0
 28 73  1  0  0  0  0
 28 74  1  0  0  0  0
 29 38  2  0  0  0  0
 29 30  1  0  0  0  0
 30 31  2  0  0  0  0
 30 75  1  0  0  0  0
 31 32  1  0  0  0  0
 31 37  1  0  0  0  0
 32 33  1  0  0  0  0
 32 76  1  0  0  0  0
 32 77  1  0  0  0  0
 33 34  1  0  0  0  0
 33 35  1  0  0  0  0
 33 36  1  0  0  0  0
 34 78  1  0  0  0  0
 34 79  1  0  0  0  0
 34 80  1  0  0  0  0
 35 81  1  0  0  0  0
 35 82  1  0  0  0  0
 35 83  1  0  0  0  0
 36 84  1  0  0  0  0
 36 85  1  0  0  0  0
 36 86  1  0  0  0  0
 37 38  1  0  0  0  0
M  CHG  1  25   1
M  END
