BACE_131.smi:1
 OpenBabel10021819343D
Structure written by MMmdl.
 92 96  0  0  1  0  0  0  0  0999 V2000
   14.1559   38.9383   -9.2196 C   0  0  0  0  0  0  0  0  0  0  0  0
   14.8311   40.2295   -9.3844 N   0  0  0  0  0  0  0  0  0  0  0  0
   15.1803   40.9007   -8.1263 C   0  0  0  0  0  0  0  0  0  0  0  0
   15.0019   40.7660  -10.6202 C   0  0  0  0  0  0  0  0  0  0  0  0
   14.4567   40.3092  -11.6268 O   0  0  0  0  0  0  0  0  0  0  0  0
   15.8998   41.9647  -10.7767 C   0  0  0  0  0  0  0  0  0  0  0  0
   15.3996   43.2750  -10.6120 C   0  0  0  0  0  0  0  0  0  0  0  0
   16.2472   44.3968  -10.7229 C   0  0  0  0  0  0  0  0  0  0  0  0
   17.6248   44.1956  -10.9949 C   0  0  0  0  0  0  0  0  0  0  0  0
   18.1511   42.8865  -11.1237 C   0  0  0  0  0  0  0  0  0  0  0  0
   17.2779   41.7804  -11.0168 C   0  0  0  0  0  0  0  0  0  0  0  0
   19.6086   42.6486  -11.4185 C   0  0  0  0  0  0  0  0  0  0  0  0
   19.9416   41.7450  -12.1874 O   0  0  0  0  0  0  0  0  0  0  0  0
   20.4871   43.4234  -10.7491 N   0  0  0  0  0  0  0  0  0  0  0  0
   21.9548   43.3303  -10.8064 C   0  0  1  0  0  0  0  0  0  0  0  0
   22.6251   44.7179  -11.0422 C   0  0  0  0  0  0  0  0  0  0  0  0
   22.7111   45.7130   -9.8830 C   0  0  0  0  0  0  0  0  0  0  0  0
   21.5449   46.2258   -9.2738 C   0  0  0  0  0  0  0  0  0  0  0  0
   21.6168   47.2202   -8.2629 C   0  0  0  0  0  0  0  0  0  0  0  0
   20.5172   47.7878   -7.6451 O   0  0  0  0  0  0  0  0  0  0  0  0
   19.2865   47.0678   -7.6134 C   0  0  0  0  0  0  0  0  0  0  0  0
   18.4758   47.2127   -8.8879 C   0  0  0  0  0  0  0  0  0  0  0  0
   17.1848   46.8674   -9.0072 C   0  0  0  0  0  0  0  0  0  0  0  0
   16.4330   46.8750  -10.3235 C   0  0  0  0  0  0  0  0  0  0  0  0
   15.6568   45.6623  -10.5514 N   0  0  0  0  0  0  0  0  0  0  0  0
   22.8871   47.6936   -7.8722 C   0  0  0  0  0  0  0  0  0  0  0  0
   22.9867   48.6503   -6.9182 F   0  0  0  0  0  0  0  0  0  0  0  0
   24.0570   47.1768   -8.4604 C   0  0  0  0  0  0  0  0  0  0  0  0
   23.9703   46.1930   -9.4628 C   0  0  0  0  0  0  0  0  0  0  0  0
   22.5079   42.4288   -9.6623 C   0  0  2  0  0  0  0  0  0  0  0  0
   23.3577   43.1540   -8.7938 O   0  0  0  0  0  0  0  0  0  0  0  0
   23.2687   41.1855  -10.1715 C   0  0  0  0  0  0  0  0  0  0  0  0
   23.4612   40.1908   -9.0912 N   0  3  0  0  0  0  0  0  0  0  0  0
   22.2542   39.8157   -8.3386 C   0  0  0  0  0  0  0  0  0  0  0  0
   21.0055   39.5055   -9.1289 C   0  0  0  0  0  0  0  0  0  0  0  0
   21.7707   38.3901   -8.4576 C   0  0  0  0  0  0  0  0  0  0  0  0
   22.0836   40.5080   -6.9939 C   0  0  0  0  0  0  0  0  0  0  0  0
   21.9319   41.9114   -6.9132 C   0  0  0  0  0  0  0  0  0  0  0  0
   21.7775   42.5737   -5.6662 C   0  0  0  0  0  0  0  0  0  0  0  0
   21.7786   41.7801   -4.4925 C   0  0  0  0  0  0  0  0  0  0  0  0
   21.9275   40.3827   -4.5602 C   0  0  0  0  0  0  0  0  0  0  0  0
   22.0796   39.7494   -5.8056 C   0  0  0  0  0  0  0  0  0  0  0  0
   21.6121   44.1081   -5.5520 C   0  0  0  0  0  0  0  0  0  0  0  0
   22.6876   44.6818   -4.6003 C   0  0  0  0  0  0  0  0  0  0  0  0
   21.7675   44.7566   -6.9473 C   0  0  0  0  0  0  0  0  0  0  0  0
   20.2309   44.5369   -4.9968 C   0  0  0  0  0  0  0  0  0  0  0  0
   22.1839   42.7917  -11.7272 H   0  0  0  0  0  0  0  0  0  0  0  0
   21.6623   42.0811   -9.0667 H   0  0  0  0  0  0  0  0  0  0  0  0
   14.3701   38.4881   -8.2494 H   0  0  0  0  0  0  0  0  0  0  0  0
   14.4753   38.2140   -9.9709 H   0  0  0  0  0  0  0  0  0  0  0  0
   13.0748   39.0605   -9.2996 H   0  0  0  0  0  0  0  0  0  0  0  0
   14.5459   40.5660   -7.3043 H   0  0  0  0  0  0  0  0  0  0  0  0
   15.0520   41.9824   -8.1815 H   0  0  0  0  0  0  0  0  0  0  0  0
   16.2132   40.6861   -7.8503 H   0  0  0  0  0  0  0  0  0  0  0  0
   14.3522   43.4264  -10.3905 H   0  0  0  0  0  0  0  0  0  0  0  0
   18.2853   45.0422  -11.1074 H   0  0  0  0  0  0  0  0  0  0  0  0
   17.6662   40.7765  -11.1200 H   0  0  0  0  0  0  0  0  0  0  0  0
   20.1090   44.1245  -10.1281 H   0  0  0  0  0  0  0  0  0  0  0  0
   23.6342   44.5494  -11.4204 H   0  0  0  0  0  0  0  0  0  0  0  0
   22.1099   45.2223  -11.8611 H   0  0  0  0  0  0  0  0  0  0  0  0
   20.5950   45.8580   -9.6205 H   0  0  0  0  0  0  0  0  0  0  0  0
   18.6936   47.4455   -6.7798 H   0  0  0  0  0  0  0  0  0  0  0  0
   19.4632   46.0114   -7.4038 H   0  0  0  0  0  0  0  0  0  0  0  0
   19.0096   47.5430   -9.7669 H   0  0  0  0  0  0  0  0  0  0  0  0
   16.6393   46.5210   -8.1410 H   0  0  0  0  0  0  0  0  0  0  0  0
   15.7346   47.7118  -10.3041 H   0  0  0  0  0  0  0  0  0  0  0  0
   17.1096   47.0570  -11.1592 H   0  0  0  0  0  0  0  0  0  0  0  0
   14.6941   45.6822  -10.2465 H   0  0  0  0  0  0  0  0  0  0  0  0
   25.0240   47.5450   -8.1505 H   0  0  0  0  0  0  0  0  0  0  0  0
   24.8782   45.8255   -9.9184 H   0  0  0  0  0  0  0  0  0  0  0  0
   23.6068   42.5897   -8.0779 H   0  0  0  0  0  0  0  0  0  0  0  0
   24.2326   41.4724  -10.5925 H   0  0  0  0  0  0  0  0  0  0  0  0
   22.6993   40.7094  -10.9708 H   0  0  0  0  0  0  0  0  0  0  0  0
   24.1258   40.5741   -8.4344 H   0  0  0  0  0  0  0  0  0  0  0  0
   20.0484   39.7938   -8.6943 H   0  0  0  0  0  0  0  0  0  0  0  0
   21.0649   39.5759  -10.2150 H   0  0  0  0  0  0  0  0  0  0  0  0
   22.3418   37.7149   -9.0948 H   0  0  0  0  0  0  0  0  0  0  0  0
   21.3252   37.9328   -7.5741 H   0  0  0  0  0  0  0  0  0  0  0  0
   21.9372   42.4615   -7.8409 H   0  0  0  0  0  0  0  0  0  0  0  0
   21.6649   42.2330   -3.5190 H   0  0  0  0  0  0  0  0  0  0  0  0
   21.9254   39.7956   -3.6536 H   0  0  0  0  0  0  0  0  0  0  0  0
   22.1933   38.6757   -5.8448 H   0  0  0  0  0  0  0  0  0  0  0  0
   22.6163   44.2369   -3.6068 H   0  0  0  0  0  0  0  0  0  0  0  0
   22.5801   45.7606   -4.4792 H   0  0  0  0  0  0  0  0  0  0  0  0
   23.7011   44.5084   -4.9621 H   0  0  0  0  0  0  0  0  0  0  0  0
   21.0308   44.3660   -7.6506 H   0  0  0  0  0  0  0  0  0  0  0  0
   22.7530   44.5847   -7.3802 H   0  0  0  0  0  0  0  0  0  0  0  0
   21.6303   45.8379   -6.9034 H   0  0  0  0  0  0  0  0  0  0  0  0
   19.4118   44.2040   -5.6358 H   0  0  0  0  0  0  0  0  0  0  0  0
   20.1494   45.6227   -4.9295 H   0  0  0  0  0  0  0  0  0  0  0  0
   20.0562   44.1504   -3.9917 H   0  0  0  0  0  0  0  0  0  0  0  0
   23.8591   39.3546   -9.4943 H   0  0  0  0  0  0  0  0  0  0  0  0
  1  2  1  0  0  0  0
  1 49  1  0  0  0  0
  1 50  1  0  0  0  0
  1 51  1  0  0  0  0
  2  3  1  0  0  0  0
  2  4  1  0  0  0  0
  3 52  1  0  0  0  0
  3 53  1  0  0  0  0
  3 54  1  0  0  0  0
  4  5  2  0  0  0  0
  4  6  1  0  0  0  0
  6 11  1  0  0  0  0
  6  7  2  0  0  0  0
  7  8  1  0  0  0  0
  7 55  1  0  0  0  0
  8 25  1  0  0  0  0
  8  9  2  0  0  0  0
  9 10  1  0  0  0  0
  9 56  1  0  0  0  0
 10 11  2  0  0  0  0
 10 12  1  0  0  0  0
 11 57  1  0  0  0  0
 12 13  2  0  0  0  0
 12 14  1  0  0  0  0
 14 15  1  0  0  0  0
 14 58  1  0  0  0  0
 15 47  1  6  0  0  0
 15 16  1  0  0  0  0
 15 30  1  0  0  0  0
 16 17  1  0  0  0  0
 16 59  1  0  0  0  0
 16 60  1  0  0  0  0
 17 29  1  0  0  0  0
 17 18  2  0  0  0  0
 18 19  1  0  0  0  0
 18 61  1  0  0  0  0
 19 20  1  0  0  0  0
 19 26  2  0  0  0  0
 20 21  1  0  0  0  0
 21 22  1  0  0  0  0
 21 62  1  0  0  0  0
 21 63  1  0  0  0  0
 22 23  2  0  0  0  0
 22 64  1  0  0  0  0
 23 24  1  0  0  0  0
 23 65  1  0  0  0  0
 24 25  1  0  0  0  0
 24 66  1  0  0  0  0
 24 67  1  0  0  0  0
 25 68  1  0  0  0  0
 26 27  1  0  0  0  0
 26 28  1  0  0  0  0
 28 29  2  0  0  0  0
 28 69  1  0  0  0  0
 29 70  1  0  0  0  0
 30 48  1  1  0  0  0
 30 31  1  0  0  0  0
 30 32  1  0  0  0  0
 31 71  1  0  0  0  0
 32 33  1  0  0  0  0
 32 72  1  0  0  0  0
 32 73  1  0  0  0  0
 33 34  1  0  0  0  0
 33 74  1  0  0  0  0
 33 92  1  0  0  0  0
 34 36  1  0  0  0  0
 34 35  1  0  0  0  0
 34 37  1  0  0  0  0
 35 36  1  0  0  0  0
 35 75  1  0  0  0  0
 35 76  1  0  0  0  0
 36 77  1  0  0  0  0
 36 78  1  0  0  0  0
 37 42  1  0  0  0  0
 37 38  2  0  0  0  0
 38 39  1  0  0  0  0
 38 79  1  0  0  0  0
 39 40  2  0  0  0  0
 39 43  1  0  0  0  0
 40 41  1  0  0  0  0
 40 80  1  0  0  0  0
 41 42  2  0  0  0  0
 41 81  1  0  0  0  0
 42 82  1  0  0  0  0
 43 44  1  0  0  0  0
 43 45  1  0  0  0  0
 43 46  1  0  0  0  0
 44 83  1  0  0  0  0
 44 84  1  0  0  0  0
 44 85  1  0  0  0  0
 45 86  1  0  0  0  0
 45 87  1  0  0  0  0
 45 88  1  0  0  0  0
 46 89  1  0  0  0  0
 46 90  1  0  0  0  0
 46 91  1  0  0  0  0
M  CHG  1  33   1
M  END
