BACE_8.smi:1
 OpenBabel09291822493D
Structure written by MMmdl.
 78 80  0  0  1  0  0  0  0  0999 V2000
   30.2150   42.2587  -11.2303 C   0  0  0  0  0  0  0  0  0  0  0  0
   29.1538   41.7537  -12.2230 C   0  0  0  0  0  0  0  0  0  0  0  0
   29.6400   41.8688  -13.6782 C   0  0  0  0  0  0  0  0  0  0  0  0
   27.8070   42.4292  -11.9696 C   0  0  0  0  0  0  0  0  0  0  0  0
   27.4442   43.6339  -12.6115 C   0  0  0  0  0  0  0  0  0  0  0  0
   26.1914   44.2239  -12.3547 C   0  0  0  0  0  0  0  0  0  0  0  0
   25.2957   43.6213  -11.4500 C   0  0  0  0  0  0  0  0  0  0  0  0
   25.6519   42.4256  -10.7926 C   0  0  0  0  0  0  0  0  0  0  0  0
   24.7098   41.7798   -9.7914 C   0  0  0  0  0  0  0  0  0  0  0  0
   23.6747   40.9502  -10.4400 N   0  3  0  0  0  0  0  0  0  0  0  0
   22.4718   41.6411  -10.9684 C   0  0  0  0  0  0  0  0  0  0  0  0
   21.5913   42.2810   -9.8604 C   0  0  1  0  0  0  0  0  0  0  0  0
   21.9492   43.6426   -9.7123 O   0  0  0  0  0  0  0  0  0  0  0  0
   20.0492   42.2240  -10.0701 C   0  0  2  0  0  0  0  0  0  0  0  0
   19.3730   41.0360   -9.3299 C   0  0  0  0  0  0  0  0  0  0  0  0
   19.8665   39.5972   -9.6349 C   0  0  2  0  0  0  0  0  0  0  0  0
   19.2258   38.9998  -10.8994 C   0  0  0  0  0  0  0  0  0  0  0  0
   19.7361   38.6605   -8.4042 C   0  0  0  0  0  0  0  0  0  0  0  0
   18.3176   38.2060   -8.0156 C   0  0  0  0  0  0  0  0  0  0  0  0
   17.4828   39.3214   -7.7667 O   0  0  0  0  0  0  0  0  0  0  0  0
   16.1902   38.9622   -7.2977 C   0  0  0  0  0  0  0  0  0  0  0  0
   15.1784   39.9760   -7.8348 C   0  0  0  0  0  0  0  0  0  0  0  0
   15.1167   39.9342   -9.3716 C   0  0  0  0  0  0  0  0  0  0  0  0
   14.0599   40.8600   -9.9960 C   0  0  0  0  0  0  0  0  0  0  0  0
   14.2020   42.2707   -9.6501 N   0  0  0  0  0  0  0  0  0  0  0  0
   15.3530   43.0031   -9.9577 C   0  0  0  0  0  0  0  0  0  0  0  0
   16.2916   42.5876  -10.9272 C   0  0  0  0  0  0  0  0  0  0  0  0
   17.4772   43.3305  -11.0797 C   0  0  0  0  0  0  0  0  0  0  0  0
   17.6409   44.5046  -10.3180 C   0  0  0  0  0  0  0  0  0  0  0  0
   16.6329   44.8588   -9.4027 C   0  0  0  0  0  0  0  0  0  0  0  0
   16.8422   46.2754   -8.4402 Cl  0  0  0  0  0  0  0  0  0  0  0  0
   15.5091   44.1313   -9.2340 N   0  0  0  0  0  0  0  0  0  0  0  0
   18.5466   42.8590  -12.0193 C   0  0  0  0  0  0  0  0  0  0  0  0
   18.3757   42.9499  -13.2364 O   0  0  0  0  0  0  0  0  0  0  0  0
   19.6633   42.3142  -11.4892 N   0  0  0  0  0  0  0  0  0  0  0  0
   26.9112   41.8434  -11.0524 C   0  0  0  0  0  0  0  0  0  0  0  0
   21.8079   41.8069   -8.8986 H   0  0  0  0  0  0  0  0  0  0  0  0
   19.6550   43.1039   -9.5609 H   0  0  0  0  0  0  0  0  0  0  0  0
   20.9371   39.6444   -9.8148 H   0  0  0  0  0  0  0  0  0  0  0  0
   29.8946   42.0968  -10.2009 H   0  0  0  0  0  0  0  0  0  0  0  0
   30.3968   43.3255  -11.3582 H   0  0  0  0  0  0  0  0  0  0  0  0
   31.1631   41.7387  -11.3698 H   0  0  0  0  0  0  0  0  0  0  0  0
   29.0146   40.6847  -12.0392 H   0  0  0  0  0  0  0  0  0  0  0  0
   28.8909   41.4978  -14.3761 H   0  0  0  0  0  0  0  0  0  0  0  0
   30.5417   41.2764  -13.8313 H   0  0  0  0  0  0  0  0  0  0  0  0
   29.8810   42.8953  -13.9503 H   0  0  0  0  0  0  0  0  0  0  0  0
   28.1204   44.1194  -13.2973 H   0  0  0  0  0  0  0  0  0  0  0  0
   25.9185   45.1429  -12.8482 H   0  0  0  0  0  0  0  0  0  0  0  0
   24.3411   44.0897  -11.2610 H   0  0  0  0  0  0  0  0  0  0  0  0
   25.2880   41.1092   -9.1575 H   0  0  0  0  0  0  0  0  0  0  0  0
   24.2838   42.5251   -9.1238 H   0  0  0  0  0  0  0  0  0  0  0  0
   24.1165   40.4959  -11.2305 H   0  0  0  0  0  0  0  0  0  0  0  0
   22.7447   42.3692  -11.7323 H   0  0  0  0  0  0  0  0  0  0  0  0
   21.9050   40.8708  -11.4943 H   0  0  0  0  0  0  0  0  0  0  0  0
   22.7470   43.7120   -9.2066 H   0  0  0  0  0  0  0  0  0  0  0  0
   19.5140   41.2249   -8.2627 H   0  0  0  0  0  0  0  0  0  0  0  0
   18.2923   41.0863   -9.4640 H   0  0  0  0  0  0  0  0  0  0  0  0
   18.1396   38.9548  -10.8162 H   0  0  0  0  0  0  0  0  0  0  0  0
   19.5860   37.9882  -11.0772 H   0  0  0  0  0  0  0  0  0  0  0  0
   19.4622   39.5878  -11.7848 H   0  0  0  0  0  0  0  0  0  0  0  0
   20.3290   37.7656   -8.5881 H   0  0  0  0  0  0  0  0  0  0  0  0
   20.1974   39.1360   -7.5383 H   0  0  0  0  0  0  0  0  0  0  0  0
   17.8854   37.5872   -8.8019 H   0  0  0  0  0  0  0  0  0  0  0  0
   18.3662   37.5947   -7.1140 H   0  0  0  0  0  0  0  0  0  0  0  0
   15.8998   37.9686   -7.6402 H   0  0  0  0  0  0  0  0  0  0  0  0
   16.1889   38.9498   -6.2058 H   0  0  0  0  0  0  0  0  0  0  0  0
   14.1954   39.7516   -7.4169 H   0  0  0  0  0  0  0  0  0  0  0  0
   15.4448   40.9735   -7.4865 H   0  0  0  0  0  0  0  0  0  0  0  0
   16.1008   40.1520   -9.7819 H   0  0  0  0  0  0  0  0  0  0  0  0
   14.8906   38.9137   -9.6834 H   0  0  0  0  0  0  0  0  0  0  0  0
   14.0514   40.7512  -11.0799 H   0  0  0  0  0  0  0  0  0  0  0  0
   13.0803   40.5398   -9.6400 H   0  0  0  0  0  0  0  0  0  0  0  0
   13.6760   42.5707   -8.8406 H   0  0  0  0  0  0  0  0  0  0  0  0
   16.1507   41.6808  -11.4969 H   0  0  0  0  0  0  0  0  0  0  0  0
   18.5313   45.1069  -10.4050 H   0  0  0  0  0  0  0  0  0  0  0  0
   20.3391   41.9782  -12.1568 H   0  0  0  0  0  0  0  0  0  0  0  0
   27.2138   40.9470  -10.5358 H   0  0  0  0  0  0  0  0  0  0  0  0
   23.3882   40.2310   -9.7880 H   0  0  0  0  0  0  0  0  0  0  0  0
  1  2  1  0  0  0  0
  1 40  1  0  0  0  0
  1 41  1  0  0  0  0
  1 42  1  0  0  0  0
  2  3  1  0  0  0  0
  2  4  1  0  0  0  0
  2 43  1  0  0  0  0
  3 44  1  0  0  0  0
  3 45  1  0  0  0  0
  3 46  1  0  0  0  0
  4 36  1  0  0  0  0
  4  5  2  0  0  0  0
  5  6  1  0  0  0  0
  5 47  1  0  0  0  0
  6  7  2  0  0  0  0
  6 48  1  0  0  0  0
  7  8  1  0  0  0  0
  7 49  1  0  0  0  0
  8  9  1  0  0  0  0
  8 36  2  0  0  0  0
  9 10  1  0  0  0  0
  9 50  1  0  0  0  0
  9 51  1  0  0  0  0
 10 11  1  0  0  0  0
 10 52  1  0  0  0  0
 10 78  1  0  0  0  0
 11 12  1  0  0  0  0
 11 53  1  0  0  0  0
 11 54  1  0  0  0  0
 12 37  1  1  0  0  0
 12 13  1  0  0  0  0
 12 14  1  0  0  0  0
 13 55  1  0  0  0  0
 14 38  1  1  0  0  0
 14 35  1  0  0  0  0
 14 15  1  0  0  0  0
 15 16  1  0  0  0  0
 15 56  1  0  0  0  0
 15 57  1  0  0  0  0
 16 39  1  6  0  0  0
 16 17  1  0  0  0  0
 16 18  1  0  0  0  0
 17 58  1  0  0  0  0
 17 59  1  0  0  0  0
 17 60  1  0  0  0  0
 18 19  1  0  0  0  0
 18 61  1  0  0  0  0
 18 62  1  0  0  0  0
 19 20  1  0  0  0  0
 19 63  1  0  0  0  0
 19 64  1  0  0  0  0
 20 21  1  0  0  0  0
 21 22  1  0  0  0  0
 21 65  1  0  0  0  0
 21 66  1  0  0  0  0
 22 23  1  0  0  0  0
 22 67  1  0  0  0  0
 22 68  1  0  0  0  0
 23 24  1  0  0  0  0
 23 69  1  0  0  0  0
 23 70  1  0  0  0  0
 24 25  1  0  0  0  0
 24 71  1  0  0  0  0
 24 72  1  0  0  0  0
 25 26  1  0  0  0  0
 25 73  1  0  0  0  0
 26 32  1  0  0  0  0
 26 27  2  0  0  0  0
 27 28  1  0  0  0  0
 27 74  1  0  0  0  0
 28 29  2  0  0  0  0
 28 33  1  0  0  0  0
 29 30  1  0  0  0  0
 29 75  1  0  0  0  0
 30 31  1  0  0  0  0
 30 32  2  0  0  0  0
 33 34  2  0  0  0  0
 33 35  1  0  0  0  0
 35 76  1  0  0  0  0
 36 77  1  0  0  0  0
M  CHG  1  10   1
M  END
>  <s_m_source_file>
BACE_8.smi

>  <i_m_source_file_index>
1

>  <i_lp_mmshare_version>
42013

>  <i_f3d_flags>
0

>  <s_epik_input>
W0NIM11bQ0hdKFtDSDNdKWMxW2NIXVtjSF1bY0hdYyhbY0hdMSlbQ0gyXVtOSF1bQ0gyXVtDQEBIXShbT0hdKVtDQEBIXShbTkhdQyg9TyljKFtjSF1jMjMpW2NIXWMoQ2wpbjMpW0NIMl1bQ0BIXShbQ0gzXSlbQ0gyXVtDSDJdT1tDSDJdW0NIMl1bQ0gyXVtDSDJdW05IXTI=

>  <s_epik_cmdline>
J2VwaWtfcHl0aG9uJywgJy1waCcsICc3LjAnLCAnLXRuJywgJzgnLCAnLW1hJywgJzIwMCcsICctaW1hZScsICc8aW5maWxlLm1hZT4nLCAnLW9tYWUnLCAnPG91dGZpbGUubWFlPic=

>  <r_lp_tautomer_probability>
1

>  <r_epik_Ionization_Penalty>
0.0176

>  <r_epik_Ionization_Penalty_Charging>
0.0176

>  <r_epik_Ionization_Penalty_Neutral>
0.0000

>  <r_epik_State_Penalty>
0.0139

>  <r_epik_Charging_Adjusted_Penalty>
0.0314671

>  <i_epik_Tot_Q>
1

>  <i_epik_Tot_abs_Q>
1

>  <s_lp_Force_Field>
OPLS_2005

>  <r_lp_Energy>
30.2899

>  <b_lp_Chiralities_Consistent>
1

>  <s_lp_Variant>
BACE_8.smi:1-1

>  <chiral flag>
1

>  <version>
0

>  <s_i_glide_gridfile>
second_dock_grid_2

>  <i_i_glide_lignum>
12

>  <i_i_glide_rotatable_bonds>
7

>  <r_i_docking_score>
-4.01346

>  <r_i_glide_ligand_efficiency>
-0.111485

>  <r_i_glide_ligand_efficiency_sa>
-0.368115

>  <r_i_glide_ligand_efficiency_ln>
-0.875629

>  <r_glide_XP_GScore>
-4.02736

>  <r_i_glide_gscore>
-4.02736

>  <r_i_glide_evdw>
-40.4944

>  <r_i_glide_ecoul>
-11.6927

>  <r_i_glide_energy>
-52.1871

>  <r_i_glide_einternal>
5.49228

>  <r_i_glide_emodel>
-68.8741

>  <r_glide_XP_HBond>
-0.7

>  <i_i_glide_confnum>
1

>  <i_i_glide_posenum>
6

>  <r_i_glide_eff_state_penalty>
0.0139

>  <i_glide_XP_PoseRank>
1

$$$$
