BACE_35.smi:1
 OpenBabel09291822493D
Structure written by MMmdl.
 72 73  0  0  1  0  0  0  0  0999 V2000
   19.1105   37.8933   -8.5614 C   0  0  0  0  0  0  0  0  0  0  0  0
   19.4171   39.2362   -9.2513 C   0  0  2  0  0  0  0  0  0  0  0  0
   18.5449   39.4021  -10.5206 C   0  0  0  0  0  0  0  0  0  0  0  0
   17.0298   39.5585  -10.2724 C   0  0  0  0  0  0  0  0  0  0  0  0
   16.6574   40.8216   -9.4824 C   0  0  0  0  0  0  0  0  0  0  0  0
   15.1533   41.1400   -9.5460 C   0  0  0  0  0  0  0  0  0  0  0  0
   14.7298   42.3607   -8.7067 C   0  0  0  0  0  0  0  0  0  0  0  0
   15.4460   43.6606   -9.0926 C   0  0  0  0  0  0  0  0  0  0  0  0
   15.1186   44.0088  -10.4357 O   0  0  0  0  0  0  0  0  0  0  0  0
   16.0135   44.9220  -11.0655 C   0  0  0  0  0  0  0  0  0  0  0  0
   17.3104   44.1977  -11.4842 C   0  0  0  0  0  0  0  0  0  0  0  0
   17.2141   43.3735  -12.3992 O   0  0  0  0  0  0  0  0  0  0  0  0
   18.4780   44.4702  -10.8485 N   0  0  0  0  0  0  0  0  0  0  0  0
   18.5521   45.5084   -9.8084 C   0  0  0  0  0  0  0  0  0  0  0  0
   19.7103   43.6913  -11.1429 C   0  0  1  0  0  0  0  0  0  0  0  0
   20.8943   44.6427  -11.4020 C   0  0  0  0  0  0  0  0  0  0  0  0
   20.0835   42.7215  -10.0059 C   0  0  0  0  0  0  0  0  0  0  0  0
   19.6569   42.8827   -8.8630 O   0  0  0  0  0  0  0  0  0  0  0  0
   20.9186   41.7254  -10.3377 N   0  0  0  0  0  0  0  0  0  0  0  0
   21.5404   40.7807   -9.4087 C   0  0  1  0  0  0  0  0  0  0  0  0
   20.9312   39.3594   -9.5597 C   0  0  0  0  0  0  0  0  0  0  0  0
   23.0822   40.7594   -9.6014 C   0  0  2  0  0  0  0  0  0  0  0  0
   23.6467   40.1510   -8.4511 O   0  0  0  0  0  0  0  0  0  0  0  0
   23.7678   42.1425   -9.7715 C   0  0  0  0  0  0  0  0  0  0  0  0
   24.7884   42.1488  -10.8313 N   0  0  0  0  0  0  0  0  0  0  0  0
   25.9763   41.3510  -10.5201 C   0  0  0  0  0  0  0  0  0  0  0  0
   27.2415   42.1804  -10.4757 C   0  0  0  0  0  0  0  0  0  0  0  0
   27.3413   43.3156   -9.6429 C   0  0  0  0  0  0  0  0  0  0  0  0
   28.4607   44.0615   -9.5326 N   0  0  0  0  0  0  0  0  0  0  0  0
   29.5338   43.6987  -10.2656 C   0  0  0  0  0  0  0  0  0  0  0  0
   29.5389   42.5893  -11.1346 C   0  0  0  0  0  0  0  0  0  0  0  0
   31.0929   42.1501  -12.1333 Br  0  0  0  0  0  0  0  0  0  0  0  0
   28.3683   41.8134  -11.2409 C   0  0  0  0  0  0  0  0  0  0  0  0
   19.1644   40.0215   -8.5380 H   0  0  0  0  0  0  0  0  0  0  0  0
   19.5817   43.0928  -12.0455 H   0  0  0  0  0  0  0  0  0  0  0  0
   21.3521   41.1178   -8.3871 H   0  0  0  0  0  0  0  0  0  0  0  0
   23.3039   40.1412  -10.4727 H   0  0  0  0  0  0  0  0  0  0  0  0
   18.0688   37.8325   -8.2452 H   0  0  0  0  0  0  0  0  0  0  0  0
   19.7122   37.7578   -7.6634 H   0  0  0  0  0  0  0  0  0  0  0  0
   19.3089   37.0521   -9.2270 H   0  0  0  0  0  0  0  0  0  0  0  0
   18.8781   40.2602  -11.1015 H   0  0  0  0  0  0  0  0  0  0  0  0
   18.7035   38.5424  -11.1730 H   0  0  0  0  0  0  0  0  0  0  0  0
   16.6266   38.6779   -9.7757 H   0  0  0  0  0  0  0  0  0  0  0  0
   16.5383   39.6025  -11.2398 H   0  0  0  0  0  0  0  0  0  0  0  0
   16.9643   40.7094   -8.4421 H   0  0  0  0  0  0  0  0  0  0  0  0
   17.2261   41.6556   -9.8859 H   0  0  0  0  0  0  0  0  0  0  0  0
   14.5908   40.2709   -9.2034 H   0  0  0  0  0  0  0  0  0  0  0  0
   14.8609   41.3013  -10.5820 H   0  0  0  0  0  0  0  0  0  0  0  0
   13.6561   42.5076   -8.8179 H   0  0  0  0  0  0  0  0  0  0  0  0
   14.9041   42.1494   -7.6491 H   0  0  0  0  0  0  0  0  0  0  0  0
   16.5140   43.5273   -8.9445 H   0  0  0  0  0  0  0  0  0  0  0  0
   15.1481   44.4687   -8.4253 H   0  0  0  0  0  0  0  0  0  0  0  0
   16.1651   45.8013  -10.4450 H   0  0  0  0  0  0  0  0  0  0  0  0
   15.5374   45.2841  -11.9758 H   0  0  0  0  0  0  0  0  0  0  0  0
   19.5427   45.6071   -9.3709 H   0  0  0  0  0  0  0  0  0  0  0  0
   17.8838   45.2876   -8.9766 H   0  0  0  0  0  0  0  0  0  0  0  0
   18.2800   46.4836  -10.2182 H   0  0  0  0  0  0  0  0  0  0  0  0
   21.7143   44.1169  -11.8923 H   0  0  0  0  0  0  0  0  0  0  0  0
   21.2989   45.0633  -10.4823 H   0  0  0  0  0  0  0  0  0  0  0  0
   20.6064   45.4733  -12.0407 H   0  0  0  0  0  0  0  0  0  0  0  0
   21.2130   41.6622  -11.3026 H   0  0  0  0  0  0  0  0  0  0  0  0
   21.1429   38.9579  -10.5524 H   0  0  0  0  0  0  0  0  0  0  0  0
   21.4720   38.7066   -8.8733 H   0  0  0  0  0  0  0  0  0  0  0  0
   24.1640   39.4119   -8.7546 H   0  0  0  0  0  0  0  0  0  0  0  0
   23.0316   42.9041  -10.0208 H   0  0  0  0  0  0  0  0  0  0  0  0
   24.1979   42.4781   -8.8268 H   0  0  0  0  0  0  0  0  0  0  0  0
   24.3810   41.7863  -11.6921 H   0  0  0  0  0  0  0  0  0  0  0  0
   25.8777   40.8504   -9.5601 H   0  0  0  0  0  0  0  0  0  0  0  0
   26.0889   40.5480  -11.2480 H   0  0  0  0  0  0  0  0  0  0  0  0
   26.5029   43.6279   -9.0352 H   0  0  0  0  0  0  0  0  0  0  0  0
   30.4169   44.3156  -10.1605 H   0  0  0  0  0  0  0  0  0  0  0  0
   28.3430   40.9515  -11.8897 H   0  0  0  0  0  0  0  0  0  0  0  0
  1  2  1  0  0  0  0
  1 38  1  0  0  0  0
  1 39  1  0  0  0  0
  1 40  1  0  0  0  0
  2 34  1  1  0  0  0
  2 21  1  0  0  0  0
  2  3  1  0  0  0  0
  3  4  1  0  0  0  0
  3 41  1  0  0  0  0
  3 42  1  0  0  0  0
  4  5  1  0  0  0  0
  4 43  1  0  0  0  0
  4 44  1  0  0  0  0
  5  6  1  0  0  0  0
  5 45  1  0  0  0  0
  5 46  1  0  0  0  0
  6  7  1  0  0  0  0
  6 47  1  0  0  0  0
  6 48  1  0  0  0  0
  7  8  1  0  0  0  0
  7 49  1  0  0  0  0
  7 50  1  0  0  0  0
  8  9  1  0  0  0  0
  8 51  1  0  0  0  0
  8 52  1  0  0  0  0
  9 10  1  0  0  0  0
 10 11  1  0  0  0  0
 10 53  1  0  0  0  0
 10 54  1  0  0  0  0
 11 12  2  0  0  0  0
 11 13  1  0  0  0  0
 13 14  1  0  0  0  0
 13 15  1  0  0  0  0
 14 55  1  0  0  0  0
 14 56  1  0  0  0  0
 14 57  1  0  0  0  0
 15 35  1  6  0  0  0
 15 16  1  0  0  0  0
 15 17  1  0  0  0  0
 16 58  1  0  0  0  0
 16 59  1  0  0  0  0
 16 60  1  0  0  0  0
 17 18  2  0  0  0  0
 17 19  1  0  0  0  0
 19 20  1  0  0  0  0
 19 61  1  0  0  0  0
 20 36  1  1  0  0  0
 20 21  1  0  0  0  0
 20 22  1  0  0  0  0
 21 62  1  0  0  0  0
 21 63  1  0  0  0  0
 22 37  1  6  0  0  0
 22 23  1  0  0  0  0
 22 24  1  0  0  0  0
 23 64  1  0  0  0  0
 24 25  1  0  0  0  0
 24 65  1  0  0  0  0
 24 66  1  0  0  0  0
 25 26  1  0  0  0  0
 25 67  1  0  0  0  0
 26 27  1  0  0  0  0
 26 68  1  0  0  0  0
 26 69  1  0  0  0  0
 27 33  1  0  0  0  0
 27 28  2  0  0  0  0
 28 29  1  0  0  0  0
 28 70  1  0  0  0  0
 29 30  2  0  0  0  0
 30 31  1  0  0  0  0
 30 71  1  0  0  0  0
 31 32  1  0  0  0  0
 31 33  2  0  0  0  0
 33 72  1  0  0  0  0
M  END
>  <s_m_source_file>
BACE_35.smi

>  <i_m_source_file_index>
1

>  <i_lp_mmshare_version>
42013

>  <i_f3d_flags>
0

>  <s_epik_input>
W0NIM11bQ0BASF0xW0NIMl1bQ0gyXVtDSDJdW0NIMl1bQ0gyXVtDSDJdT1tDSDJdQyg9TylOKFtDSDNdKVtDQEBIXShbQ0gzXSlDKD1PKVtOSF1bQ0BASF0oW0NIMl0xKVtDQEhdKFtPSF0pW0NIMl1bTkhdW0NIMl1jMltjSF1uW2NIXWMoQnIpW2NIXTI=

>  <s_epik_cmdline>
J2VwaWtfcHl0aG9uJywgJy1waCcsICc3LjAnLCAnLXRuJywgJzgnLCAnLW1hJywgJzIwMCcsICctaW1hZScsICc8aW5maWxlLm1hZT4nLCAnLW9tYWUnLCAnPG91dGZpbGUubWFlPic=

>  <r_epik_Ionization_Penalty>
1.4994

>  <r_epik_Ionization_Penalty_Charging>
0.0000

>  <r_epik_Ionization_Penalty_Neutral>
1.4994

>  <r_epik_State_Penalty>
1.5893

>  <r_epik_Charging_Adjusted_Penalty>
1.58931

>  <i_epik_Tot_Q>
0

>  <i_epik_Tot_abs_Q>
0

>  <s_lp_Force_Field>
OPLS_2005

>  <r_lp_Energy>
42.9726

>  <b_lp_Chiralities_Consistent>
1

>  <s_lp_Variant>
BACE_35.smi:1-2

>  <chiral flag>
1

>  <version>
0

>  <s_i_glide_gridfile>
second_dock_grid_2

>  <i_i_glide_lignum>
62

>  <i_i_glide_rotatable_bonds>
6

>  <r_i_docking_score>
-3.1698

>  <r_i_glide_ligand_efficiency>
-0.0960546

>  <r_i_glide_ligand_efficiency_sa>
-0.308099

>  <r_i_glide_ligand_efficiency_ln>
-0.704948

>  <r_glide_XP_GScore>
-4.7591

>  <r_i_glide_gscore>
-4.7591

>  <r_i_glide_evdw>
-34.0897

>  <r_i_glide_ecoul>
-11.568

>  <r_i_glide_energy>
-45.6577

>  <r_i_glide_einternal>
5.56428

>  <r_i_glide_emodel>
-61.6105

>  <r_glide_XP_HBond>
-1.89

>  <i_i_glide_confnum>
1

>  <i_i_glide_posenum>
6

>  <r_i_glide_eff_state_penalty>
1.5893

>  <i_glide_XP_PoseRank>
1

$$$$
