BACE_108.smi:1
 OpenBabel09291822493D
Structure written by MMmdl.
 85 88  0  0  1  0  0  0  0  0999 V2000
   15.3402   39.6293   -6.8767 C   0  0  0  0  0  0  0  0  0  0  0  0
   15.9952   40.4203   -7.9916 C   0  0  0  0  0  0  0  0  0  0  0  0
   15.8767   41.8239   -8.0390 C   0  0  0  0  0  0  0  0  0  0  0  0
   16.5451   42.5342   -9.0550 C   0  0  0  0  0  0  0  0  0  0  0  0
   17.2400   41.7974  -10.0341 C   0  0  0  0  0  0  0  0  0  0  0  0
   17.3224   40.4008   -9.8919 C   0  0  0  0  0  0  0  0  0  0  0  0
   16.7127   39.7201   -8.8938 N   0  0  0  0  0  0  0  0  0  0  0  0
   18.0993   39.6925  -10.7776 O   0  0  0  0  0  0  0  0  0  0  0  0
   18.9966   38.7471  -10.2030 C   0  0  0  0  0  0  0  0  0  0  0  0
   20.3917   39.0191  -10.7839 C   0  0  0  0  0  0  0  0  0  0  0  0
   21.5415   38.5481   -9.8653 C   0  0  0  0  0  0  0  0  0  0  0  0
   21.8235   39.4350   -8.6368 C   0  0  0  0  0  0  0  0  0  0  0  0
   22.0868   40.8876   -8.9990 C   0  0  0  0  0  0  0  0  0  0  0  0
   20.9890   41.7695   -9.0828 C   0  0  0  0  0  0  0  0  0  0  0  0
   21.1605   43.1132   -9.4747 C   0  0  0  0  0  0  0  0  0  0  0  0
   19.9497   44.0043   -9.7131 C   0  0  0  0  0  0  0  0  0  0  0  0
   19.0010   44.1562   -8.4979 C   0  0  2  0  0  0  0  0  0  0  0  0
   17.7028   44.6892   -8.9378 N   0  0  0  0  0  0  0  0  0  0  0  0
   16.5308   44.0368   -9.0743 C   0  0  0  0  0  0  0  0  0  0  0  0
   15.4730   44.6491   -9.2180 O   0  0  0  0  0  0  0  0  0  0  0  0
   19.6181   45.0685   -7.4064 C   0  0  2  0  0  0  0  0  0  0  0  0
   18.8667   44.9456   -6.2174 O   0  0  0  0  0  0  0  0  0  0  0  0
   19.6669   46.5643   -7.7550 C   0  0  0  0  0  0  0  0  0  0  0  0
   20.5430   47.2663   -6.8167 N   0  0  0  0  0  0  0  0  0  0  0  0
   20.6960   48.7214   -6.9598 C   0  0  0  0  0  0  0  0  0  0  0  0
   21.2806   49.0448   -8.3539 C   0  0  0  0  0  0  0  0  0  0  0  0
   19.3300   49.4159   -6.7826 C   0  0  0  0  0  0  0  0  0  0  0  0
   21.6564   49.2031   -5.8894 C   0  0  0  0  0  0  0  0  0  0  0  0
   22.2846   48.4600   -4.8430 C   0  0  0  0  0  0  0  0  0  0  0  0
   23.0936   49.3686   -4.2218 C   0  0  0  0  0  0  0  0  0  0  0  0
   24.0692   49.2664   -3.0895 C   0  0  0  0  0  0  0  0  0  0  0  0
   23.9399   50.2915   -1.9168 C   0  0  0  0  0  0  0  0  0  0  0  0
   25.0963   51.3056   -2.0042 C   0  0  0  0  0  0  0  0  0  0  0  0
   24.0691   49.5317   -0.5792 C   0  0  0  0  0  0  0  0  0  0  0  0
   22.6091   51.0823   -1.9113 C   0  0  0  0  0  0  0  0  0  0  0  0
   22.9867   50.5692   -4.8409 O   0  0  0  0  0  0  0  0  0  0  0  0
   22.0282   50.4746   -5.8505 N   0  0  0  0  0  0  0  0  0  0  0  0
   22.4621   43.5903   -9.7186 C   0  0  0  0  0  0  0  0  0  0  0  0
   23.5735   42.7278   -9.6167 C   0  0  0  0  0  0  0  0  0  0  0  0
   25.1522   43.3478   -9.9428 Cl  0  0  0  0  0  0  0  0  0  0  0  0
   23.3909   41.3662   -9.2771 C   0  0  0  0  0  0  0  0  0  0  0  0
   24.4900   40.5501   -9.2240 O   0  0  0  0  0  0  0  0  0  0  0  0
   18.8478   43.1728   -8.0527 H   0  0  0  0  0  0  0  0  0  0  0  0
   20.6248   44.7107   -7.1917 H   0  0  0  0  0  0  0  0  0  0  0  0
   16.0281   39.5061   -6.0401 H   0  0  0  0  0  0  0  0  0  0  0  0
   15.0416   38.6345   -7.2124 H   0  0  0  0  0  0  0  0  0  0  0  0
   14.4481   40.1411   -6.5076 H   0  0  0  0  0  0  0  0  0  0  0  0
   15.3263   42.3408   -7.2705 H   0  0  0  0  0  0  0  0  0  0  0  0
   17.7401   42.2833  -10.8549 H   0  0  0  0  0  0  0  0  0  0  0  0
   19.0455   38.8234   -9.1164 H   0  0  0  0  0  0  0  0  0  0  0  0
   18.6707   37.7344  -10.4363 H   0  0  0  0  0  0  0  0  0  0  0  0
   20.4586   38.5496  -11.7645 H   0  0  0  0  0  0  0  0  0  0  0  0
   20.5055   40.0788  -11.0074 H   0  0  0  0  0  0  0  0  0  0  0  0
   21.3534   37.5254   -9.5390 H   0  0  0  0  0  0  0  0  0  0  0  0
   22.4601   38.5077  -10.4401 H   0  0  0  0  0  0  0  0  0  0  0  0
   20.9850   39.3894   -7.9408 H   0  0  0  0  0  0  0  0  0  0  0  0
   22.6754   39.0362   -8.0848 H   0  0  0  0  0  0  0  0  0  0  0  0
   19.9934   41.3899   -8.9001 H   0  0  0  0  0  0  0  0  0  0  0  0
   20.2825   44.9790  -10.0671 H   0  0  0  0  0  0  0  0  0  0  0  0
   19.4203   43.5754  -10.5600 H   0  0  0  0  0  0  0  0  0  0  0  0
   17.6378   45.6937   -8.9824 H   0  0  0  0  0  0  0  0  0  0  0  0
   18.7929   44.0248   -6.0146 H   0  0  0  0  0  0  0  0  0  0  0  0
   20.0423   46.6864   -8.7690 H   0  0  0  0  0  0  0  0  0  0  0  0
   18.6569   46.9743   -7.7388 H   0  0  0  0  0  0  0  0  0  0  0  0
   20.2490   47.0374   -5.8719 H   0  0  0  0  0  0  0  0  0  0  0  0
   21.4539   50.1141   -8.4766 H   0  0  0  0  0  0  0  0  0  0  0  0
   20.6171   48.7468   -9.1657 H   0  0  0  0  0  0  0  0  0  0  0  0
   22.2370   48.5427   -8.5051 H   0  0  0  0  0  0  0  0  0  0  0  0
   19.4334   50.4987   -6.8390 H   0  0  0  0  0  0  0  0  0  0  0  0
   18.8892   49.1735   -5.8161 H   0  0  0  0  0  0  0  0  0  0  0  0
   18.6166   49.1381   -7.5592 H   0  0  0  0  0  0  0  0  0  0  0  0
   22.1858   47.4109   -4.6137 H   0  0  0  0  0  0  0  0  0  0  0  0
   23.9690   48.2582   -2.6900 H   0  0  0  0  0  0  0  0  0  0  0  0
   25.0780   49.2860   -3.5008 H   0  0  0  0  0  0  0  0  0  0  0  0
   25.0461   52.0426   -1.2012 H   0  0  0  0  0  0  0  0  0  0  0  0
   25.0800   51.8461   -2.9502 H   0  0  0  0  0  0  0  0  0  0  0  0
   26.0678   50.8139   -1.9286 H   0  0  0  0  0  0  0  0  0  0  0  0
   25.0055   48.9747   -0.5285 H   0  0  0  0  0  0  0  0  0  0  0  0
   23.2617   48.8150   -0.4400 H   0  0  0  0  0  0  0  0  0  0  0  0
   24.0580   50.2111    0.2729 H   0  0  0  0  0  0  0  0  0  0  0  0
   22.5598   51.7495   -1.0517 H   0  0  0  0  0  0  0  0  0  0  0  0
   21.7402   50.4284   -1.8768 H   0  0  0  0  0  0  0  0  0  0  0  0
   22.4870   51.7310   -2.7768 H   0  0  0  0  0  0  0  0  0  0  0  0
   22.6202   44.6195  -10.0150 H   0  0  0  0  0  0  0  0  0  0  0  0
   24.4153   39.6248   -9.4624 H   0  0  0  0  0  0  0  0  0  0  0  0
  1  2  1  0  0  0  0
  1 45  1  0  0  0  0
  1 46  1  0  0  0  0
  1 47  1  0  0  0  0
  2  7  1  0  0  0  0
  2  3  2  0  0  0  0
  3  4  1  0  0  0  0
  3 48  1  0  0  0  0
  4 19  1  0  0  0  0
  4  5  2  0  0  0  0
  5  6  1  0  0  0  0
  5 49  1  0  0  0  0
  6  7  2  0  0  0  0
  6  8  1  0  0  0  0
  8  9  1  0  0  0  0
  9 10  1  0  0  0  0
  9 50  1  0  0  0  0
  9 51  1  0  0  0  0
 10 11  1  0  0  0  0
 10 52  1  0  0  0  0
 10 53  1  0  0  0  0
 11 12  1  0  0  0  0
 11 54  1  0  0  0  0
 11 55  1  0  0  0  0
 12 13  1  0  0  0  0
 12 56  1  0  0  0  0
 12 57  1  0  0  0  0
 13 41  1  0  0  0  0
 13 14  2  0  0  0  0
 14 15  1  0  0  0  0
 14 58  1  0  0  0  0
 15 16  1  0  0  0  0
 15 38  2  0  0  0  0
 16 17  1  0  0  0  0
 16 59  1  0  0  0  0
 16 60  1  0  0  0  0
 17 43  1  1  0  0  0
 17 18  1  0  0  0  0
 17 21  1  0  0  0  0
 18 19  1  0  0  0  0
 18 61  1  0  0  0  0
 19 20  2  0  0  0  0
 21 44  1  1  0  0  0
 21 22  1  0  0  0  0
 21 23  1  0  0  0  0
 22 62  1  0  0  0  0
 23 24  1  0  0  0  0
 23 63  1  0  0  0  0
 23 64  1  0  0  0  0
 24 25  1  0  0  0  0
 24 65  1  0  0  0  0
 25 26  1  0  0  0  0
 25 27  1  0  0  0  0
 25 28  1  0  0  0  0
 26 66  1  0  0  0  0
 26 67  1  0  0  0  0
 26 68  1  0  0  0  0
 27 69  1  0  0  0  0
 27 70  1  0  0  0  0
 27 71  1  0  0  0  0
 28 37  2  0  0  0  0
 28 29  1  0  0  0  0
 29 30  2  0  0  0  0
 29 72  1  0  0  0  0
 30 31  1  0  0  0  0
 30 36  1  0  0  0  0
 31 32  1  0  0  0  0
 31 73  1  0  0  0  0
 31 74  1  0  0  0  0
 32 33  1  0  0  0  0
 32 34  1  0  0  0  0
 32 35  1  0  0  0  0
 33 75  1  0  0  0  0
 33 76  1  0  0  0  0
 33 77  1  0  0  0  0
 34 78  1  0  0  0  0
 34 79  1  0  0  0  0
 34 80  1  0  0  0  0
 35 81  1  0  0  0  0
 35 82  1  0  0  0  0
 35 83  1  0  0  0  0
 36 37  1  0  0  0  0
 38 39  1  0  0  0  0
 38 84  1  0  0  0  0
 39 40  1  0  0  0  0
 39 41  2  0  0  0  0
 41 42  1  0  0  0  0
 42 85  1  0  0  0  0
M  END
>  <s_m_source_file>
BACE_108.smi

>  <i_m_source_file_index>
1

>  <i_lp_mmshare_version>
42013

>  <i_f3d_flags>
0

>  <s_epik_input>
YzEyW2NIXWMoW0NIM10pbmMoW2NIXTEpT1tDSDJdW0NIMl1bQ0gyXVtDSDJdYzNbY0hdYyhbY0hdYyhDbCljM1tPSF0pW0NIMl1bQ0BIXShbTkhdQzI9TylbQ0BIXShbT0hdKVtDSDJdW05IXUMoW0NIM10pKFtDSDNdKWM0W2NIXWMob240KVtDSDJdQyhbQ0gzXSkoW0NIM10pW0NIM10=

>  <s_epik_cmdline>
J2VwaWtfcHl0aG9uJywgJy1waCcsICc3LjAnLCAnLXRuJywgJzgnLCAnLW1hJywgJzIwMCcsICctaW1hZScsICc8aW5maWxlLm1hZT4nLCAnLW9tYWUnLCAnPG91dGZpbGUubWFlPic=

>  <r_lp_tautomer_probability>
1

>  <r_epik_Ionization_Penalty>
0.6556

>  <r_epik_Ionization_Penalty_Charging>
0.0000

>  <r_epik_Ionization_Penalty_Neutral>
0.6556

>  <r_epik_State_Penalty>
0.6577

>  <r_epik_Charging_Adjusted_Penalty>
0.65772

>  <i_epik_Tot_Q>
0

>  <i_epik_Tot_abs_Q>
0

>  <s_lp_Force_Field>
OPLS_2005

>  <r_lp_Energy>
41.1006

>  <b_lp_Chiralities_Consistent>
1

>  <s_lp_Variant>
BACE_108.smi:1-2

>  <chiral flag>
1

>  <version>
0

>  <s_i_glide_gridfile>
second_dock_grid_2

>  <i_i_glide_lignum>
221

>  <i_i_glide_rotatable_bonds>
9

>  <r_i_docking_score>
-4.14425

>  <r_i_glide_ligand_efficiency>
-0.0986725

>  <r_i_glide_ligand_efficiency_sa>
-0.342988

>  <r_i_glide_ligand_efficiency_ln>
-0.874744

>  <r_glide_XP_GScore>
-4.80195

>  <r_i_glide_gscore>
-4.80195

>  <r_i_glide_evdw>
-38.2718

>  <r_i_glide_ecoul>
-12.4514

>  <r_i_glide_energy>
-50.7231

>  <r_i_glide_einternal>
7.20574

>  <r_i_glide_emodel>
-61.9952

>  <r_glide_XP_HBond>
-0.556304

>  <i_i_glide_confnum>
1

>  <i_i_glide_posenum>
3

>  <r_i_glide_eff_state_penalty>
0.6577

>  <i_glide_XP_PoseRank>
1

$$$$
