BACE_92.smi:1
 OpenBabel09291822493D
Structure written by MMmdl.
 80 82  0  0  1  0  0  0  0  0999 V2000
   19.4315   44.3609  -11.2902 C   0  0  0  0  0  0  0  0  0  0  0  0
   19.0651   43.0151  -10.6376 C   0  0  2  0  0  0  0  0  0  0  0  0
   17.6882   43.0640   -9.9226 C   0  0  0  0  0  0  0  0  0  0  0  0
   16.5014   42.7041  -10.8383 C   0  0  0  0  0  0  0  0  0  0  0  0
   16.5593   42.9582  -12.0401 O   0  0  0  0  0  0  0  0  0  0  0  0
   15.4026   42.1246  -10.3237 N   0  0  0  0  0  0  0  0  0  0  0  0
   15.1428   41.7436   -8.9381 C   0  0  0  0  0  0  0  0  0  0  0  0
   15.7585   40.3794   -8.5741 C   0  0  0  0  0  0  0  0  0  0  0  0
   15.2777   39.2112   -9.4540 C   0  0  0  0  0  0  0  0  0  0  0  0
   15.8914   37.8441   -9.0937 C   0  0  0  0  0  0  0  0  0  0  0  0
   17.2575   37.7509   -9.4964 O   0  0  0  0  0  0  0  0  0  0  0  0
   18.2567   38.2255   -8.6718 C   0  0  0  0  0  0  0  0  0  0  0  0
   19.4846   38.5481   -9.2855 C   0  0  0  0  0  0  0  0  0  0  0  0
   20.5594   39.0666   -8.5334 C   0  0  0  0  0  0  0  0  0  0  0  0
   21.8704   39.4288   -9.2123 C   0  0  0  0  0  0  0  0  0  0  0  0
   22.0823   40.9510   -9.3964 C   0  0  2  0  0  0  0  0  0  0  0  0
   20.9289   41.5231  -10.0961 N   0  0  0  0  0  0  0  0  0  0  0  0
   20.1813   42.5613   -9.6862 C   0  0  0  0  0  0  0  0  0  0  0  0
   20.3634   43.1513   -8.6210 O   0  0  0  0  0  0  0  0  0  0  0  0
   23.3889   41.2710  -10.1681 C   0  0  2  0  0  0  0  0  0  0  0  0
   24.4904   40.9485   -9.3407 O   0  0  0  0  0  0  0  0  0  0  0  0
   23.5482   42.7573  -10.5565 C   0  0  0  0  0  0  0  0  0  0  0  0
   24.6948   42.9496  -11.4382 N   0  0  0  0  0  0  0  0  0  0  0  0
   25.9684   42.6439  -10.7960 C   0  0  0  0  0  0  0  0  0  0  0  0
   27.1446   42.9243  -11.7095 C   0  0  0  0  0  0  0  0  0  0  0  0
   27.3427   44.2192  -12.2317 C   0  0  0  0  0  0  0  0  0  0  0  0
   28.4393   44.5083  -13.0795 C   0  0  0  0  0  0  0  0  0  0  0  0
   29.3370   43.4574  -13.3950 C   0  0  0  0  0  0  0  0  0  0  0  0
   29.1414   42.1627  -12.8775 C   0  0  0  0  0  0  0  0  0  0  0  0
   28.0482   41.8944  -12.0351 C   0  0  0  0  0  0  0  0  0  0  0  0
   28.6197   45.9381  -13.6246 C   0  0  0  0  0  0  0  0  0  0  0  0
   29.8746   46.0913  -14.5141 C   0  0  0  0  0  0  0  0  0  0  0  0
   28.7580   46.9278  -12.4485 C   0  0  0  0  0  0  0  0  0  0  0  0
   27.3929   46.3257  -14.4757 C   0  0  0  0  0  0  0  0  0  0  0  0
   20.4124   39.2509   -7.1447 C   0  0  0  0  0  0  0  0  0  0  0  0
   19.1995   38.9162   -6.5162 C   0  0  0  0  0  0  0  0  0  0  0  0
   18.1274   38.4035   -7.2712 C   0  0  0  0  0  0  0  0  0  0  0  0
   19.0184   42.2692  -11.4340 H   0  0  0  0  0  0  0  0  0  0  0  0
   22.1582   41.3942   -8.4017 H   0  0  0  0  0  0  0  0  0  0  0  0
   23.4278   40.6468  -11.0625 H   0  0  0  0  0  0  0  0  0  0  0  0
   20.4052   44.3114  -11.7794 H   0  0  0  0  0  0  0  0  0  0  0  0
   19.4712   45.1648  -10.5543 H   0  0  0  0  0  0  0  0  0  0  0  0
   18.7024   44.6445  -12.0491 H   0  0  0  0  0  0  0  0  0  0  0  0
   17.7064   42.3984   -9.0626 H   0  0  0  0  0  0  0  0  0  0  0  0
   17.5111   44.0594   -9.5142 H   0  0  0  0  0  0  0  0  0  0  0  0
   14.6589   41.9212  -10.9760 H   0  0  0  0  0  0  0  0  0  0  0  0
   15.5002   42.5182   -8.2586 H   0  0  0  0  0  0  0  0  0  0  0  0
   14.0620   41.7011   -8.8024 H   0  0  0  0  0  0  0  0  0  0  0  0
   16.8403   40.4553   -8.6385 H   0  0  0  0  0  0  0  0  0  0  0  0
   15.5346   40.1577   -7.5303 H   0  0  0  0  0  0  0  0  0  0  0  0
   14.1930   39.1386   -9.3687 H   0  0  0  0  0  0  0  0  0  0  0  0
   15.4845   39.4205  -10.5039 H   0  0  0  0  0  0  0  0  0  0  0  0
   15.7121   37.5768   -8.0543 H   0  0  0  0  0  0  0  0  0  0  0  0
   15.3631   37.0823   -9.6673 H   0  0  0  0  0  0  0  0  0  0  0  0
   19.5933   38.4121  -10.3517 H   0  0  0  0  0  0  0  0  0  0  0  0
   22.6810   39.0029   -8.6201 H   0  0  0  0  0  0  0  0  0  0  0  0
   21.9154   38.9307  -10.1819 H   0  0  0  0  0  0  0  0  0  0  0  0
   20.6951   41.1062  -10.9856 H   0  0  0  0  0  0  0  0  0  0  0  0
   24.6132   40.0117   -9.3575 H   0  0  0  0  0  0  0  0  0  0  0  0
   22.6613   43.1108  -11.0799 H   0  0  0  0  0  0  0  0  0  0  0  0
   23.6353   43.3764   -9.6624 H   0  0  0  0  0  0  0  0  0  0  0  0
   24.5804   42.3509  -12.2500 H   0  0  0  0  0  0  0  0  0  0  0  0
   26.0817   43.2354   -9.8864 H   0  0  0  0  0  0  0  0  0  0  0  0
   25.9967   41.5967  -10.4924 H   0  0  0  0  0  0  0  0  0  0  0  0
   26.6400   44.9965  -11.9703 H   0  0  0  0  0  0  0  0  0  0  0  0
   30.1906   43.6142  -14.0353 H   0  0  0  0  0  0  0  0  0  0  0  0
   29.8344   41.3730  -13.1279 H   0  0  0  0  0  0  0  0  0  0  0  0
   27.9078   40.8987  -11.6402 H   0  0  0  0  0  0  0  0  0  0  0  0
   29.9743   47.1124  -14.8837 H   0  0  0  0  0  0  0  0  0  0  0  0
   29.8326   45.4406  -15.3884 H   0  0  0  0  0  0  0  0  0  0  0  0
   30.7886   45.8623  -13.9646 H   0  0  0  0  0  0  0  0  0  0  0  0
   29.6094   46.6710  -11.8165 H   0  0  0  0  0  0  0  0  0  0  0  0
   27.8714   46.9417  -11.8145 H   0  0  0  0  0  0  0  0  0  0  0  0
   28.9107   47.9476  -12.8039 H   0  0  0  0  0  0  0  0  0  0  0  0
   27.5000   47.3281  -14.8916 H   0  0  0  0  0  0  0  0  0  0  0  0
   26.4703   46.3184  -13.8951 H   0  0  0  0  0  0  0  0  0  0  0  0
   27.2599   45.6373  -15.3113 H   0  0  0  0  0  0  0  0  0  0  0  0
   21.2292   39.6476   -6.5595 H   0  0  0  0  0  0  0  0  0  0  0  0
   19.0898   39.0541   -5.4507 H   0  0  0  0  0  0  0  0  0  0  0  0
   17.2183   38.1601   -6.7457 H   0  0  0  0  0  0  0  0  0  0  0  0
  1  2  1  0  0  0  0
  1 41  1  0  0  0  0
  1 42  1  0  0  0  0
  1 43  1  0  0  0  0
  2 38  1  6  0  0  0
  2 18  1  0  0  0  0
  2  3  1  0  0  0  0
  3  4  1  0  0  0  0
  3 44  1  0  0  0  0
  3 45  1  0  0  0  0
  4  5  2  0  0  0  0
  4  6  1  0  0  0  0
  6  7  1  0  0  0  0
  6 46  1  0  0  0  0
  7  8  1  0  0  0  0
  7 47  1  0  0  0  0
  7 48  1  0  0  0  0
  8  9  1  0  0  0  0
  8 49  1  0  0  0  0
  8 50  1  0  0  0  0
  9 10  1  0  0  0  0
  9 51  1  0  0  0  0
  9 52  1  0  0  0  0
 10 11  1  0  0  0  0
 10 53  1  0  0  0  0
 10 54  1  0  0  0  0
 11 12  1  0  0  0  0
 12 37  1  0  0  0  0
 12 13  2  0  0  0  0
 13 14  1  0  0  0  0
 13 55  1  0  0  0  0
 14 15  1  0  0  0  0
 14 35  2  0  0  0  0
 15 16  1  0  0  0  0
 15 56  1  0  0  0  0
 15 57  1  0  0  0  0
 16 39  1  1  0  0  0
 16 17  1  0  0  0  0
 16 20  1  0  0  0  0
 17 18  1  0  0  0  0
 17 58  1  0  0  0  0
 18 19  2  0  0  0  0
 20 40  1  6  0  0  0
 20 21  1  0  0  0  0
 20 22  1  0  0  0  0
 21 59  1  0  0  0  0
 22 23  1  0  0  0  0
 22 60  1  0  0  0  0
 22 61  1  0  0  0  0
 23 24  1  0  0  0  0
 23 62  1  0  0  0  0
 24 25  1  0  0  0  0
 24 63  1  0  0  0  0
 24 64  1  0  0  0  0
 25 30  1  0  0  0  0
 25 26  2  0  0  0  0
 26 27  1  0  0  0  0
 26 65  1  0  0  0  0
 27 28  2  0  0  0  0
 27 31  1  0  0  0  0
 28 29  1  0  0  0  0
 28 66  1  0  0  0  0
 29 30  2  0  0  0  0
 29 67  1  0  0  0  0
 30 68  1  0  0  0  0
 31 32  1  0  0  0  0
 31 33  1  0  0  0  0
 31 34  1  0  0  0  0
 32 69  1  0  0  0  0
 32 70  1  0  0  0  0
 32 71  1  0  0  0  0
 33 72  1  0  0  0  0
 33 73  1  0  0  0  0
 33 74  1  0  0  0  0
 34 75  1  0  0  0  0
 34 76  1  0  0  0  0
 34 77  1  0  0  0  0
 35 36  1  0  0  0  0
 35 78  1  0  0  0  0
 36 37  2  0  0  0  0
 36 79  1  0  0  0  0
 37 80  1  0  0  0  0
M  END
>  <s_m_source_file>
BACE_92.smi

>  <i_m_source_file_index>
1

>  <i_lp_mmshare_version>
42013

>  <i_f3d_flags>
0

>  <s_epik_input>
TzFbQ0gyXVtDSDJdW0NIMl1bQ0gyXVtOSF1DKD1PKVtDSDJdW0NAQEhdKFtDSDNdKUMoPU8pW05IXVtDQEBIXShbQ0gyXWMoW2NIXWMxMilbY0hdW2NIXVtjSF0yKVtDQEhdKFtPSF0pW0NIMl1bTkhdW0NIMl1jM1tjSF1jKEMoW0NIM10pKFtDSDNdKVtDSDNdKVtjSF1bY0hdW2NIXTM=

>  <s_epik_cmdline>
J2VwaWtfcHl0aG9uJywgJy1waCcsICc3LjAnLCAnLXRuJywgJzgnLCAnLW1hJywgJzIwMCcsICctaW1hZScsICc8aW5maWxlLm1hZT4nLCAnLW9tYWUnLCAnPG91dGZpbGUubWFlPic=

>  <r_lp_tautomer_probability>
1

>  <r_epik_Ionization_Penalty>
2.0216

>  <r_epik_Ionization_Penalty_Charging>
0.0000

>  <r_epik_Ionization_Penalty_Neutral>
2.0216

>  <r_epik_State_Penalty>
2.1519

>  <r_epik_Charging_Adjusted_Penalty>
2.15191

>  <i_epik_Tot_Q>
0

>  <i_epik_Tot_abs_Q>
0

>  <s_lp_Force_Field>
OPLS_2005

>  <r_lp_Energy>
34.9719

>  <b_lp_Chiralities_Consistent>
1

>  <s_lp_Variant>
BACE_92.smi:1-2

>  <chiral flag>
1

>  <version>
0

>  <s_i_glide_gridfile>
second_dock_grid_2

>  <i_i_glide_lignum>
187

>  <i_i_glide_rotatable_bonds>
7

>  <r_i_docking_score>
-2.4602

>  <r_i_glide_ligand_efficiency>
-0.066492

>  <r_i_glide_ligand_efficiency_sa>
-0.221566

>  <r_i_glide_ligand_efficiency_ln>
-0.533561

>  <r_glide_XP_GScore>
-4.6121

>  <r_i_glide_gscore>
-4.6121

>  <r_i_glide_evdw>
-35.8095

>  <r_i_glide_ecoul>
-13.3276

>  <r_i_glide_energy>
-49.137

>  <r_i_glide_einternal>
6.08376

>  <r_i_glide_emodel>
-72.3341

>  <r_glide_XP_HBond>
-1.58844

>  <i_i_glide_confnum>
1

>  <i_i_glide_posenum>
5

>  <r_i_glide_eff_state_penalty>
2.1519

>  <i_glide_XP_PoseRank>
1

$$$$
