BACE_30.smi:1
 OpenBabel09291822493D
Structure written by MMmdl.
 89 90  0  0  1  0  0  0  0  0999 V2000
   21.2846   49.0379   -8.0319 C   0  0  0  0  0  0  0  0  0  0  0  0
   21.0040   48.5450   -6.6044 C   0  0  2  0  0  0  0  0  0  0  0  0
   19.5815   48.2594   -6.3628 N   0  0  0  0  0  0  0  0  0  0  0  0
   18.9597   47.1823   -7.1541 C   0  0  0  0  0  0  0  0  0  0  0  0
   19.6070   45.7923   -6.9354 C   0  0  1  0  0  0  0  0  0  0  0  0
   19.2601   45.3501   -5.6402 O   0  0  0  0  0  0  0  0  0  0  0  0
   19.1564   44.7452   -7.9885 C   0  0  2  0  0  0  0  0  0  0  0  0
   17.7718   44.1033   -7.7107 C   0  0  0  0  0  0  0  0  0  0  0  0
   17.0541   43.5553   -8.9648 C   0  0  2  0  0  0  0  0  0  0  0  0
   16.4699   44.7031   -9.8105 C   0  0  0  0  0  0  0  0  0  0  0  0
   15.9358   42.5495   -8.6046 C   0  0  0  0  0  0  0  0  0  0  0  0
   16.4107   41.1618   -8.1274 C   0  0  0  0  0  0  0  0  0  0  0  0
   17.1616   40.3726   -9.2103 C   0  0  0  0  0  0  0  0  0  0  0  0
   17.4508   38.9156   -8.8101 C   0  0  0  0  0  0  0  0  0  0  0  0
   18.1630   38.1246   -9.9252 C   0  0  0  0  0  0  0  0  0  0  0  0
   19.6072   38.5703  -10.2078 C   0  0  0  0  0  0  0  0  0  0  0  0
   20.6109   38.0961   -9.1456 C   0  0  0  0  0  0  0  0  0  0  0  0
   21.9909   38.7671   -9.2497 C   0  0  0  0  0  0  0  0  0  0  0  0
   21.9788   40.2093   -8.7118 C   0  0  0  0  0  0  0  0  0  0  0  0
   21.8132   40.3523   -7.4979 O   0  0  0  0  0  0  0  0  0  0  0  0
   22.1475   41.2648   -9.5502 N   0  0  0  0  0  0  0  0  0  0  0  0
   22.2591   41.0936  -11.0052 C   0  0  0  0  0  0  0  0  0  0  0  0
   22.1943   42.6394   -9.0040 C   0  0  1  0  0  0  0  0  0  0  0  0
   23.3640   43.4488   -9.6161 C   0  0  0  0  0  0  0  0  0  0  0  0
   20.8695   43.3944   -9.2174 C   0  0  0  0  0  0  0  0  0  0  0  0
   20.4851   43.6995  -10.3481 O   0  0  0  0  0  0  0  0  0  0  0  0
   20.2156   43.7421   -8.1007 N   0  0  0  0  0  0  0  0  0  0  0  0
   21.5203   49.5087   -5.5688 C   0  0  0  0  0  0  0  0  0  0  0  0
   22.2822   49.1946   -4.4134 C   0  0  0  0  0  0  0  0  0  0  0  0
   22.3750   50.3794   -3.7420 C   0  0  0  0  0  0  0  0  0  0  0  0
   22.9485   50.7698   -2.4146 C   0  0  0  0  0  0  0  0  0  0  0  0
   24.4563   50.4678   -2.1681 C   0  0  0  0  0  0  0  0  0  0  0  0
   25.3440   51.0646   -3.2757 C   0  0  0  0  0  0  0  0  0  0  0  0
   24.8589   51.0977   -0.8215 C   0  0  0  0  0  0  0  0  0  0  0  0
   24.7177   48.9505   -2.0684 C   0  0  0  0  0  0  0  0  0  0  0  0
   21.7225   51.3503   -4.4396 O   0  0  0  0  0  0  0  0  0  0  0  0
   21.2084   50.7954   -5.6159 N   0  0  0  0  0  0  0  0  0  0  0  0
   21.5817   47.6343   -6.4705 H   0  0  0  0  0  0  0  0  0  0  0  0
   20.6915   45.8690   -6.9908 H   0  0  0  0  0  0  0  0  0  0  0  0
   19.1088   45.2762   -8.9381 H   0  0  0  0  0  0  0  0  0  0  0  0
   17.7870   43.0486   -9.5905 H   0  0  0  0  0  0  0  0  0  0  0  0
   22.4088   42.6235   -7.9343 H   0  0  0  0  0  0  0  0  0  0  0  0
   21.0164   48.2916   -8.7801 H   0  0  0  0  0  0  0  0  0  0  0  0
   22.3432   49.2556   -8.1677 H   0  0  0  0  0  0  0  0  0  0  0  0
   20.7314   49.9514   -8.2589 H   0  0  0  0  0  0  0  0  0  0  0  0
   19.0571   49.1150   -6.5040 H   0  0  0  0  0  0  0  0  0  0  0  0
   18.9980   47.4452   -8.2092 H   0  0  0  0  0  0  0  0  0  0  0  0
   17.8995   47.1181   -6.9135 H   0  0  0  0  0  0  0  0  0  0  0  0
   19.5515   44.4534   -5.5443 H   0  0  0  0  0  0  0  0  0  0  0  0
   17.8982   43.3168   -6.9665 H   0  0  0  0  0  0  0  0  0  0  0  0
   17.1144   44.8314   -7.2394 H   0  0  0  0  0  0  0  0  0  0  0  0
   15.9709   44.3186  -10.6985 H   0  0  0  0  0  0  0  0  0  0  0  0
   17.2413   45.3904  -10.1520 H   0  0  0  0  0  0  0  0  0  0  0  0
   15.7382   45.2791   -9.2412 H   0  0  0  0  0  0  0  0  0  0  0  0
   15.2952   42.9831   -7.8359 H   0  0  0  0  0  0  0  0  0  0  0  0
   15.2906   42.3946   -9.4676 H   0  0  0  0  0  0  0  0  0  0  0  0
   15.5362   40.5894   -7.8101 H   0  0  0  0  0  0  0  0  0  0  0  0
   17.0394   41.2502   -7.2404 H   0  0  0  0  0  0  0  0  0  0  0  0
   16.5824   40.3837  -10.1338 H   0  0  0  0  0  0  0  0  0  0  0  0
   18.0999   40.8797   -9.4220 H   0  0  0  0  0  0  0  0  0  0  0  0
   16.5023   38.4224   -8.5852 H   0  0  0  0  0  0  0  0  0  0  0  0
   18.0283   38.8868   -7.8849 H   0  0  0  0  0  0  0  0  0  0  0  0
   18.1514   37.0591   -9.6811 H   0  0  0  0  0  0  0  0  0  0  0  0
   17.5812   38.2255  -10.8398 H   0  0  0  0  0  0  0  0  0  0  0  0
   19.6414   39.6509  -10.3129 H   0  0  0  0  0  0  0  0  0  0  0  0
   19.9152   38.1756  -11.1770 H   0  0  0  0  0  0  0  0  0  0  0  0
   20.2117   38.2552   -8.1436 H   0  0  0  0  0  0  0  0  0  0  0  0
   20.7366   37.0194   -9.2398 H   0  0  0  0  0  0  0  0  0  0  0  0
   22.4029   38.6701  -10.2535 H   0  0  0  0  0  0  0  0  0  0  0  0
   22.6836   38.2126   -8.6199 H   0  0  0  0  0  0  0  0  0  0  0  0
   22.1179   42.0198  -11.5623 H   0  0  0  0  0  0  0  0  0  0  0  0
   21.5174   40.3989  -11.3997 H   0  0  0  0  0  0  0  0  0  0  0  0
   23.2527   40.7121  -11.2392 H   0  0  0  0  0  0  0  0  0  0  0  0
   23.4765   44.4078   -9.1067 H   0  0  0  0  0  0  0  0  0  0  0  0
   23.2307   43.6729  -10.6749 H   0  0  0  0  0  0  0  0  0  0  0  0
   24.3102   42.9166   -9.5040 H   0  0  0  0  0  0  0  0  0  0  0  0
   20.5839   43.3748   -7.2327 H   0  0  0  0  0  0  0  0  0  0  0  0
   22.6485   48.2276   -4.1038 H   0  0  0  0  0  0  0  0  0  0  0  0
   22.7741   51.8343   -2.2684 H   0  0  0  0  0  0  0  0  0  0  0  0
   22.3580   50.2842   -1.6406 H   0  0  0  0  0  0  0  0  0  0  0  0
   25.0844   50.6826   -4.2624 H   0  0  0  0  0  0  0  0  0  0  0  0
   26.3960   50.8276   -3.1052 H   0  0  0  0  0  0  0  0  0  0  0  0
   25.2602   52.1501   -3.2993 H   0  0  0  0  0  0  0  0  0  0  0  0
   24.2657   50.6853   -0.0085 H   0  0  0  0  0  0  0  0  0  0  0  0
   24.7161   52.1779   -0.8208 H   0  0  0  0  0  0  0  0  0  0  0  0
   25.9070   50.9091   -0.5862 H   0  0  0  0  0  0  0  0  0  0  0  0
   24.0464   48.4725   -1.3552 H   0  0  0  0  0  0  0  0  0  0  0  0
   25.7366   48.7512   -1.7368 H   0  0  0  0  0  0  0  0  0  0  0  0
   24.6039   48.4519   -3.0281 H   0  0  0  0  0  0  0  0  0  0  0  0
  1  2  1  0  0  0  0
  1 43  1  0  0  0  0
  1 44  1  0  0  0  0
  1 45  1  0  0  0  0
  2 38  1  1  0  0  0
  2  3  1  0  0  0  0
  2 28  1  0  0  0  0
  3  4  1  0  0  0  0
  3 46  1  0  0  0  0
  4  5  1  0  0  0  0
  4 47  1  0  0  0  0
  4 48  1  0  0  0  0
  5 39  1  6  0  0  0
  5  6  1  0  0  0  0
  5  7  1  0  0  0  0
  6 49  1  0  0  0  0
  7 40  1  6  0  0  0
  7 27  1  0  0  0  0
  7  8  1  0  0  0  0
  8  9  1  0  0  0  0
  8 50  1  0  0  0  0
  8 51  1  0  0  0  0
  9 41  1  6  0  0  0
  9 10  1  0  0  0  0
  9 11  1  0  0  0  0
 10 52  1  0  0  0  0
 10 53  1  0  0  0  0
 10 54  1  0  0  0  0
 11 12  1  0  0  0  0
 11 55  1  0  0  0  0
 11 56  1  0  0  0  0
 12 13  1  0  0  0  0
 12 57  1  0  0  0  0
 12 58  1  0  0  0  0
 13 14  1  0  0  0  0
 13 59  1  0  0  0  0
 13 60  1  0  0  0  0
 14 15  1  0  0  0  0
 14 61  1  0  0  0  0
 14 62  1  0  0  0  0
 15 16  1  0  0  0  0
 15 63  1  0  0  0  0
 15 64  1  0  0  0  0
 16 17  1  0  0  0  0
 16 65  1  0  0  0  0
 16 66  1  0  0  0  0
 17 18  1  0  0  0  0
 17 67  1  0  0  0  0
 17 68  1  0  0  0  0
 18 19  1  0  0  0  0
 18 69  1  0  0  0  0
 18 70  1  0  0  0  0
 19 20  2  0  0  0  0
 19 21  1  0  0  0  0
 21 22  1  0  0  0  0
 21 23  1  0  0  0  0
 22 71  1  0  0  0  0
 22 72  1  0  0  0  0
 22 73  1  0  0  0  0
 23 42  1  1  0  0  0
 23 24  1  0  0  0  0
 23 25  1  0  0  0  0
 24 74  1  0  0  0  0
 24 75  1  0  0  0  0
 24 76  1  0  0  0  0
 25 26  2  0  0  0  0
 25 27  1  0  0  0  0
 27 77  1  0  0  0  0
 28 37  2  0  0  0  0
 28 29  1  0  0  0  0
 29 30  2  0  0  0  0
 29 78  1  0  0  0  0
 30 31  1  0  0  0  0
 30 36  1  0  0  0  0
 31 32  1  0  0  0  0
 31 79  1  0  0  0  0
 31 80  1  0  0  0  0
 32 33  1  0  0  0  0
 32 34  1  0  0  0  0
 32 35  1  0  0  0  0
 33 81  1  0  0  0  0
 33 82  1  0  0  0  0
 33 83  1  0  0  0  0
 34 84  1  0  0  0  0
 34 85  1  0  0  0  0
 34 86  1  0  0  0  0
 35 87  1  0  0  0  0
 35 88  1  0  0  0  0
 35 89  1  0  0  0  0
 36 37  1  0  0  0  0
M  END
>  <s_m_source_file>
BACE_30.smi

>  <i_m_source_file_index>
1

>  <i_lp_mmshare_version>
42013

>  <i_f3d_flags>
0

>  <s_epik_input>
W0NIM11DKFtDSDNdKShbQ0gzXSlbQ0gyXWMob24xKVtjSF1jMVtDQEhdKFtDSDNdKVtOSF1bQ0gyXVtDQEBIXShbT0hdKVtDQEBIXTJbQ0gyXVtDQEhdKFtDSDNdKVtDSDJdW0NIMl1bQ0gyXVtDSDJdW0NIMl1bQ0gyXVtDSDJdW0NIMl1DKD1PKU4oW0NIM10pW0NAQEhdKFtDSDNdKUMoPU8pW05IXTI=

>  <s_epik_cmdline>
J2VwaWtfcHl0aG9uJywgJy1waCcsICc3LjAnLCAnLXRuJywgJzgnLCAnLW1hJywgJzIwMCcsICctaW1hZScsICc8aW5maWxlLm1hZT4nLCAnLW9tYWUnLCAnPG91dGZpbGUubWFlPic=

>  <r_epik_Ionization_Penalty>
0.4323

>  <r_epik_Ionization_Penalty_Charging>
0.0000

>  <r_epik_Ionization_Penalty_Neutral>
0.4323

>  <r_epik_State_Penalty>
0.4338

>  <r_epik_Charging_Adjusted_Penalty>
0.433826

>  <i_epik_Tot_Q>
0

>  <i_epik_Tot_abs_Q>
0

>  <s_lp_Force_Field>
OPLS_2005

>  <r_lp_Energy>
36.7983

>  <b_lp_Chiralities_Consistent>
1

>  <s_lp_Variant>
BACE_30.smi:1-2

>  <chiral flag>
1

>  <version>
0

>  <s_i_glide_gridfile>
second_dock_grid_2

>  <i_i_glide_lignum>
52

>  <i_i_glide_rotatable_bonds>
8

>  <r_i_docking_score>
-3.88368

>  <r_i_glide_ligand_efficiency>
-0.104964

>  <r_i_glide_ligand_efficiency_sa>
-0.349765

>  <r_i_glide_ligand_efficiency_ln>
-0.84228

>  <r_glide_XP_GScore>
-4.31748

>  <r_i_glide_gscore>
-4.31748

>  <r_i_glide_evdw>
-36.8914

>  <r_i_glide_ecoul>
-8.57122

>  <r_i_glide_energy>
-45.4626

>  <r_i_glide_einternal>
7.95553

>  <r_i_glide_emodel>
-53.8913

>  <r_glide_XP_HBond>
-0.7

>  <i_i_glide_confnum>
1

>  <i_i_glide_posenum>
10

>  <r_i_glide_eff_state_penalty>
0.4338

>  <i_glide_XP_PoseRank>
1

$$$$
