BACE_86.smi:1
 OpenBabel09291822493D
Structure written by MMmdl.
 89 91  0  0  1  0  0  0  0  0999 V2000
   21.5317   38.4327   -9.2136 C   0  0  0  0  0  0  0  0  0  0  0  0
   20.5618   39.0088   -8.1662 C   0  0  0  0  0  0  0  0  0  0  0  0
   21.0979   38.7780   -6.7441 C   0  0  0  0  0  0  0  0  0  0  0  0
   19.0990   38.5768   -8.3364 C   0  0  0  0  0  0  0  0  0  0  0  0
   18.1396   39.0070   -7.3955 C   0  0  0  0  0  0  0  0  0  0  0  0
   16.7576   38.8000   -7.6040 C   0  0  0  0  0  0  0  0  0  0  0  0
   15.7447   39.3513   -6.6086 C   0  0  0  0  0  0  0  0  0  0  0  0
   15.2600   40.7185   -6.9204 N   0  3  0  0  0  0  0  0  0  0  0  0
   16.2939   41.7380   -7.2404 C   0  0  0  0  0  0  0  0  0  0  0  0
   16.0162   42.4175   -8.5963 C   0  0  1  0  0  0  0  0  0  0  0  0
   14.9141   43.2854   -8.4399 O   0  0  0  0  0  0  0  0  0  0  0  0
   17.1970   43.2182   -9.2330 C   0  0  2  0  0  0  0  0  0  0  0  0
   17.3130   42.8494  -10.7309 C   0  0  0  0  0  0  0  0  0  0  0  0
   18.3025   43.6773  -11.5838 C   0  0  2  0  0  0  0  0  0  0  0  0
   17.9404   43.5833  -13.0703 C   0  0  0  0  0  0  0  0  0  0  0  0
   19.8001   43.3594  -11.3707 C   0  0  0  0  0  0  0  0  0  0  0  0
   20.2587   41.9306  -11.7451 C   0  0  0  0  0  0  0  0  0  0  0  0
   21.5523   41.4944  -11.0411 C   0  0  0  0  0  0  0  0  0  0  0  0
   22.7422   42.4626  -11.1353 C   0  0  0  0  0  0  0  0  0  0  0  0
   23.9142   41.9743  -10.2620 C   0  0  0  0  0  0  0  0  0  0  0  0
   24.8607   43.0784   -9.7520 C   0  0  0  0  0  0  0  0  0  0  0  0
   24.2615   44.1699   -8.8305 C   0  0  0  0  0  0  0  0  0  0  0  0
   24.0986   43.8470   -7.3218 C   0  0  0  0  0  0  0  0  0  0  0  0
   22.7926   43.1683   -6.8171 C   0  0  1  0  0  0  0  0  0  0  0  0
   22.8501   41.7973   -7.1482 O   0  0  0  0  0  0  0  0  0  0  0  0
   22.7215   43.2615   -5.2696 C   0  0  0  0  0  0  0  0  0  0  0  0
   21.4114   42.7054   -4.6786 C   0  0  0  0  0  0  0  0  0  0  0  0
   20.1859   43.3696   -5.3233 C   0  0  0  0  0  0  0  0  0  0  0  0
   20.2152   43.1642   -6.8476 C   0  0  2  0  0  0  0  0  0  0  0  0
   21.5084   43.7652   -7.4435 C   0  0  0  0  0  0  0  0  0  0  0  0
   18.9639   43.7279   -7.5300 C   0  0  0  0  0  0  0  0  0  0  0  0
   18.4392   44.7659   -7.1275 O   0  0  0  0  0  0  0  0  0  0  0  0
   18.4640   42.9907   -8.5368 N   0  0  0  0  0  0  0  0  0  0  0  0
   16.3275   38.0587   -8.7165 C   0  0  0  0  0  0  0  0  0  0  0  0
   17.2794   37.5470   -9.6118 C   0  0  0  0  0  0  0  0  0  0  0  0
   18.6516   37.8168   -9.4428 C   0  0  0  0  0  0  0  0  0  0  0  0
   15.7116   41.6330   -9.2905 H   0  0  0  0  0  0  0  0  0  0  0  0
   16.9788   44.2860   -9.1791 H   0  0  0  0  0  0  0  0  0  0  0  0
   18.1613   44.7214  -11.3034 H   0  0  0  0  0  0  0  0  0  0  0  0
   20.2161   42.0891   -7.0269 H   0  0  0  0  0  0  0  0  0  0  0  0
   21.2252   38.6813  -10.2284 H   0  0  0  0  0  0  0  0  0  0  0  0
   21.6040   37.3501   -9.1437 H   0  0  0  0  0  0  0  0  0  0  0  0
   22.5358   38.8349   -9.0773 H   0  0  0  0  0  0  0  0  0  0  0  0
   20.5553   40.0867   -8.3126 H   0  0  0  0  0  0  0  0  0  0  0  0
   20.5849   39.3950   -6.0068 H   0  0  0  0  0  0  0  0  0  0  0  0
   22.1568   39.0298   -6.6751 H   0  0  0  0  0  0  0  0  0  0  0  0
   20.9849   37.7420   -6.4407 H   0  0  0  0  0  0  0  0  0  0  0  0
   18.4568   39.5697   -6.5313 H   0  0  0  0  0  0  0  0  0  0  0  0
   14.8905   38.6764   -6.5296 H   0  0  0  0  0  0  0  0  0  0  0  0
   16.2154   39.3594   -5.6407 H   0  0  0  0  0  0  0  0  0  0  0  0
   14.6423   40.6424   -7.7167 H   0  0  0  0  0  0  0  0  0  0  0  0
   16.4599   42.4568   -6.4401 H   0  0  0  0  0  0  0  0  0  0  0  0
   17.2583   41.2647   -7.3010 H   0  0  0  0  0  0  0  0  0  0  0  0
   14.9906   43.6868   -7.5799 H   0  0  0  0  0  0  0  0  0  0  0  0
   17.5087   41.7834  -10.8392 H   0  0  0  0  0  0  0  0  0  0  0  0
   16.3194   42.9894  -11.1572 H   0  0  0  0  0  0  0  0  0  0  0  0
   18.0620   42.5631  -13.4444 H   0  0  0  0  0  0  0  0  0  0  0  0
   18.5825   44.2527  -13.6400 H   0  0  0  0  0  0  0  0  0  0  0  0
   16.9124   43.8984  -13.2508 H   0  0  0  0  0  0  0  0  0  0  0  0
   20.3911   44.0733  -11.9458 H   0  0  0  0  0  0  0  0  0  0  0  0
   20.0733   43.5707  -10.3425 H   0  0  0  0  0  0  0  0  0  0  0  0
   19.4968   41.2017  -11.4741 H   0  0  0  0  0  0  0  0  0  0  0  0
   20.3729   41.8257  -12.8216 H   0  0  0  0  0  0  0  0  0  0  0  0
   21.3187   41.3511   -9.9874 H   0  0  0  0  0  0  0  0  0  0  0  0
   21.8593   40.5224  -11.4268 H   0  0  0  0  0  0  0  0  0  0  0  0
   23.0667   42.5669  -12.1719 H   0  0  0  0  0  0  0  0  0  0  0  0
   22.4259   43.4527  -10.8188 H   0  0  0  0  0  0  0  0  0  0  0  0
   23.5426   41.3981   -9.4224 H   0  0  0  0  0  0  0  0  0  0  0  0
   24.4909   41.2514  -10.8403 H   0  0  0  0  0  0  0  0  0  0  0  0
   25.6999   42.6064   -9.2403 H   0  0  0  0  0  0  0  0  0  0  0  0
   25.2920   43.5655  -10.6270 H   0  0  0  0  0  0  0  0  0  0  0  0
   24.9800   44.9898   -8.8702 H   0  0  0  0  0  0  0  0  0  0  0  0
   23.3583   44.6091   -9.2473 H   0  0  0  0  0  0  0  0  0  0  0  0
   24.9702   43.2950   -6.9699 H   0  0  0  0  0  0  0  0  0  0  0  0
   24.1637   44.8070   -6.8102 H   0  0  0  0  0  0  0  0  0  0  0  0
   23.6781   41.4506   -6.8579 H   0  0  0  0  0  0  0  0  0  0  0  0
   23.5739   42.7506   -4.8180 H   0  0  0  0  0  0  0  0  0  0  0  0
   22.8127   44.3062   -4.9684 H   0  0  0  0  0  0  0  0  0  0  0  0
   21.3650   41.6274   -4.8297 H   0  0  0  0  0  0  0  0  0  0  0  0
   21.3960   42.8646   -3.6005 H   0  0  0  0  0  0  0  0  0  0  0  0
   19.2632   42.9585   -4.9076 H   0  0  0  0  0  0  0  0  0  0  0  0
   20.1849   44.4335   -5.0824 H   0  0  0  0  0  0  0  0  0  0  0  0
   21.5052   44.8461   -7.3055 H   0  0  0  0  0  0  0  0  0  0  0  0
   21.5124   43.5940   -8.5185 H   0  0  0  0  0  0  0  0  0  0  0  0
   18.9828   42.1682   -8.8058 H   0  0  0  0  0  0  0  0  0  0  0  0
   15.2774   37.8572   -8.8703 H   0  0  0  0  0  0  0  0  0  0  0  0
   16.9426   36.9500  -10.4399 H   0  0  0  0  0  0  0  0  0  0  0  0
   19.3392   37.4387  -10.1829 H   0  0  0  0  0  0  0  0  0  0  0  0
   14.6911   41.0516   -6.1394 H   0  0  0  0  0  0  0  0  0  0  0  0
  1  2  1  0  0  0  0
  1 41  1  0  0  0  0
  1 42  1  0  0  0  0
  1 43  1  0  0  0  0
  2  3  1  0  0  0  0
  2  4  1  0  0  0  0
  2 44  1  0  0  0  0
  3 45  1  0  0  0  0
  3 46  1  0  0  0  0
  3 47  1  0  0  0  0
  4 36  1  0  0  0  0
  4  5  2  0  0  0  0
  5  6  1  0  0  0  0
  5 48  1  0  0  0  0
  6  7  1  0  0  0  0
  6 34  2  0  0  0  0
  7  8  1  0  0  0  0
  7 49  1  0  0  0  0
  7 50  1  0  0  0  0
  8  9  1  0  0  0  0
  8 51  1  0  0  0  0
  8 89  1  0  0  0  0
  9 10  1  0  0  0  0
  9 52  1  0  0  0  0
  9 53  1  0  0  0  0
 10 37  1  6  0  0  0
 10 11  1  0  0  0  0
 10 12  1  0  0  0  0
 11 54  1  0  0  0  0
 12 38  1  1  0  0  0
 12 33  1  0  0  0  0
 12 13  1  0  0  0  0
 13 14  1  0  0  0  0
 13 55  1  0  0  0  0
 13 56  1  0  0  0  0
 14 39  1  1  0  0  0
 14 15  1  0  0  0  0
 14 16  1  0  0  0  0
 15 57  1  0  0  0  0
 15 58  1  0  0  0  0
 15 59  1  0  0  0  0
 16 17  1  0  0  0  0
 16 60  1  0  0  0  0
 16 61  1  0  0  0  0
 17 18  1  0  0  0  0
 17 62  1  0  0  0  0
 17 63  1  0  0  0  0
 18 19  1  0  0  0  0
 18 64  1  0  0  0  0
 18 65  1  0  0  0  0
 19 20  1  0  0  0  0
 19 66  1  0  0  0  0
 19 67  1  0  0  0  0
 20 21  1  0  0  0  0
 20 68  1  0  0  0  0
 20 69  1  0  0  0  0
 21 22  1  0  0  0  0
 21 70  1  0  0  0  0
 21 71  1  0  0  0  0
 22 23  1  0  0  0  0
 22 72  1  0  0  0  0
 22 73  1  0  0  0  0
 23 24  1  0  0  0  0
 23 74  1  0  0  0  0
 23 75  1  0  0  0  0
 24 30  1  0  0  0  0
 24 25  1  6  0  0  0
 24 26  1  0  0  0  0
 25 76  1  0  0  0  0
 26 27  1  0  0  0  0
 26 77  1  0  0  0  0
 26 78  1  0  0  0  0
 27 28  1  0  0  0  0
 27 79  1  0  0  0  0
 27 80  1  0  0  0  0
 28 29  1  0  0  0  0
 28 81  1  0  0  0  0
 28 82  1  0  0  0  0
 29 40  1  6  0  0  0
 29 30  1  0  0  0  0
 29 31  1  0  0  0  0
 30 83  1  0  0  0  0
 30 84  1  0  0  0  0
 31 32  2  0  0  0  0
 31 33  1  0  0  0  0
 33 85  1  0  0  0  0
 34 35  1  0  0  0  0
 34 86  1  0  0  0  0
 35 36  2  0  0  0  0
 35 87  1  0  0  0  0
 36 88  1  0  0  0  0
M  CHG  1   8   1
M  END
>  <s_m_source_file>
BACE_86.smi

>  <i_m_source_file_index>
1

>  <i_lp_mmshare_version>
42013

>  <i_f3d_flags>
0

>  <s_epik_input>
W0NIM11bQ0hdKFtDSDNdKWMxW2NIXWMoW2NIXVtjSF1bY0hdMSlbQ0gyXVtOSF1bQ0gyXVtDQEBIXShbT0hdKVtDQEBIXShbTkhdQyg9TylbQ0BASF0oW0NIMl0yKVtDSDJdW0NIMl1bQ0gyXTMpW0NIMl1bQ0BIXShbQ0gzXSlbQ0gyXVtDSDJdW0NIMl1bQ0gyXVtDSDJdW0NIMl1bQ0gyXVtDSDJdW0NAXTIzW09IXQ==

>  <s_epik_cmdline>
J2VwaWtfcHl0aG9uJywgJy1waCcsICc3LjAnLCAnLXRuJywgJzgnLCAnLW1hJywgJzIwMCcsICctaW1hZScsICc8aW5maWxlLm1hZT4nLCAnLW9tYWUnLCAnPG91dGZpbGUubWFlPic=

>  <r_epik_Ionization_Penalty>
0.0169

>  <r_epik_Ionization_Penalty_Charging>
0.0169

>  <r_epik_Ionization_Penalty_Neutral>
0.0000

>  <r_epik_State_Penalty>
0.0134

>  <r_epik_Charging_Adjusted_Penalty>
0.0303506

>  <i_epik_Tot_Q>
1

>  <i_epik_Tot_abs_Q>
1

>  <s_lp_Force_Field>
OPLS_2005

>  <r_lp_Energy>
37.6376

>  <b_lp_Chiralities_Consistent>
1

>  <s_lp_Variant>
BACE_86.smi:1-1

>  <chiral flag>
1

>  <version>
0

>  <s_i_glide_gridfile>
second_dock_grid_2

>  <i_i_glide_lignum>
174

>  <i_i_glide_rotatable_bonds>
8

>  <r_i_docking_score>
-5.47162

>  <r_i_glide_ligand_efficiency>
-0.151989

>  <r_i_glide_ligand_efficiency_sa>
-0.501858

>  <r_i_glide_ligand_efficiency_ln>
-1.19376

>  <r_glide_XP_GScore>
-5.48502

>  <r_i_glide_gscore>
-5.48502

>  <r_i_glide_evdw>
-35.4636

>  <r_i_glide_ecoul>
-13.3264

>  <r_i_glide_energy>
-48.7901

>  <r_i_glide_einternal>
1.96922

>  <r_i_glide_emodel>
-55.2059

>  <r_glide_XP_HBond>
-1.23057

>  <i_i_glide_confnum>
1

>  <i_i_glide_posenum>
5

>  <r_i_glide_eff_state_penalty>
0.0134

>  <i_glide_XP_PoseRank>
1

$$$$
