BACE_122.smi:1
 OpenBabel09291822493D
Structure written by MMmdl.
 83 86  0  0  1  0  0  0  0  0999 V2000
   31.6857   44.6859  -10.7412 C   0  0  0  0  0  0  0  0  0  0  0  0
   30.5729   44.3459   -9.7348 C   0  0  0  0  0  0  0  0  0  0  0  0
   31.1555   43.8422   -8.4074 C   0  0  0  0  0  0  0  0  0  0  0  0
   29.5290   43.3935  -10.3189 C   0  0  0  0  0  0  0  0  0  0  0  0
   28.1541   43.7096  -10.2224 C   0  0  0  0  0  0  0  0  0  0  0  0
   27.1623   42.9077  -10.8446 C   0  0  0  0  0  0  0  0  0  0  0  0
   27.5853   41.7515  -11.5421 C   0  0  0  0  0  0  0  0  0  0  0  0
   28.9518   41.4240  -11.6360 C   0  0  0  0  0  0  0  0  0  0  0  0
   29.9207   42.2319  -11.0165 C   0  0  0  0  0  0  0  0  0  0  0  0
   25.6882   43.3598  -10.9139 C   0  0  0  0  0  0  0  0  0  0  0  0
   25.3230   44.4148   -9.8402 C   0  0  0  0  0  0  0  0  0  0  0  0
   25.4899   44.0351  -12.2827 C   0  0  0  0  0  0  0  0  0  0  0  0
   24.7134   42.2317  -10.8415 N   0  3  0  0  0  0  0  0  0  0  0  0
   24.6722   41.3763   -9.6347 C   0  0  0  0  0  0  0  0  0  0  0  0
   23.2926   40.6790   -9.4964 C   0  0  1  0  0  0  0  0  0  0  0  0
   23.3561   39.7500   -8.4394 O   0  0  0  0  0  0  0  0  0  0  0  0
   22.0793   41.6088   -9.2374 C   0  0  2  0  0  0  0  0  0  0  0  0
   22.3323   42.6790   -8.1447 C   0  0  0  0  0  0  0  0  0  0  0  0
   21.1159   43.5103   -7.7636 C   0  0  0  0  0  0  0  0  0  0  0  0
   20.3308   44.1399   -8.7536 C   0  0  0  0  0  0  0  0  0  0  0  0
   19.1830   44.8849   -8.4132 C   0  0  0  0  0  0  0  0  0  0  0  0
   18.8532   45.0377   -7.0434 C   0  0  0  0  0  0  0  0  0  0  0  0
   19.6543   44.4379   -6.0507 C   0  0  0  0  0  0  0  0  0  0  0  0
   20.7742   43.6679   -6.4073 C   0  0  0  0  0  0  0  0  0  0  0  0
   18.4725   45.4296   -9.4640 O   0  0  0  0  0  0  0  0  0  0  0  0
   17.1063   45.8125   -9.3070 C   0  0  0  0  0  0  0  0  0  0  0  0
   16.1512   44.6462   -9.6308 C   0  0  0  0  0  0  0  0  0  0  0  0
   15.9903   43.6425   -8.4826 C   0  0  0  0  0  0  0  0  0  0  0  0
   15.1339   42.4130   -8.8495 C   0  0  0  0  0  0  0  0  0  0  0  0
   15.2606   41.3255   -7.8826 N   0  0  0  0  0  0  0  0  0  0  0  0
   16.3944   40.5025   -7.8881 C   0  0  0  0  0  0  0  0  0  0  0  0
   16.4792   39.3494   -7.0834 C   0  0  0  0  0  0  0  0  0  0  0  0
   17.6673   38.5877   -7.0961 C   0  0  0  0  0  0  0  0  0  0  0  0
   18.7556   39.0001   -7.8960 C   0  0  0  0  0  0  0  0  0  0  0  0
   18.6200   40.1653   -8.6846 C   0  0  0  0  0  0  0  0  0  0  0  0
   17.4500   40.8325   -8.6677 N   0  3  0  0  0  0  0  0  0  0  0  0
   19.7322   40.7521   -9.4999 C   0  0  0  0  0  0  0  0  0  0  0  0
   19.5148   41.2797  -10.5913 O   0  0  0  0  0  0  0  0  0  0  0  0
   20.9117   40.8023   -8.8688 N   0  0  0  0  0  0  0  0  0  0  0  0
   23.0967   40.1027  -10.4025 H   0  0  0  0  0  0  0  0  0  0  0  0
   21.8695   42.1348  -10.1695 H   0  0  0  0  0  0  0  0  0  0  0  0
   31.2691   45.0781  -11.6689 H   0  0  0  0  0  0  0  0  0  0  0  0
   32.2965   43.8179  -10.9904 H   0  0  0  0  0  0  0  0  0  0  0  0
   32.3553   45.4462  -10.3373 H   0  0  0  0  0  0  0  0  0  0  0  0
   30.0647   45.2869   -9.5192 H   0  0  0  0  0  0  0  0  0  0  0  0
   30.3809   43.7524   -7.6485 H   0  0  0  0  0  0  0  0  0  0  0  0
   31.8980   44.5396   -8.0189 H   0  0  0  0  0  0  0  0  0  0  0  0
   31.6465   42.8760   -8.5142 H   0  0  0  0  0  0  0  0  0  0  0  0
   27.8883   44.6189   -9.7069 H   0  0  0  0  0  0  0  0  0  0  0  0
   26.8703   41.1165  -12.0398 H   0  0  0  0  0  0  0  0  0  0  0  0
   29.2575   40.5448  -12.1846 H   0  0  0  0  0  0  0  0  0  0  0  0
   30.9645   41.9686  -11.1076 H   0  0  0  0  0  0  0  0  0  0  0  0
   25.8658   45.3489   -9.9865 H   0  0  0  0  0  0  0  0  0  0  0  0
   25.5346   44.0733   -8.8261 H   0  0  0  0  0  0  0  0  0  0  0  0
   24.2674   44.6794   -9.8916 H   0  0  0  0  0  0  0  0  0  0  0  0
   26.1384   44.9061  -12.3907 H   0  0  0  0  0  0  0  0  0  0  0  0
   24.4625   44.3714  -12.4281 H   0  0  0  0  0  0  0  0  0  0  0  0
   25.7352   43.3557  -13.0967 H   0  0  0  0  0  0  0  0  0  0  0  0
   23.8012   42.6493  -10.9402 H   0  0  0  0  0  0  0  0  0  0  0  0
   25.4659   40.6315   -9.7194 H   0  0  0  0  0  0  0  0  0  0  0  0
   24.8921   41.9438   -8.7330 H   0  0  0  0  0  0  0  0  0  0  0  0
   23.9167   39.0351   -8.7298 H   0  0  0  0  0  0  0  0  0  0  0  0
   22.7172   42.1894   -7.2487 H   0  0  0  0  0  0  0  0  0  0  0  0
   23.1053   43.3762   -8.4555 H   0  0  0  0  0  0  0  0  0  0  0  0
   20.5870   44.0302   -9.7970 H   0  0  0  0  0  0  0  0  0  0  0  0
   17.9988   45.6119   -6.7243 H   0  0  0  0  0  0  0  0  0  0  0  0
   19.4088   44.5502   -5.0074 H   0  0  0  0  0  0  0  0  0  0  0  0
   21.3677   43.2042   -5.6326 H   0  0  0  0  0  0  0  0  0  0  0  0
   16.8738   46.2798   -8.3520 H   0  0  0  0  0  0  0  0  0  0  0  0
   16.9372   46.5960  -10.0459 H   0  0  0  0  0  0  0  0  0  0  0  0
   15.1691   45.0505   -9.8783 H   0  0  0  0  0  0  0  0  0  0  0  0
   16.5030   44.1386  -10.5298 H   0  0  0  0  0  0  0  0  0  0  0  0
   16.9756   43.3249   -8.1514 H   0  0  0  0  0  0  0  0  0  0  0  0
   15.5402   44.1576   -7.6398 H   0  0  0  0  0  0  0  0  0  0  0  0
   14.0847   42.6995   -8.9172 H   0  0  0  0  0  0  0  0  0  0  0  0
   15.4066   42.0367   -9.8357 H   0  0  0  0  0  0  0  0  0  0  0  0
   14.4903   41.1149   -7.2599 H   0  0  0  0  0  0  0  0  0  0  0  0
   15.6595   39.0447   -6.4434 H   0  0  0  0  0  0  0  0  0  0  0  0
   17.7370   37.7080   -6.4743 H   0  0  0  0  0  0  0  0  0  0  0  0
   19.6765   38.4336   -7.8892 H   0  0  0  0  0  0  0  0  0  0  0  0
   20.9804   40.3336   -7.9771 H   0  0  0  0  0  0  0  0  0  0  0  0
   24.8443   41.6317  -11.6491 H   0  0  0  0  0  0  0  0  0  0  0  0
   17.3927   41.6772   -9.2365 H   0  0  0  0  0  0  0  0  0  0  0  0
  1  2  1  0  0  0  0
  1 42  1  0  0  0  0
  1 43  1  0  0  0  0
  1 44  1  0  0  0  0
  2  3  1  0  0  0  0
  2  4  1  0  0  0  0
  2 45  1  0  0  0  0
  3 46  1  0  0  0  0
  3 47  1  0  0  0  0
  3 48  1  0  0  0  0
  4  9  1  0  0  0  0
  4  5  2  0  0  0  0
  5  6  1  0  0  0  0
  5 49  1  0  0  0  0
  6  7  2  0  0  0  0
  6 10  1  0  0  0  0
  7  8  1  0  0  0  0
  7 50  1  0  0  0  0
  8  9  2  0  0  0  0
  8 51  1  0  0  0  0
  9 52  1  0  0  0  0
 10 11  1  0  0  0  0
 10 12  1  0  0  0  0
 10 13  1  0  0  0  0
 11 53  1  0  0  0  0
 11 54  1  0  0  0  0
 11 55  1  0  0  0  0
 12 56  1  0  0  0  0
 12 57  1  0  0  0  0
 12 58  1  0  0  0  0
 13 14  1  0  0  0  0
 13 59  1  0  0  0  0
 13 82  1  0  0  0  0
 14 15  1  0  0  0  0
 14 60  1  0  0  0  0
 14 61  1  0  0  0  0
 15 40  1  6  0  0  0
 15 16  1  0  0  0  0
 15 17  1  0  0  0  0
 16 62  1  0  0  0  0
 17 41  1  6  0  0  0
 17 39  1  0  0  0  0
 17 18  1  0  0  0  0
 18 19  1  0  0  0  0
 18 63  1  0  0  0  0
 18 64  1  0  0  0  0
 19 24  1  0  0  0  0
 19 20  2  0  0  0  0
 20 21  1  0  0  0  0
 20 65  1  0  0  0  0
 21 22  2  0  0  0  0
 21 25  1  0  0  0  0
 22 23  1  0  0  0  0
 22 66  1  0  0  0  0
 23 24  2  0  0  0  0
 23 67  1  0  0  0  0
 24 68  1  0  0  0  0
 25 26  1  0  0  0  0
 26 27  1  0  0  0  0
 26 69  1  0  0  0  0
 26 70  1  0  0  0  0
 27 28  1  0  0  0  0
 27 71  1  0  0  0  0
 27 72  1  0  0  0  0
 28 29  1  0  0  0  0
 28 73  1  0  0  0  0
 28 74  1  0  0  0  0
 29 30  1  0  0  0  0
 29 75  1  0  0  0  0
 29 76  1  0  0  0  0
 30 31  1  0  0  0  0
 30 77  1  0  0  0  0
 31 36  1  0  0  0  0
 31 32  2  0  0  0  0
 32 33  1  0  0  0  0
 32 78  1  0  0  0  0
 33 34  2  0  0  0  0
 33 79  1  0  0  0  0
 34 35  1  0  0  0  0
 34 80  1  0  0  0  0
 35 36  2  0  0  0  0
 35 37  1  0  0  0  0
 36 83  1  0  0  0  0
 37 38  2  0  0  0  0
 37 39  1  0  0  0  0
 39 81  1  0  0  0  0
M  CHG  2  13   1  36   1
M  END
>  <s_m_source_file>
BACE_122.smi

>  <i_m_source_file_index>
1

>  <i_lp_mmshare_version>
42013

>  <i_f3d_flags>
0

>  <s_epik_input>
W0NIM11bQ0hdKFtDSDNdKWMxW2NIXWMoW2NIXVtjSF1bY0hdMSlDKFtDSDNdKShbQ0gzXSlbTkhdW0NIMl1bQ0BASF0oW09IXSlbQ0BIXShbQ0gyXTIpW05IXUMoPU8pYyhuMylbY0hdW2NIXVtjSF1jM1tOSF1bQ0gyXVtDSDJdW0NIMl1bQ0gyXU9jKFtjSF1jMjQpW2NIXVtjSF1bY0hdNA==

>  <s_epik_cmdline>
J2VwaWtfcHl0aG9uJywgJy1waCcsICc3LjAnLCAnLXRuJywgJzgnLCAnLW1hJywgJzIwMCcsICctaW1hZScsICc8aW5maWxlLm1hZT4nLCAnLW9tYWUnLCAnPG91dGZpbGUubWFlPic=

>  <r_lp_tautomer_probability>
0.999994

>  <r_epik_Ionization_Penalty>
2.3266

>  <r_epik_Ionization_Penalty_Charging>
2.3262

>  <r_epik_Ionization_Penalty_Neutral>
0.0004

>  <r_epik_State_Penalty>
2.4711

>  <r_epik_Charging_Adjusted_Penalty>
4.79729

>  <i_epik_Tot_Q>
2

>  <i_epik_Tot_abs_Q>
2

>  <s_lp_Force_Field>
OPLS_2005

>  <r_lp_Energy>
40.0518

>  <b_lp_Chiralities_Consistent>
1

>  <s_lp_Variant>
BACE_122.smi:1-3

>  <chiral flag>
1

>  <version>
0

>  <s_i_glide_gridfile>
second_dock_grid_2

>  <i_i_glide_lignum>
251

>  <i_i_glide_rotatable_bonds>
7

>  <r_i_docking_score>
-0.803295

>  <r_i_glide_ligand_efficiency>
-0.0205973

>  <r_i_glide_ligand_efficiency_sa>
-0.0698498

>  <r_i_glide_ligand_efficiency_ln>
-0.172249

>  <r_glide_XP_GScore>
-3.27439

>  <r_i_glide_gscore>
-3.27439

>  <r_i_glide_evdw>
-33.7646

>  <r_i_glide_ecoul>
-13.7271

>  <r_i_glide_energy>
-47.4918

>  <r_i_glide_einternal>
4.85827

>  <r_i_glide_emodel>
-61.6479

>  <r_glide_XP_HBond>
-0.7

>  <i_i_glide_confnum>
1

>  <i_i_glide_posenum>
6

>  <r_i_glide_eff_state_penalty>
2.4711

>  <i_glide_XP_PoseRank>
1

$$$$
