BACE_80.smi:1
 OpenBabel09291822493D
Structure written by MMmdl.
 86 89  0  0  1  0  0  0  0  0999 V2000
   20.6374   41.6861   -2.4665 C   0  0  0  0  0  0  0  0  0  0  0  0
   21.8968   41.4717   -3.3215 C   0  0  0  0  0  0  0  0  0  0  0  0
   22.8021   42.7096   -3.3149 C   0  0  0  0  0  0  0  0  0  0  0  0
   21.5315   41.0457   -4.7392 C   0  0  0  0  0  0  0  0  0  0  0  0
   20.8186   41.9190   -5.5899 C   0  0  0  0  0  0  0  0  0  0  0  0
   20.3815   41.4894   -6.8621 C   0  0  0  0  0  0  0  0  0  0  0  0
   19.5649   42.4206   -7.7376 C   0  0  0  0  0  0  0  0  0  0  0  0
   18.1829   42.5500   -7.2401 N   0  3  0  0  0  0  0  0  0  0  0  0
   17.6449   43.9270   -7.1755 C   0  0  0  0  0  0  0  0  0  0  0  0
   16.9163   44.4161   -8.4410 C   0  0  1  0  0  0  0  0  0  0  0  0
   15.9606   45.3818   -8.0402 O   0  0  0  0  0  0  0  0  0  0  0  0
   17.8054   45.0009   -9.5718 C   0  0  2  0  0  0  0  0  0  0  0  0
   18.5008   46.3418   -9.2067 C   0  0  0  0  0  0  0  0  0  0  0  0
   19.4441   46.9868  -10.2635 C   0  0  2  0  0  0  0  0  0  0  0  0
   18.6879   47.7142  -11.3899 C   0  0  0  0  0  0  0  0  0  0  0  0
   20.5090   46.0313  -10.8424 C   0  0  0  0  0  0  0  0  0  0  0  0
   21.5297   45.5351   -9.8008 C   0  0  0  0  0  0  0  0  0  0  0  0
   22.5055   44.4675  -10.3245 C   0  0  0  0  0  0  0  0  0  0  0  0
   21.7913   43.1904  -10.7942 C   0  0  0  0  0  0  0  0  0  0  0  0
   22.6932   41.9484  -10.8575 C   0  0  0  0  0  0  0  0  0  0  0  0
   21.9214   40.6194  -11.0253 C   0  0  0  0  0  0  0  0  0  0  0  0
   21.2851   40.3600  -12.4118 C   0  0  0  0  0  0  0  0  0  0  0  0
   20.3377   41.3482  -12.8000 O   0  0  0  0  0  0  0  0  0  0  0  0
   19.1567   41.4628  -12.1026 C   0  0  0  0  0  0  0  0  0  0  0  0
   18.4591   42.6805  -12.2349 C   0  0  0  0  0  0  0  0  0  0  0  0
   17.2444   42.8909  -11.5571 C   0  0  0  0  0  0  0  0  0  0  0  0
   16.6921   41.8586  -10.7783 C   0  0  0  0  0  0  0  0  0  0  0  0
   17.3931   40.6498  -10.6048 C   0  0  0  0  0  0  0  0  0  0  0  0
   18.6206   40.4503  -11.2704 C   0  0  0  0  0  0  0  0  0  0  0  0
   16.8863   39.6455   -9.6819 C   0  0  0  0  0  0  0  0  0  0  0  0
   17.3220   38.4029   -9.4873 N   0  0  0  0  0  0  0  0  0  0  0  0
   16.5524   37.9205   -8.4400 C   0  0  0  0  0  0  0  0  0  0  0  0
   15.6921   38.9110   -8.0428 C   0  0  0  0  0  0  0  0  0  0  0  0
   15.8958   40.0131   -8.8226 O   0  0  0  0  0  0  0  0  0  0  0  0
   16.5686   44.2225  -11.6216 C   0  0  0  0  0  0  0  0  0  0  0  0
   15.6807   44.4287  -12.4388 O   0  0  0  0  0  0  0  0  0  0  0  0
   16.9679   45.1662  -10.7578 N   0  0  0  0  0  0  0  0  0  0  0  0
   20.6958   40.1874   -7.3002 C   0  0  0  0  0  0  0  0  0  0  0  0
   21.4533   39.3330   -6.4787 C   0  0  0  0  0  0  0  0  0  0  0  0
   21.8680   39.7555   -5.2008 C   0  0  0  0  0  0  0  0  0  0  0  0
   16.3256   43.5837   -8.8123 H   0  0  0  0  0  0  0  0  0  0  0  0
   18.5881   44.2721   -9.7848 H   0  0  0  0  0  0  0  0  0  0  0  0
   19.9855   47.7746   -9.7396 H   0  0  0  0  0  0  0  0  0  0  0  0
   20.0492   40.7695   -2.4101 H   0  0  0  0  0  0  0  0  0  0  0  0
   19.9976   42.4693   -2.8735 H   0  0  0  0  0  0  0  0  0  0  0  0
   20.8954   41.9739   -1.4473 H   0  0  0  0  0  0  0  0  0  0  0  0
   22.4597   40.6627   -2.8510 H   0  0  0  0  0  0  0  0  0  0  0  0
   23.7030   42.5379   -3.9041 H   0  0  0  0  0  0  0  0  0  0  0  0
   23.1130   42.9533   -2.2993 H   0  0  0  0  0  0  0  0  0  0  0  0
   22.2990   43.5836   -3.7254 H   0  0  0  0  0  0  0  0  0  0  0  0
   20.5610   42.9087   -5.2434 H   0  0  0  0  0  0  0  0  0  0  0  0
   20.0674   43.3868   -7.7710 H   0  0  0  0  0  0  0  0  0  0  0  0
   19.5186   42.0367   -8.7558 H   0  0  0  0  0  0  0  0  0  0  0  0
   17.5670   41.9608   -7.7811 H   0  0  0  0  0  0  0  0  0  0  0  0
   16.8610   43.8470   -6.4400 H   0  0  0  0  0  0  0  0  0  0  0  0
   18.3697   44.6371   -6.7769 H   0  0  0  0  0  0  0  0  0  0  0  0
   15.3884   44.9750   -7.4047 H   0  0  0  0  0  0  0  0  0  0  0  0
   17.7455   47.0783   -8.9288 H   0  0  0  0  0  0  0  0  0  0  0  0
   19.0804   46.1869   -8.2992 H   0  0  0  0  0  0  0  0  0  0  0  0
   18.2310   47.0213  -12.0952 H   0  0  0  0  0  0  0  0  0  0  0  0
   19.3688   48.3448  -11.9631 H   0  0  0  0  0  0  0  0  0  0  0  0
   17.9053   48.3609  -10.9937 H   0  0  0  0  0  0  0  0  0  0  0  0
   20.0103   45.1950  -11.3272 H   0  0  0  0  0  0  0  0  0  0  0  0
   21.0589   46.5360  -11.6370 H   0  0  0  0  0  0  0  0  0  0  0  0
   22.1066   46.3838   -9.4332 H   0  0  0  0  0  0  0  0  0  0  0  0
   21.0122   45.1350   -8.9318 H   0  0  0  0  0  0  0  0  0  0  0  0
   23.1163   44.8702  -11.1314 H   0  0  0  0  0  0  0  0  0  0  0  0
   23.1982   44.2207   -9.5192 H   0  0  0  0  0  0  0  0  0  0  0  0
   20.9610   42.9839  -10.1253 H   0  0  0  0  0  0  0  0  0  0  0  0
   21.3560   43.3779  -11.7728 H   0  0  0  0  0  0  0  0  0  0  0  0
   23.4380   42.0815  -11.6399 H   0  0  0  0  0  0  0  0  0  0  0  0
   23.2572   41.8826   -9.9258 H   0  0  0  0  0  0  0  0  0  0  0  0
   22.6119   39.7997  -10.8213 H   0  0  0  0  0  0  0  0  0  0  0  0
   21.1657   40.5498  -10.2459 H   0  0  0  0  0  0  0  0  0  0  0  0
   22.0595   40.3528  -13.1755 H   0  0  0  0  0  0  0  0  0  0  0  0
   20.8452   39.3639  -12.4555 H   0  0  0  0  0  0  0  0  0  0  0  0
   18.8751   43.4706  -12.8426 H   0  0  0  0  0  0  0  0  0  0  0  0
   15.7459   42.0122  -10.2780 H   0  0  0  0  0  0  0  0  0  0  0  0
   19.1355   39.5122  -11.1300 H   0  0  0  0  0  0  0  0  0  0  0  0
   16.6878   36.9257   -8.0404 H   0  0  0  0  0  0  0  0  0  0  0  0
   14.9367   38.9788   -7.2708 H   0  0  0  0  0  0  0  0  0  0  0  0
   16.5152   46.0641  -10.8419 H   0  0  0  0  0  0  0  0  0  0  0  0
   20.3574   39.8328   -8.2623 H   0  0  0  0  0  0  0  0  0  0  0  0
   21.6983   38.3380   -6.8221 H   0  0  0  0  0  0  0  0  0  0  0  0
   22.4224   39.0816   -4.5651 H   0  0  0  0  0  0  0  0  0  0  0  0
   18.1655   42.1652   -6.2926 H   0  0  0  0  0  0  0  0  0  0  0  0
  1  2  1  0  0  0  0
  1 44  1  0  0  0  0
  1 45  1  0  0  0  0
  1 46  1  0  0  0  0
  2  3  1  0  0  0  0
  2  4  1  0  0  0  0
  2 47  1  0  0  0  0
  3 48  1  0  0  0  0
  3 49  1  0  0  0  0
  3 50  1  0  0  0  0
  4 40  1  0  0  0  0
  4  5  2  0  0  0  0
  5  6  1  0  0  0  0
  5 51  1  0  0  0  0
  6  7  1  0  0  0  0
  6 38  2  0  0  0  0
  7  8  1  0  0  0  0
  7 52  1  0  0  0  0
  7 53  1  0  0  0  0
  8  9  1  0  0  0  0
  8 54  1  0  0  0  0
  8 86  1  0  0  0  0
  9 10  1  0  0  0  0
  9 55  1  0  0  0  0
  9 56  1  0  0  0  0
 10 41  1  6  0  0  0
 10 11  1  0  0  0  0
 10 12  1  0  0  0  0
 11 57  1  0  0  0  0
 12 42  1  6  0  0  0
 12 37  1  0  0  0  0
 12 13  1  0  0  0  0
 13 14  1  0  0  0  0
 13 58  1  0  0  0  0
 13 59  1  0  0  0  0
 14 43  1  1  0  0  0
 14 15  1  0  0  0  0
 14 16  1  0  0  0  0
 15 60  1  0  0  0  0
 15 61  1  0  0  0  0
 15 62  1  0  0  0  0
 16 17  1  0  0  0  0
 16 63  1  0  0  0  0
 16 64  1  0  0  0  0
 17 18  1  0  0  0  0
 17 65  1  0  0  0  0
 17 66  1  0  0  0  0
 18 19  1  0  0  0  0
 18 67  1  0  0  0  0
 18 68  1  0  0  0  0
 19 20  1  0  0  0  0
 19 69  1  0  0  0  0
 19 70  1  0  0  0  0
 20 21  1  0  0  0  0
 20 71  1  0  0  0  0
 20 72  1  0  0  0  0
 21 22  1  0  0  0  0
 21 73  1  0  0  0  0
 21 74  1  0  0  0  0
 22 23  1  0  0  0  0
 22 75  1  0  0  0  0
 22 76  1  0  0  0  0
 23 24  1  0  0  0  0
 24 29  1  0  0  0  0
 24 25  2  0  0  0  0
 25 26  1  0  0  0  0
 25 77  1  0  0  0  0
 26 27  2  0  0  0  0
 26 35  1  0  0  0  0
 27 28  1  0  0  0  0
 27 78  1  0  0  0  0
 28 29  2  0  0  0  0
 28 30  1  0  0  0  0
 29 79  1  0  0  0  0
 30 34  1  0  0  0  0
 30 31  2  0  0  0  0
 31 32  1  0  0  0  0
 32 33  2  0  0  0  0
 32 80  1  0  0  0  0
 33 34  1  0  0  0  0
 33 81  1  0  0  0  0
 35 36  2  0  0  0  0
 35 37  1  0  0  0  0
 37 82  1  0  0  0  0
 38 39  1  0  0  0  0
 38 83  1  0  0  0  0
 39 40  2  0  0  0  0
 39 84  1  0  0  0  0
 40 85  1  0  0  0  0
M  CHG  1   8   1
M  END
>  <s_m_source_file>
BACE_80.smi

>  <i_m_source_file_index>
1

>  <i_lp_mmshare_version>
42013

>  <i_f3d_flags>
0

>  <s_epik_input>
bzFbY0hdW2NIXW5jMS1jKFtjSF0yKVtjSF1jKFtjSF1jMjMpQyg9TylbTkhdW0NASF0oW0NASF0oW09IXSlbQ0gyXVtOSF1bQ0gyXWMoW2NIXVtjSF1bY0hdNClbY0hdYzRbQ0hdKFtDSDNdKVtDSDNdKVtDSDJdW0NASF0oW0NIM10pW0NIMl1bQ0gyXVtDSDJdW0NIMl1bQ0gyXVtDSDJdW0NIMl1PMw==

>  <s_epik_cmdline>
J2VwaWtfcHl0aG9uJywgJy1waCcsICc3LjAnLCAnLXRuJywgJzgnLCAnLW1hJywgJzIwMCcsICctaW1hZScsICc8aW5maWxlLm1hZT4nLCAnLW9tYWUnLCAnPG91dGZpbGUubWFlPic=

>  <r_lp_tautomer_probability>
1

>  <r_epik_Ionization_Penalty>
0.0165

>  <r_epik_Ionization_Penalty_Charging>
0.0165

>  <r_epik_Ionization_Penalty_Neutral>
0.0000

>  <r_epik_State_Penalty>
0.0130

>  <r_epik_Charging_Adjusted_Penalty>
0.0295552

>  <i_epik_Tot_Q>
1

>  <i_epik_Tot_abs_Q>
1

>  <s_lp_Force_Field>
OPLS_2005

>  <r_lp_Energy>
31.2081

>  <b_lp_Chiralities_Consistent>
1

>  <s_lp_Variant>
BACE_80.smi:1-1

>  <chiral flag>
1

>  <version>
0

>  <s_i_glide_gridfile>
second_dock_grid_2

>  <i_i_glide_lignum>
160

>  <i_i_glide_rotatable_bonds>
8

>  <r_i_docking_score>
-6.32485

>  <r_i_glide_ligand_efficiency>
-0.158121

>  <r_i_glide_ligand_efficiency_sa>
-0.540767

>  <r_i_glide_ligand_efficiency_ln>
-1.3489

>  <r_glide_XP_GScore>
-6.33785

>  <r_i_glide_gscore>
-6.33785

>  <r_i_glide_evdw>
-41.1355

>  <r_i_glide_ecoul>
-13.1425

>  <r_i_glide_energy>
-54.278

>  <r_i_glide_einternal>
9.13903

>  <r_i_glide_emodel>
-74.6945

>  <r_glide_XP_HBond>
-0.656109

>  <i_i_glide_confnum>
1

>  <i_i_glide_posenum>
2

>  <r_i_glide_eff_state_penalty>
0.013

>  <i_glide_XP_PoseRank>
1

$$$$
