BACE_120.smi:1
 OpenBabel09291822493D
Structure written by MMmdl.
 71 74  0  0  1  0  0  0  0  0999 V2000
   25.2149   43.2089   -9.0021 C   0  0  0  0  0  0  0  0  0  0  0  0
   25.3267   42.4275  -10.3298 C   0  0  0  0  0  0  0  0  0  0  0  0
   25.9418   41.0540  -10.0054 C   0  0  0  0  0  0  0  0  0  0  0  0
   23.9867   42.1152  -10.8401 N   0  0  0  0  0  0  0  0  0  0  0  0
   23.0694   43.1735  -11.2628 C   0  0  0  0  0  0  0  0  0  0  0  0
   21.6455   42.6220  -11.4956 C   0  0  1  0  0  0  0  0  0  0  0  0
   21.6603   41.7491  -12.6081 O   0  0  0  0  0  0  0  0  0  0  0  0
   21.0152   41.9445  -10.2533 C   0  0  2  0  0  0  0  0  0  0  0  0
   21.3012   40.4252  -10.0934 C   0  0  0  0  0  0  0  0  0  0  0  0
   20.6590   39.8491   -8.8495 C   0  0  0  0  0  0  0  0  0  0  0  0
   21.3022   39.9564   -7.5989 C   0  0  0  0  0  0  0  0  0  0  0  0
   20.6527   39.4998   -6.4373 C   0  0  0  0  0  0  0  0  0  0  0  0
   19.3588   38.9509   -6.5217 C   0  0  0  0  0  0  0  0  0  0  0  0
   18.7219   38.8335   -7.7721 C   0  0  0  0  0  0  0  0  0  0  0  0
   17.3263   38.2622   -7.8726 C   0  0  0  0  0  0  0  0  0  0  0  0
   16.2431   39.2287   -7.3658 C   0  0  0  0  0  0  0  0  0  0  0  0
   14.8231   38.7986   -7.7752 C   0  0  0  0  0  0  0  0  0  0  0  0
   14.4996   38.9494   -9.2765 C   0  0  0  0  0  0  0  0  0  0  0  0
   14.0600   40.2919   -9.6398 N   0  0  0  0  0  0  0  0  0  0  0  0
   15.0198   41.3069   -9.7579 C   0  0  0  0  0  0  0  0  0  0  0  0
   14.7366   42.5936   -9.2525 C   0  0  0  0  0  0  0  0  0  0  0  0
   15.6060   43.6263   -9.2969 N   0  0  0  0  0  0  0  0  0  0  0  0
   16.8284   43.3946   -9.8186 C   0  0  0  0  0  0  0  0  0  0  0  0
   17.2199   42.1510  -10.3549 C   0  0  0  0  0  0  0  0  0  0  0  0
   16.2862   41.0951  -10.3461 C   0  0  0  0  0  0  0  0  0  0  0  0
   18.5861   41.9325  -10.9190 C   0  0  0  0  0  0  0  0  0  0  0  0
   18.7261   41.4030  -12.0187 O   0  0  0  0  0  0  0  0  0  0  0  0
   19.5933   42.2782  -10.0984 N   0  0  0  0  0  0  0  0  0  0  0  0
   19.3839   39.2601   -8.9349 C   0  0  0  0  0  0  0  0  0  0  0  0
   26.1945   43.2090  -11.3400 C   0  0  0  0  0  0  0  0  0  0  0  0
   25.9108   44.5670  -11.6276 C   0  0  0  0  0  0  0  0  0  0  0  0
   26.7161   45.3077  -12.5139 C   0  0  0  0  0  0  0  0  0  0  0  0
   27.8348   44.7071  -13.1180 C   0  0  0  0  0  0  0  0  0  0  0  0
   28.1388   43.3633  -12.8397 C   0  0  0  0  0  0  0  0  0  0  0  0
   29.6606   42.5482  -13.6399 Br  0  0  0  0  0  0  0  0  0  0  0  0
   27.3200   42.6172  -11.9733 C   0  0  0  0  0  0  0  0  0  0  0  0
   21.0262   43.4770  -11.7699 H   0  0  0  0  0  0  0  0  0  0  0  0
   21.4618   42.4296   -9.3853 H   0  0  0  0  0  0  0  0  0  0  0  0
   26.2012   43.3829   -8.5706 H   0  0  0  0  0  0  0  0  0  0  0  0
   24.6280   42.6566   -8.2665 H   0  0  0  0  0  0  0  0  0  0  0  0
   24.7413   44.1827   -9.1194 H   0  0  0  0  0  0  0  0  0  0  0  0
   26.9643   41.1407   -9.6401 H   0  0  0  0  0  0  0  0  0  0  0  0
   25.9594   40.3955  -10.8738 H   0  0  0  0  0  0  0  0  0  0  0  0
   25.3580   40.5459   -9.2406 H   0  0  0  0  0  0  0  0  0  0  0  0
   24.0606   41.3837  -11.5467 H   0  0  0  0  0  0  0  0  0  0  0  0
   23.0171   43.9572  -10.5073 H   0  0  0  0  0  0  0  0  0  0  0  0
   23.4267   43.6453  -12.1783 H   0  0  0  0  0  0  0  0  0  0  0  0
   22.4982   41.3012  -12.6397 H   0  0  0  0  0  0  0  0  0  0  0  0
   20.9338   39.8740  -10.9586 H   0  0  0  0  0  0  0  0  0  0  0  0
   22.3706   40.2280  -10.0479 H   0  0  0  0  0  0  0  0  0  0  0  0
   22.2821   40.4038   -7.5265 H   0  0  0  0  0  0  0  0  0  0  0  0
   21.1363   39.5904   -5.4752 H   0  0  0  0  0  0  0  0  0  0  0  0
   18.8451   38.6242   -5.6314 H   0  0  0  0  0  0  0  0  0  0  0  0
   17.1413   37.9672   -8.9038 H   0  0  0  0  0  0  0  0  0  0  0  0
   17.3004   37.3494   -7.2910 H   0  0  0  0  0  0  0  0  0  0  0  0
   16.3007   39.2836   -6.2784 H   0  0  0  0  0  0  0  0  0  0  0  0
   16.4403   40.2392   -7.7166 H   0  0  0  0  0  0  0  0  0  0  0  0
   14.6952   37.7507   -7.5038 H   0  0  0  0  0  0  0  0  0  0  0  0
   14.0860   39.3430   -7.1813 H   0  0  0  0  0  0  0  0  0  0  0  0
   15.3071   38.5942   -9.9133 H   0  0  0  0  0  0  0  0  0  0  0  0
   13.6601   38.2935   -9.4938 H   0  0  0  0  0  0  0  0  0  0  0  0
   13.1923   40.5500   -9.1610 H   0  0  0  0  0  0  0  0  0  0  0  0
   13.7803   42.8060   -8.7981 H   0  0  0  0  0  0  0  0  0  0  0  0
   17.5075   44.2349   -9.8161 H   0  0  0  0  0  0  0  0  0  0  0  0
   16.5573   40.1349  -10.7572 H   0  0  0  0  0  0  0  0  0  0  0  0
   19.3342   42.6583   -9.2004 H   0  0  0  0  0  0  0  0  0  0  0  0
   18.8954   39.1781   -9.8947 H   0  0  0  0  0  0  0  0  0  0  0  0
   25.0706   45.0625  -11.1633 H   0  0  0  0  0  0  0  0  0  0  0  0
   26.4823   46.3416  -12.7201 H   0  0  0  0  0  0  0  0  0  0  0  0
   28.4649   45.2739  -13.7866 H   0  0  0  0  0  0  0  0  0  0  0  0
   27.5985   41.5887  -11.8009 H   0  0  0  0  0  0  0  0  0  0  0  0
  1  2  1  0  0  0  0
  1 39  1  0  0  0  0
  1 40  1  0  0  0  0
  1 41  1  0  0  0  0
  2  3  1  0  0  0  0
  2  4  1  0  0  0  0
  2 30  1  0  0  0  0
  3 42  1  0  0  0  0
  3 43  1  0  0  0  0
  3 44  1  0  0  0  0
  4  5  1  0  0  0  0
  4 45  1  0  0  0  0
  5  6  1  0  0  0  0
  5 46  1  0  0  0  0
  5 47  1  0  0  0  0
  6 37  1  6  0  0  0
  6  7  1  0  0  0  0
  6  8  1  0  0  0  0
  7 48  1  0  0  0  0
  8 38  1  1  0  0  0
  8 28  1  0  0  0  0
  8  9  1  0  0  0  0
  9 10  1  0  0  0  0
  9 49  1  0  0  0  0
  9 50  1  0  0  0  0
 10 29  1  0  0  0  0
 10 11  2  0  0  0  0
 11 12  1  0  0  0  0
 11 51  1  0  0  0  0
 12 13  2  0  0  0  0
 12 52  1  0  0  0  0
 13 14  1  0  0  0  0
 13 53  1  0  0  0  0
 14 15  1  0  0  0  0
 14 29  2  0  0  0  0
 15 16  1  0  0  0  0
 15 54  1  0  0  0  0
 15 55  1  0  0  0  0
 16 17  1  0  0  0  0
 16 56  1  0  0  0  0
 16 57  1  0  0  0  0
 17 18  1  0  0  0  0
 17 58  1  0  0  0  0
 17 59  1  0  0  0  0
 18 19  1  0  0  0  0
 18 60  1  0  0  0  0
 18 61  1  0  0  0  0
 19 20  1  0  0  0  0
 19 62  1  0  0  0  0
 20 25  1  0  0  0  0
 20 21  2  0  0  0  0
 21 22  1  0  0  0  0
 21 63  1  0  0  0  0
 22 23  2  0  0  0  0
 23 24  1  0  0  0  0
 23 64  1  0  0  0  0
 24 25  2  0  0  0  0
 24 26  1  0  0  0  0
 25 65  1  0  0  0  0
 26 27  2  0  0  0  0
 26 28  1  0  0  0  0
 28 66  1  0  0  0  0
 29 67  1  0  0  0  0
 30 36  1  0  0  0  0
 30 31  2  0  0  0  0
 31 32  1  0  0  0  0
 31 68  1  0  0  0  0
 32 33  2  0  0  0  0
 32 69  1  0  0  0  0
 33 34  1  0  0  0  0
 33 70  1  0  0  0  0
 34 35  1  0  0  0  0
 34 36  2  0  0  0  0
 36 71  1  0  0  0  0
M  END
>  <s_m_source_file>
BACE_120.smi

>  <i_m_source_file_index>
1

>  <i_lp_mmshare_version>
42013

>  <i_f3d_flags>
0

>  <s_epik_input>
QnJjKFtjSF0xKVtjSF1bY0hdW2NIXWMxQyhbQ0gzXSkoW0NIM10pW05IXVtDSDJdW0NAQEhdKFtPSF0pW0NASF0oW0NIMl0yKVtOSF1DKD1PKWMoW2NIXTMpW2NIXW5bY0hdYzNbTkhdW0NIMl1bQ0gyXVtDSDJdW0NIMl1jKFtjSF00KVtjSF1bY0hdW2NIXWMyNA==

>  <s_epik_cmdline>
J2VwaWtfcHl0aG9uJywgJy1waCcsICc3LjAnLCAnLXRuJywgJzgnLCAnLW1hJywgJzIwMCcsICctaW1hZScsICc8aW5maWxlLm1hZT4nLCAnLW9tYWUnLCAnPG91dGZpbGUubWFlPic=

>  <r_lp_tautomer_probability>
1

>  <r_epik_Ionization_Penalty>
1.8971

>  <r_epik_Ionization_Penalty_Charging>
0.0000

>  <r_epik_Ionization_Penalty_Neutral>
1.8971

>  <r_epik_State_Penalty>
2.0160

>  <r_epik_Charging_Adjusted_Penalty>
2.01604

>  <i_epik_Tot_Q>
0

>  <i_epik_Tot_abs_Q>
0

>  <s_lp_Force_Field>
OPLS_2005

>  <r_lp_Energy>
37.2102

>  <b_lp_Chiralities_Consistent>
1

>  <s_lp_Variant>
BACE_120.smi:1-2

>  <chiral flag>
1

>  <version>
0

>  <s_i_glide_gridfile>
second_dock_grid_2

>  <i_i_glide_lignum>
246

>  <i_i_glide_rotatable_bonds>
6

>  <r_i_docking_score>
-2.15898

>  <r_i_glide_ligand_efficiency>
-0.0599717

>  <r_i_glide_ligand_efficiency_sa>
-0.198022

>  <r_i_glide_ligand_efficiency_ln>
-0.471032

>  <r_glide_XP_GScore>
-4.17498

>  <r_i_glide_gscore>
-4.17498

>  <r_i_glide_evdw>
-38.7241

>  <r_i_glide_ecoul>
-12.6881

>  <r_i_glide_energy>
-51.4122

>  <r_i_glide_einternal>
15.709

>  <r_i_glide_emodel>
-65.1011

>  <r_glide_XP_HBond>
-1.625

>  <i_i_glide_confnum>
1

>  <i_i_glide_posenum>
1

>  <r_i_glide_eff_state_penalty>
2.016

>  <i_glide_XP_PoseRank>
1

$$$$
