BACE_51.smi:1
 OpenBabel09291822493D
Structure written by MMmdl.
 78 80  0  0  1  0  0  0  0  0999 V2000
   22.8595   45.2182   -5.2099 C   0  0  0  0  0  0  0  0  0  0  0  0
   21.7787   44.3517   -5.8743 C   0  0  0  0  0  0  0  0  0  0  0  0
   20.3658   44.8795   -5.5727 C   0  0  0  0  0  0  0  0  0  0  0  0
   21.9227   42.8848   -5.4910 C   0  0  0  0  0  0  0  0  0  0  0  0
   21.7917   42.4858   -4.1440 C   0  0  0  0  0  0  0  0  0  0  0  0
   21.9564   41.1342   -3.7860 C   0  0  0  0  0  0  0  0  0  0  0  0
   22.2617   40.1746   -4.7700 C   0  0  0  0  0  0  0  0  0  0  0  0
   22.3968   40.5591   -6.1197 C   0  0  0  0  0  0  0  0  0  0  0  0
   22.7624   39.5106   -7.1646 C   0  0  0  0  0  0  0  0  0  0  0  0
   22.9405   40.0468   -8.5152 N   0  0  0  0  0  0  0  0  0  0  0  0
   21.7003   40.5107   -9.1387 C   0  0  0  0  0  0  0  0  0  0  0  0
   20.5661   39.4669   -9.0340 C   0  0  1  0  0  0  0  0  0  0  0  0
   19.8474   39.7994   -7.8592 O   0  0  0  0  0  0  0  0  0  0  0  0
   19.5652   39.5160  -10.2252 C   0  0  2  0  0  0  0  0  0  0  0  0
   18.6748   38.2555  -10.3863 C   0  0  0  0  0  0  0  0  0  0  0  0
   17.6692   37.9545   -9.2473 C   0  0  2  0  0  0  0  0  0  0  0  0
   17.0580   36.5555   -9.4344 C   0  0  0  0  0  0  0  0  0  0  0  0
   16.5553   39.0235   -9.1210 C   0  0  0  0  0  0  0  0  0  0  0  0
   16.0127   39.1647   -7.6871 C   0  0  0  0  0  0  0  0  0  0  0  0
   14.8501   40.1647   -7.5233 C   0  0  0  0  0  0  0  0  0  0  0  0
   15.2464   41.6440   -7.3067 C   0  0  0  0  0  0  0  0  0  0  0  0
   15.6471   42.4520   -8.5565 C   0  0  0  0  0  0  0  0  0  0  0  0
   14.5202   42.5993   -9.5950 C   0  0  0  0  0  0  0  0  0  0  0  0
   14.8973   43.4421  -10.8256 C   0  0  0  0  0  0  0  0  0  0  0  0
   15.7845   42.7059  -11.6683 O   0  0  0  0  0  0  0  0  0  0  0  0
   17.1480   42.8756  -11.5501 C   0  0  0  0  0  0  0  0  0  0  0  0
   17.9875   41.8406  -12.0009 C   0  0  0  0  0  0  0  0  0  0  0  0
   19.3822   41.9884  -11.8575 C   0  0  0  0  0  0  0  0  0  0  0  0
   19.8835   43.1910  -11.3204 C   0  0  0  0  0  0  0  0  0  0  0  0
   18.9666   44.1782  -10.9064 C   0  0  0  0  0  0  0  0  0  0  0  0
   19.5686   45.6455  -10.2297 Cl  0  0  0  0  0  0  0  0  0  0  0  0
   17.6286   44.0210  -11.0082 N   0  0  0  0  0  0  0  0  0  0  0  0
   20.3094   40.8737  -12.2339 C   0  0  0  0  0  0  0  0  0  0  0  0
   21.0782   41.0054  -13.1832 O   0  0  0  0  0  0  0  0  0  0  0  0
   20.2692   39.7460  -11.4952 N   0  0  0  0  0  0  0  0  0  0  0  0
   22.2040   41.9134   -6.4754 C   0  0  0  0  0  0  0  0  0  0  0  0
   20.9905   38.4671   -8.9354 H   0  0  0  0  0  0  0  0  0  0  0  0
   18.9172   40.3640  -10.0291 H   0  0  0  0  0  0  0  0  0  0  0  0
   18.2240   37.9137   -8.3120 H   0  0  0  0  0  0  0  0  0  0  0  0
   23.8579   44.8655   -5.4708 H   0  0  0  0  0  0  0  0  0  0  0  0
   22.7744   45.2046   -4.1231 H   0  0  0  0  0  0  0  0  0  0  0  0
   22.7825   46.2567   -5.5334 H   0  0  0  0  0  0  0  0  0  0  0  0
   21.9238   44.4268   -6.9528 H   0  0  0  0  0  0  0  0  0  0  0  0
   19.6079   44.2889   -6.0875 H   0  0  0  0  0  0  0  0  0  0  0  0
   20.2558   45.9125   -5.9032 H   0  0  0  0  0  0  0  0  0  0  0  0
   20.1390   44.8510   -4.5065 H   0  0  0  0  0  0  0  0  0  0  0  0
   21.5734   43.2150   -3.3777 H   0  0  0  0  0  0  0  0  0  0  0  0
   21.8589   40.8353   -2.7529 H   0  0  0  0  0  0  0  0  0  0  0  0
   22.3998   39.1423   -4.4835 H   0  0  0  0  0  0  0  0  0  0  0  0
   23.6664   38.9871   -6.8509 H   0  0  0  0  0  0  0  0  0  0  0  0
   21.9657   38.7666   -7.1745 H   0  0  0  0  0  0  0  0  0  0  0  0
   23.3957   39.3602   -9.1079 H   0  0  0  0  0  0  0  0  0  0  0  0
   21.3633   41.4401   -8.6791 H   0  0  0  0  0  0  0  0  0  0  0  0
   21.9062   40.7428  -10.1836 H   0  0  0  0  0  0  0  0  0  0  0  0
   19.3195   39.0568   -7.6094 H   0  0  0  0  0  0  0  0  0  0  0  0
   18.1117   38.3377  -11.3174 H   0  0  0  0  0  0  0  0  0  0  0  0
   19.3307   37.3937  -10.5177 H   0  0  0  0  0  0  0  0  0  0  0  0
   16.4901   36.4914  -10.3629 H   0  0  0  0  0  0  0  0  0  0  0  0
   16.3850   36.3005   -8.6159 H   0  0  0  0  0  0  0  0  0  0  0  0
   17.8325   35.7888   -9.4668 H   0  0  0  0  0  0  0  0  0  0  0  0
   16.9259   39.9889   -9.4413 H   0  0  0  0  0  0  0  0  0  0  0  0
   15.7412   38.7929   -9.8092 H   0  0  0  0  0  0  0  0  0  0  0  0
   15.6574   38.1865   -7.3628 H   0  0  0  0  0  0  0  0  0  0  0  0
   16.8214   39.4260   -7.0036 H   0  0  0  0  0  0  0  0  0  0  0  0
   14.1309   40.0546   -8.3340 H   0  0  0  0  0  0  0  0  0  0  0  0
   14.3055   39.8610   -6.6284 H   0  0  0  0  0  0  0  0  0  0  0  0
   14.4030   42.1546   -6.8403 H   0  0  0  0  0  0  0  0  0  0  0  0
   16.0529   41.6949   -6.5742 H   0  0  0  0  0  0  0  0  0  0  0  0
   15.9420   43.4510   -8.2341 H   0  0  0  0  0  0  0  0  0  0  0  0
   16.5391   42.0278   -9.0080 H   0  0  0  0  0  0  0  0  0  0  0  0
   14.1903   41.6196   -9.9386 H   0  0  0  0  0  0  0  0  0  0  0  0
   13.6578   43.0577   -9.1098 H   0  0  0  0  0  0  0  0  0  0  0  0
   13.9947   43.6176  -11.4107 H   0  0  0  0  0  0  0  0  0  0  0  0
   15.2482   44.4333  -10.5386 H   0  0  0  0  0  0  0  0  0  0  0  0
   17.5647   40.9352  -12.4123 H   0  0  0  0  0  0  0  0  0  0  0  0
   20.9463   43.3450  -11.1995 H   0  0  0  0  0  0  0  0  0  0  0  0
   20.8775   38.9975  -11.7940 H   0  0  0  0  0  0  0  0  0  0  0  0
   22.2992   42.2188   -7.5068 H   0  0  0  0  0  0  0  0  0  0  0  0
  1  2  1  0  0  0  0
  1 40  1  0  0  0  0
  1 41  1  0  0  0  0
  1 42  1  0  0  0  0
  2  3  1  0  0  0  0
  2  4  1  0  0  0  0
  2 43  1  0  0  0  0
  3 44  1  0  0  0  0
  3 45  1  0  0  0  0
  3 46  1  0  0  0  0
  4 36  1  0  0  0  0
  4  5  2  0  0  0  0
  5  6  1  0  0  0  0
  5 47  1  0  0  0  0
  6  7  2  0  0  0  0
  6 48  1  0  0  0  0
  7  8  1  0  0  0  0
  7 49  1  0  0  0  0
  8  9  1  0  0  0  0
  8 36  2  0  0  0  0
  9 10  1  0  0  0  0
  9 50  1  0  0  0  0
  9 51  1  0  0  0  0
 10 11  1  0  0  0  0
 10 52  1  0  0  0  0
 11 12  1  0  0  0  0
 11 53  1  0  0  0  0
 11 54  1  0  0  0  0
 12 37  1  1  0  0  0
 12 13  1  0  0  0  0
 12 14  1  0  0  0  0
 13 55  1  0  0  0  0
 14 38  1  1  0  0  0
 14 35  1  0  0  0  0
 14 15  1  0  0  0  0
 15 16  1  0  0  0  0
 15 56  1  0  0  0  0
 15 57  1  0  0  0  0
 16 39  1  1  0  0  0
 16 17  1  0  0  0  0
 16 18  1  0  0  0  0
 17 58  1  0  0  0  0
 17 59  1  0  0  0  0
 17 60  1  0  0  0  0
 18 19  1  0  0  0  0
 18 61  1  0  0  0  0
 18 62  1  0  0  0  0
 19 20  1  0  0  0  0
 19 63  1  0  0  0  0
 19 64  1  0  0  0  0
 20 21  1  0  0  0  0
 20 65  1  0  0  0  0
 20 66  1  0  0  0  0
 21 22  1  0  0  0  0
 21 67  1  0  0  0  0
 21 68  1  0  0  0  0
 22 23  1  0  0  0  0
 22 69  1  0  0  0  0
 22 70  1  0  0  0  0
 23 24  1  0  0  0  0
 23 71  1  0  0  0  0
 23 72  1  0  0  0  0
 24 25  1  0  0  0  0
 24 73  1  0  0  0  0
 24 74  1  0  0  0  0
 25 26  1  0  0  0  0
 26 32  1  0  0  0  0
 26 27  2  0  0  0  0
 27 28  1  0  0  0  0
 27 75  1  0  0  0  0
 28 29  2  0  0  0  0
 28 33  1  0  0  0  0
 29 30  1  0  0  0  0
 29 76  1  0  0  0  0
 30 31  1  0  0  0  0
 30 32  2  0  0  0  0
 33 34  2  0  0  0  0
 33 35  1  0  0  0  0
 35 77  1  0  0  0  0
 36 78  1  0  0  0  0
M  END
>  <s_m_source_file>
BACE_51.smi

>  <i_m_source_file_index>
1

>  <i_lp_mmshare_version>
42013

>  <i_f3d_flags>
0

>  <s_epik_input>
W0NIM11bQ0hdKFtDSDNdKWMxW2NIXVtjSF1bY0hdYyhbY0hdMSlbQ0gyXVtOSF1bQ0gyXVtDQEBIXShbT0hdKVtDQEBIXShbTkhdQyg9TyljKFtjSF1jMjMpW2NIXWMoQ2wpbjMpW0NIMl1bQ0BIXShbQ0gzXSlbQ0gyXVtDSDJdW0NIMl1bQ0gyXVtDSDJdW0NIMl1bQ0gyXU8y

>  <s_epik_cmdline>
J2VwaWtfcHl0aG9uJywgJy1waCcsICc3LjAnLCAnLXRuJywgJzgnLCAnLW1hJywgJzIwMCcsICctaW1hZScsICc8aW5maWxlLm1hZT4nLCAnLW9tYWUnLCAnPG91dGZpbGUubWFlPic=

>  <r_lp_tautomer_probability>
1

>  <r_epik_Ionization_Penalty>
2.1014

>  <r_epik_Ionization_Penalty_Charging>
0.0000

>  <r_epik_Ionization_Penalty_Neutral>
2.1014

>  <r_epik_State_Penalty>
2.2376

>  <r_epik_Charging_Adjusted_Penalty>
2.23761

>  <i_epik_Tot_Q>
0

>  <i_epik_Tot_abs_Q>
0

>  <s_lp_Force_Field>
OPLS_2005

>  <r_lp_Energy>
35.3519

>  <b_lp_Chiralities_Consistent>
1

>  <s_lp_Variant>
BACE_51.smi:1-2

>  <chiral flag>
1

>  <version>
0

>  <s_i_glide_gridfile>
second_dock_grid_2

>  <i_i_glide_lignum>
98

>  <i_i_glide_rotatable_bonds>
7

>  <r_i_docking_score>
-2.4885

>  <r_i_glide_ligand_efficiency>
-0.069125

>  <r_i_glide_ligand_efficiency_sa>
-0.228246

>  <r_i_glide_ligand_efficiency_ln>
-0.542923

>  <r_glide_XP_GScore>
-4.7261

>  <r_i_glide_gscore>
-4.7261

>  <r_i_glide_evdw>
-34.3314

>  <r_i_glide_ecoul>
-4.46004

>  <r_i_glide_energy>
-38.7915

>  <r_i_glide_einternal>
5.99847

>  <r_i_glide_emodel>
-57.6923

>  <r_glide_XP_HBond>
-0.523575

>  <i_i_glide_confnum>
1

>  <i_i_glide_posenum>
3

>  <r_i_glide_eff_state_penalty>
2.2376

>  <i_glide_XP_PoseRank>
1

$$$$
