BACE_101.smi:1
 OpenBabel09291822493D
Structure written by MMmdl.
 82 85  0  0  1  0  0  0  0  0999 V2000
   26.8993   50.1498   -1.1616 C   0  0  0  0  0  0  0  0  0  0  0  0
   25.4760   50.2739   -0.5923 C   0  0  0  0  0  0  0  0  0  0  0  0
   25.2308   49.2382    0.5144 C   0  0  0  0  0  0  0  0  0  0  0  0
   24.4117   50.1806   -1.6779 C   0  0  0  0  0  0  0  0  0  0  0  0
   24.4590   49.1757   -2.6638 C   0  0  0  0  0  0  0  0  0  0  0  0
   23.4499   49.1362   -3.6479 C   0  0  0  0  0  0  0  0  0  0  0  0
   23.4416   48.0191   -4.6693 C   0  0  0  0  0  0  0  0  0  0  0  0
   23.2619   46.7266   -4.0072 N   0  0  0  0  0  0  0  0  0  0  0  0
   23.3182   45.5528   -4.8824 C   0  0  0  0  0  0  0  0  0  0  0  0
   22.2980   45.5878   -6.0459 C   0  0  1  0  0  0  0  0  0  0  0  0
   22.9875   46.1641   -7.1377 O   0  0  0  0  0  0  0  0  0  0  0  0
   21.7854   44.1701   -6.4213 C   0  0  2  0  0  0  0  0  0  0  0  0
   22.8579   43.2100   -6.9905 C   0  0  0  0  0  0  0  0  0  0  0  0
   22.3584   41.7792   -7.0297 C   0  0  0  0  0  0  0  0  0  0  0  0
   21.9326   41.1987   -8.2442 C   0  0  0  0  0  0  0  0  0  0  0  0
   21.3642   39.9011   -8.2570 C   0  0  0  0  0  0  0  0  0  0  0  0
   21.2789   39.1866   -7.0457 C   0  0  0  0  0  0  0  0  0  0  0  0
   21.7370   39.7500   -5.8400 C   0  0  0  0  0  0  0  0  0  0  0  0
   22.2686   41.0478   -5.8285 C   0  0  0  0  0  0  0  0  0  0  0  0
   20.8511   39.2725   -9.3727 O   0  0  0  0  0  0  0  0  0  0  0  0
   20.7945   39.9616  -10.6166 C   0  0  0  0  0  0  0  0  0  0  0  0
   19.5892   39.4122  -11.3862 C   0  0  0  0  0  0  0  0  0  0  0  0
   18.2497   39.9321  -10.8307 C   0  0  0  0  0  0  0  0  0  0  0  0
   17.8291   41.2918  -11.4294 C   0  0  0  0  0  0  0  0  0  0  0  0
   16.8427   42.0084  -10.5935 N   0  0  0  0  0  0  0  0  0  0  0  0
   15.5667   41.5497  -10.5030 C   0  0  0  0  0  0  0  0  0  0  0  0
   14.5972   42.1837   -9.4996 C   0  0  0  0  0  0  0  0  0  0  0  0
   15.1380   40.6546  -11.2333 O   0  0  0  0  0  0  0  0  0  0  0  0
   17.2451   43.2767  -10.0729 C   0  0  0  0  0  0  0  0  0  0  0  0
   18.4728   43.3459   -9.3646 C   0  0  0  0  0  0  0  0  0  0  0  0
   18.9988   44.6088   -9.0159 C   0  0  0  0  0  0  0  0  0  0  0  0
   18.2639   45.7610   -9.3464 C   0  0  0  0  0  0  0  0  0  0  0  0
   17.0367   45.6029  -10.0114 C   0  0  0  0  0  0  0  0  0  0  0  0
   16.2114   46.8140  -10.3857 C   0  0  0  0  0  0  0  0  0  0  0  0
   16.5433   44.4001  -10.3719 N   0  0  0  0  0  0  0  0  0  0  0  0
   20.3616   44.7515   -8.4145 C   0  0  0  0  0  0  0  0  0  0  0  0
   21.2244   45.4027   -9.0073 O   0  0  0  0  0  0  0  0  0  0  0  0
   20.5471   44.1679   -7.2183 N   0  0  0  0  0  0  0  0  0  0  0  0
   22.4272   50.0165   -3.6946 N   0  0  0  0  0  0  0  0  0  0  0  0
   22.3685   50.9588   -2.7303 C   0  0  0  0  0  0  0  0  0  0  0  0
   23.3333   51.0875   -1.7123 C   0  0  0  0  0  0  0  0  0  0  0  0
   21.4391   46.2060   -5.7812 H   0  0  0  0  0  0  0  0  0  0  0  0
   21.4579   43.7361   -5.4763 H   0  0  0  0  0  0  0  0  0  0  0  0
   27.0599   50.8486   -1.9833 H   0  0  0  0  0  0  0  0  0  0  0  0
   27.0999   49.1476   -1.5403 H   0  0  0  0  0  0  0  0  0  0  0  0
   27.6481   50.3577   -0.3973 H   0  0  0  0  0  0  0  0  0  0  0  0
   25.3950   51.2649   -0.1409 H   0  0  0  0  0  0  0  0  0  0  0  0
   24.2458   49.3704    0.9604 H   0  0  0  0  0  0  0  0  0  0  0  0
   25.9716   49.3360    1.3083 H   0  0  0  0  0  0  0  0  0  0  0  0
   25.2888   48.2211    0.1298 H   0  0  0  0  0  0  0  0  0  0  0  0
   25.2515   48.4419   -2.6740 H   0  0  0  0  0  0  0  0  0  0  0  0
   22.6489   48.2015   -5.3959 H   0  0  0  0  0  0  0  0  0  0  0  0
   24.3852   48.0410   -5.2182 H   0  0  0  0  0  0  0  0  0  0  0  0
   24.0136   46.6275   -3.3289 H   0  0  0  0  0  0  0  0  0  0  0  0
   24.3309   45.4105   -5.2660 H   0  0  0  0  0  0  0  0  0  0  0  0
   23.1269   44.6720   -4.2680 H   0  0  0  0  0  0  0  0  0  0  0  0
   22.4917   45.9698   -7.9345 H   0  0  0  0  0  0  0  0  0  0  0  0
   23.1665   43.5234   -7.9859 H   0  0  0  0  0  0  0  0  0  0  0  0
   23.7591   43.2348   -6.3777 H   0  0  0  0  0  0  0  0  0  0  0  0
   22.0281   41.7836   -9.1461 H   0  0  0  0  0  0  0  0  0  0  0  0
   20.8473   38.1962   -7.0410 H   0  0  0  0  0  0  0  0  0  0  0  0
   21.6599   39.1948   -4.9192 H   0  0  0  0  0  0  0  0  0  0  0  0
   22.5938   41.4871   -4.8968 H   0  0  0  0  0  0  0  0  0  0  0  0
   20.6693   41.0386  -10.5229 H   0  0  0  0  0  0  0  0  0  0  0  0
   21.7212   39.7757  -11.1613 H   0  0  0  0  0  0  0  0  0  0  0  0
   19.6749   39.6873  -12.4364 H   0  0  0  0  0  0  0  0  0  0  0  0
   19.6144   38.3229  -11.3431 H   0  0  0  0  0  0  0  0  0  0  0  0
   17.4688   39.2037  -11.0418 H   0  0  0  0  0  0  0  0  0  0  0  0
   18.3066   39.9922   -9.7443 H   0  0  0  0  0  0  0  0  0  0  0  0
   18.7115   41.9161  -11.5721 H   0  0  0  0  0  0  0  0  0  0  0  0
   17.4391   41.1458  -12.4395 H   0  0  0  0  0  0  0  0  0  0  0  0
   15.0727   42.3232   -8.5283 H   0  0  0  0  0  0  0  0  0  0  0  0
   13.7252   41.5470   -9.3511 H   0  0  0  0  0  0  0  0  0  0  0  0
   14.2382   43.1476   -9.8592 H   0  0  0  0  0  0  0  0  0  0  0  0
   19.0352   42.4478   -9.1548 H   0  0  0  0  0  0  0  0  0  0  0  0
   18.6438   46.7453   -9.1126 H   0  0  0  0  0  0  0  0  0  0  0  0
   16.8527   47.6156  -10.7513 H   0  0  0  0  0  0  0  0  0  0  0  0
   15.6667   47.1771   -9.5118 H   0  0  0  0  0  0  0  0  0  0  0  0
   15.4918   46.5730  -11.1724 H   0  0  0  0  0  0  0  0  0  0  0  0
   19.7686   43.6434   -6.8415 H   0  0  0  0  0  0  0  0  0  0  0  0
   21.5340   51.6438   -2.7751 H   0  0  0  0  0  0  0  0  0  0  0  0
   23.2463   51.8722   -0.9782 H   0  0  0  0  0  0  0  0  0  0  0  0
  1  2  1  0  0  0  0
  1 44  1  0  0  0  0
  1 45  1  0  0  0  0
  1 46  1  0  0  0  0
  2  3  1  0  0  0  0
  2  4  1  0  0  0  0
  2 47  1  0  0  0  0
  3 48  1  0  0  0  0
  3 49  1  0  0  0  0
  3 50  1  0  0  0  0
  4 41  1  0  0  0  0
  4  5  2  0  0  0  0
  5  6  1  0  0  0  0
  5 51  1  0  0  0  0
  6  7  1  0  0  0  0
  6 39  2  0  0  0  0
  7  8  1  0  0  0  0
  7 52  1  0  0  0  0
  7 53  1  0  0  0  0
  8  9  1  0  0  0  0
  8 54  1  0  0  0  0
  9 10  1  0  0  0  0
  9 55  1  0  0  0  0
  9 56  1  0  0  0  0
 10 42  1  1  0  0  0
 10 11  1  0  0  0  0
 10 12  1  0  0  0  0
 11 57  1  0  0  0  0
 12 43  1  1  0  0  0
 12 38  1  0  0  0  0
 12 13  1  0  0  0  0
 13 14  1  0  0  0  0
 13 58  1  0  0  0  0
 13 59  1  0  0  0  0
 14 19  1  0  0  0  0
 14 15  2  0  0  0  0
 15 16  1  0  0  0  0
 15 60  1  0  0  0  0
 16 17  2  0  0  0  0
 16 20  1  0  0  0  0
 17 18  1  0  0  0  0
 17 61  1  0  0  0  0
 18 19  2  0  0  0  0
 18 62  1  0  0  0  0
 19 63  1  0  0  0  0
 20 21  1  0  0  0  0
 21 22  1  0  0  0  0
 21 64  1  0  0  0  0
 21 65  1  0  0  0  0
 22 23  1  0  0  0  0
 22 66  1  0  0  0  0
 22 67  1  0  0  0  0
 23 24  1  0  0  0  0
 23 68  1  0  0  0  0
 23 69  1  0  0  0  0
 24 25  1  0  0  0  0
 24 70  1  0  0  0  0
 24 71  1  0  0  0  0
 25 26  1  0  0  0  0
 25 29  1  0  0  0  0
 26 27  1  0  0  0  0
 26 28  2  0  0  0  0
 27 72  1  0  0  0  0
 27 73  1  0  0  0  0
 27 74  1  0  0  0  0
 29 35  1  0  0  0  0
 29 30  2  0  0  0  0
 30 31  1  0  0  0  0
 30 75  1  0  0  0  0
 31 32  2  0  0  0  0
 31 36  1  0  0  0  0
 32 33  1  0  0  0  0
 32 76  1  0  0  0  0
 33 34  1  0  0  0  0
 33 35  2  0  0  0  0
 34 77  1  0  0  0  0
 34 78  1  0  0  0  0
 34 79  1  0  0  0  0
 36 37  2  0  0  0  0
 36 38  1  0  0  0  0
 38 80  1  0  0  0  0
 39 40  1  0  0  0  0
 40 41  2  0  0  0  0
 40 81  1  0  0  0  0
 41 82  1  0  0  0  0
M  END
>  <s_m_source_file>
BACE_101.smi

>  <i_m_source_file_index>
1

>  <i_lp_mmshare_version>
42013

>  <i_f3d_flags>
0

>  <s_epik_input>
W0NIM11bQ0hdKFtDSDNdKWMxW2NIXWMobltjSF1bY0hdMSlbQ0gyXVtOSF1bQ0gyXVtDQEBIXShbT0hdKVtDQEhdKFtDSDJdMilbTkhdQyg9TyljKFtjSF1jKG4zKVtDSDNdKVtjSF1jM04oQyg9TylbQ0gzXSlbQ0gyXVtDSDJdW0NIMl1bQ0gyXU9jKFtjSF1jMjQpW2NIXVtjSF1bY0hdNA==

>  <s_epik_cmdline>
J2VwaWtfcHl0aG9uJywgJy1waCcsICc3LjAnLCAnLXRuJywgJzgnLCAnLW1hJywgJzIwMCcsICctaW1hZScsICc8aW5maWxlLm1hZT4nLCAnLW9tYWUnLCAnPG91dGZpbGUubWFlPic=

>  <r_lp_tautomer_probability>
1

>  <r_epik_Ionization_Penalty>
1.6178

>  <r_epik_Ionization_Penalty_Charging>
0.0000

>  <r_epik_Ionization_Penalty_Neutral>
1.6178

>  <r_epik_State_Penalty>
1.7152

>  <r_epik_Charging_Adjusted_Penalty>
1.71525

>  <i_epik_Tot_Q>
0

>  <i_epik_Tot_abs_Q>
0

>  <s_lp_Force_Field>
OPLS_2005

>  <r_lp_Energy>
43.9486

>  <b_lp_Chiralities_Consistent>
1

>  <s_lp_Variant>
BACE_101.smi:1-2

>  <chiral flag>
1

>  <version>
0

>  <s_i_glide_gridfile>
second_dock_grid_2

>  <i_i_glide_lignum>
207

>  <i_i_glide_rotatable_bonds>
8

>  <r_i_docking_score>
-3.28324

>  <r_i_glide_ligand_efficiency>
-0.080079

>  <r_i_glide_ligand_efficiency_sa>
-0.27613

>  <r_i_glide_ligand_efficiency_ln>
-0.69655

>  <r_glide_XP_GScore>
-4.99844

>  <r_i_glide_gscore>
-4.99844

>  <r_i_glide_evdw>
-42.9566

>  <r_i_glide_ecoul>
-8.02505

>  <r_i_glide_energy>
-50.9816

>  <r_i_glide_einternal>
6.40548

>  <r_i_glide_emodel>
-62.3287

>  <r_glide_XP_HBond>
-1.24015

>  <i_i_glide_confnum>
1

>  <i_i_glide_posenum>
7

>  <r_i_glide_eff_state_penalty>
1.7152

>  <i_glide_XP_PoseRank>
1

$$$$
