BACE_63.smi:1
 OpenBabel09291822493D
Structure written by MMmdl.
 98101  0  0  1  0  0  0  0  0999 V2000
   19.4163   48.2644   -8.4147 C   0  0  0  0  0  0  0  0  0  0  0  0
   18.7457   47.0806   -8.8078 O   0  0  0  0  0  0  0  0  0  0  0  0
   19.6421   46.0049   -9.0533 C   0  0  0  0  0  0  0  0  0  0  0  0
   18.9109   44.7330   -9.4349 C   0  0  0  0  0  0  0  0  0  0  0  0
   17.7604   44.3421   -8.7179 C   0  0  0  0  0  0  0  0  0  0  0  0
   17.0810   43.1514   -9.0424 C   0  0  0  0  0  0  0  0  0  0  0  0
   17.5826   42.3397  -10.0874 C   0  0  0  0  0  0  0  0  0  0  0  0
   18.7269   42.7232  -10.8108 C   0  0  0  0  0  0  0  0  0  0  0  0
   19.3912   43.9236  -10.4850 C   0  0  0  0  0  0  0  0  0  0  0  0
   19.1994   41.8772  -11.9513 C   0  0  0  0  0  0  0  0  0  0  0  0
   18.8600   42.1526  -13.0964 O   0  0  0  0  0  0  0  0  0  0  0  0
   19.9876   40.8228  -11.6948 N   0  0  0  0  0  0  0  0  0  0  0  0
   20.4881   40.3262  -10.4112 C   0  0  1  0  0  0  0  0  0  0  0  0
   20.0419   38.8485  -10.2771 C   0  0  0  0  0  0  0  0  0  0  0  0
   18.9505   38.6248   -9.2132 C   0  0  2  0  0  0  0  0  0  0  0  0
   19.5548   38.6031   -7.7964 C   0  0  0  0  0  0  0  0  0  0  0  0
   18.1701   37.3412   -9.5511 C   0  0  0  0  0  0  0  0  0  0  0  0
   17.0544   36.9384   -8.5834 C   0  0  0  0  0  0  0  0  0  0  0  0
   16.0047   38.0265   -8.3155 C   0  0  0  0  0  0  0  0  0  0  0  0
   15.2613   38.5226   -9.5629 C   0  0  0  0  0  0  0  0  0  0  0  0
   14.1346   39.5198   -9.2361 C   0  0  0  0  0  0  0  0  0  0  0  0
   14.5502   40.9992   -9.3187 C   0  0  0  0  0  0  0  0  0  0  0  0
   15.5406   41.4236   -8.2205 C   0  0  0  0  0  0  0  0  0  0  0  0
   15.9255   42.8235   -8.3170 N   0  0  0  0  0  0  0  0  0  0  0  0
   22.0252   40.4948  -10.3480 C   0  0  2  0  0  0  0  0  0  0  0  0
   22.4609   39.9536   -9.1164 O   0  0  0  0  0  0  0  0  0  0  0  0
   22.4721   41.9748  -10.4276 C   0  0  0  0  0  0  0  0  0  0  0  0
   23.8676   42.1501  -10.8400 N   0  0  0  0  0  0  0  0  0  0  0  0
   24.9319   41.8528   -9.8746 C   0  0  1  0  0  0  0  0  0  0  0  0
   26.2429   41.5665  -10.6227 C   0  0  0  0  0  0  0  0  0  0  0  0
   27.0608   42.8351  -10.9534 C   0  0  0  0  0  0  0  0  0  0  0  0
   28.4404   42.4206  -11.4910 C   0  0  0  0  0  0  0  0  0  0  0  0
   26.3721   43.7550  -11.9800 C   0  0  0  0  0  0  0  0  0  0  0  0
   27.3199   43.5941   -9.7742 O   0  0  0  0  0  0  0  0  0  0  0  0
   26.3062   43.7507   -8.8520 C   0  0  0  0  0  0  0  0  0  0  0  0
   26.5038   44.7010   -7.8309 C   0  0  0  0  0  0  0  0  0  0  0  0
   25.5615   44.8561   -6.7968 C   0  0  0  0  0  0  0  0  0  0  0  0
   24.4057   44.0501   -6.7645 C   0  0  0  0  0  0  0  0  0  0  0  0
   24.2018   43.1009   -7.7888 C   0  0  0  0  0  0  0  0  0  0  0  0
   25.1343   42.9500   -8.8401 C   0  0  0  0  0  0  0  0  0  0  0  0
   23.4062   44.1898   -5.6225 C   0  0  0  0  0  0  0  0  0  0  0  0
   22.0474   44.7026   -6.1213 C   0  0  0  0  0  0  0  0  0  0  0  0
   23.2591   42.8829   -4.8260 C   0  0  0  0  0  0  0  0  0  0  0  0
   20.0693   40.8996   -9.5837 H   0  0  0  0  0  0  0  0  0  0  0  0
   18.2467   39.4559   -9.2699 H   0  0  0  0  0  0  0  0  0  0  0  0
   22.4612   39.9205  -11.1651 H   0  0  0  0  0  0  0  0  0  0  0  0
   24.6940   40.9378   -9.3358 H   0  0  0  0  0  0  0  0  0  0  0  0
   18.6853   49.0601   -8.2599 H   0  0  0  0  0  0  0  0  0  0  0  0
   20.1183   48.5949   -9.1820 H   0  0  0  0  0  0  0  0  0  0  0  0
   19.9596   48.1184   -7.4784 H   0  0  0  0  0  0  0  0  0  0  0  0
   20.2271   45.8036   -8.1541 H   0  0  0  0  0  0  0  0  0  0  0  0
   20.3441   46.2783   -9.8445 H   0  0  0  0  0  0  0  0  0  0  0  0
   17.3989   44.9663   -7.9146 H   0  0  0  0  0  0  0  0  0  0  0  0
   17.0968   41.4165  -10.3613 H   0  0  0  0  0  0  0  0  0  0  0  0
   20.2681   44.2239  -11.0410 H   0  0  0  0  0  0  0  0  0  0  0  0
   20.2588   40.2786  -12.5001 H   0  0  0  0  0  0  0  0  0  0  0  0
   20.8855   38.1944  -10.0532 H   0  0  0  0  0  0  0  0  0  0  0  0
   19.6845   38.4884  -11.2428 H   0  0  0  0  0  0  0  0  0  0  0  0
   18.7850   38.5251   -7.0291 H   0  0  0  0  0  0  0  0  0  0  0  0
   20.1143   39.5154   -7.5910 H   0  0  0  0  0  0  0  0  0  0  0  0
   20.2352   37.7615   -7.6680 H   0  0  0  0  0  0  0  0  0  0  0  0
   17.7245   37.4662  -10.5320 H   0  0  0  0  0  0  0  0  0  0  0  0
   18.8600   36.5083   -9.6394 H   0  0  0  0  0  0  0  0  0  0  0  0
   17.5117   36.6341   -7.6437 H   0  0  0  0  0  0  0  0  0  0  0  0
   16.5531   36.0504   -8.9676 H   0  0  0  0  0  0  0  0  0  0  0  0
   16.4669   38.8378   -7.7624 H   0  0  0  0  0  0  0  0  0  0  0  0
   15.2585   37.6209   -7.6399 H   0  0  0  0  0  0  0  0  0  0  0  0
   15.9464   38.9558  -10.2921 H   0  0  0  0  0  0  0  0  0  0  0  0
   14.8291   37.6444  -10.0399 H   0  0  0  0  0  0  0  0  0  0  0  0
   13.3202   39.3608   -9.9389 H   0  0  0  0  0  0  0  0  0  0  0  0
   13.7011   39.3029   -8.2585 H   0  0  0  0  0  0  0  0  0  0  0  0
   13.6601   41.6215   -9.2401 H   0  0  0  0  0  0  0  0  0  0  0  0
   14.9479   41.2024  -10.3108 H   0  0  0  0  0  0  0  0  0  0  0  0
   16.4451   40.8233   -8.2524 H   0  0  0  0  0  0  0  0  0  0  0  0
   15.0969   41.2562   -7.2363 H   0  0  0  0  0  0  0  0  0  0  0  0
   15.7512   43.3396   -7.4598 H   0  0  0  0  0  0  0  0  0  0  0  0
   23.3362   39.6067   -9.2365 H   0  0  0  0  0  0  0  0  0  0  0  0
   22.2411   42.5094   -9.5100 H   0  0  0  0  0  0  0  0  0  0  0  0
   21.8748   42.4726  -11.1878 H   0  0  0  0  0  0  0  0  0  0  0  0
   24.0465   41.6554  -11.7182 H   0  0  0  0  0  0  0  0  0  0  0  0
   26.8588   40.9442   -9.9728 H   0  0  0  0  0  0  0  0  0  0  0  0
   26.0643   40.9655  -11.5142 H   0  0  0  0  0  0  0  0  0  0  0  0
   28.3500   41.8408  -12.4109 H   0  0  0  0  0  0  0  0  0  0  0  0
   28.9790   41.8073  -10.7685 H   0  0  0  0  0  0  0  0  0  0  0  0
   29.0603   43.2913  -11.7067 H   0  0  0  0  0  0  0  0  0  0  0  0
   26.1262   43.2113  -12.8911 H   0  0  0  0  0  0  0  0  0  0  0  0
   27.0173   44.5903  -12.2538 H   0  0  0  0  0  0  0  0  0  0  0  0
   25.4506   44.1861  -11.5897 H   0  0  0  0  0  0  0  0  0  0  0  0
   27.3982   45.3060   -7.8323 H   0  0  0  0  0  0  0  0  0  0  0  0
   25.7413   45.5828   -6.0172 H   0  0  0  0  0  0  0  0  0  0  0  0
   23.3418   42.4519   -7.7374 H   0  0  0  0  0  0  0  0  0  0  0  0
   23.7983   44.9374   -4.9315 H   0  0  0  0  0  0  0  0  0  0  0  0
   22.1591   45.6577   -6.6354 H   0  0  0  0  0  0  0  0  0  0  0  0
   21.3558   44.8515   -5.2915 H   0  0  0  0  0  0  0  0  0  0  0  0
   21.5854   44.0010   -6.8168 H   0  0  0  0  0  0  0  0  0  0  0  0
   24.2231   42.5514   -4.4399 H   0  0  0  0  0  0  0  0  0  0  0  0
   22.8493   42.0772   -5.4372 H   0  0  0  0  0  0  0  0  0  0  0  0
   22.5959   43.0177   -3.9705 H   0  0  0  0  0  0  0  0  0  0  0  0
  1  2  1  0  0  0  0
  1 48  1  0  0  0  0
  1 49  1  0  0  0  0
  1 50  1  0  0  0  0
  2  3  1  0  0  0  0
  3  4  1  0  0  0  0
  3 51  1  0  0  0  0
  3 52  1  0  0  0  0
  4  9  1  0  0  0  0
  4  5  2  0  0  0  0
  5  6  1  0  0  0  0
  5 53  1  0  0  0  0
  6 24  1  0  0  0  0
  6  7  2  0  0  0  0
  7  8  1  0  0  0  0
  7 54  1  0  0  0  0
  8  9  2  0  0  0  0
  8 10  1  0  0  0  0
  9 55  1  0  0  0  0
 10 11  2  0  0  0  0
 10 12  1  0  0  0  0
 12 13  1  0  0  0  0
 12 56  1  0  0  0  0
 13 44  1  1  0  0  0
 13 14  1  0  0  0  0
 13 25  1  0  0  0  0
 14 15  1  0  0  0  0
 14 57  1  0  0  0  0
 14 58  1  0  0  0  0
 15 45  1  6  0  0  0
 15 16  1  0  0  0  0
 15 17  1  0  0  0  0
 16 59  1  0  0  0  0
 16 60  1  0  0  0  0
 16 61  1  0  0  0  0
 17 18  1  0  0  0  0
 17 62  1  0  0  0  0
 17 63  1  0  0  0  0
 18 19  1  0  0  0  0
 18 64  1  0  0  0  0
 18 65  1  0  0  0  0
 19 20  1  0  0  0  0
 19 66  1  0  0  0  0
 19 67  1  0  0  0  0
 20 21  1  0  0  0  0
 20 68  1  0  0  0  0
 20 69  1  0  0  0  0
 21 22  1  0  0  0  0
 21 70  1  0  0  0  0
 21 71  1  0  0  0  0
 22 23  1  0  0  0  0
 22 72  1  0  0  0  0
 22 73  1  0  0  0  0
 23 24  1  0  0  0  0
 23 74  1  0  0  0  0
 23 75  1  0  0  0  0
 24 76  1  0  0  0  0
 25 46  1  6  0  0  0
 25 26  1  0  0  0  0
 25 27  1  0  0  0  0
 26 77  1  0  0  0  0
 27 28  1  0  0  0  0
 27 78  1  0  0  0  0
 27 79  1  0  0  0  0
 28 29  1  0  0  0  0
 28 80  1  0  0  0  0
 29 47  1  1  0  0  0
 29 40  1  0  0  0  0
 29 30  1  0  0  0  0
 30 31  1  0  0  0  0
 30 81  1  0  0  0  0
 30 82  1  0  0  0  0
 31 32  1  0  0  0  0
 31 33  1  0  0  0  0
 31 34  1  0  0  0  0
 32 83  1  0  0  0  0
 32 84  1  0  0  0  0
 32 85  1  0  0  0  0
 33 86  1  0  0  0  0
 33 87  1  0  0  0  0
 33 88  1  0  0  0  0
 34 35  1  0  0  0  0
 35 40  2  0  0  0  0
 35 36  1  0  0  0  0
 36 37  2  0  0  0  0
 36 89  1  0  0  0  0
 37 38  1  0  0  0  0
 37 90  1  0  0  0  0
 38 39  2  0  0  0  0
 38 41  1  0  0  0  0
 39 40  1  0  0  0  0
 39 91  1  0  0  0  0
 41 42  1  0  0  0  0
 41 43  1  0  0  0  0
 41 92  1  0  0  0  0
 42 93  1  0  0  0  0
 42 94  1  0  0  0  0
 42 95  1  0  0  0  0
 43 96  1  0  0  0  0
 43 97  1  0  0  0  0
 43 98  1  0  0  0  0
M  END
>  <s_m_source_file>
BACE_63.smi

>  <i_m_source_file_index>
1

>  <i_lp_mmshare_version>
42013

>  <i_f3d_flags>
0

>  <s_epik_input>
W2NIXTFbY0hdYyhbQ0hdKFtDSDNdKVtDSDNdKVtjSF1jKGMxMilbQ0BIXShbQ0gyXUMoTzIpKFtDSDNdKVtDSDNdKVtOSF1bQ0gyXVtDQEBIXShbT0hdKVtDQEBIXShbTkhdQyg9TyljKFtjSF0zKVtjSF1jKFtjSF1jMzQpW0NIMl1PW0NIM10pW0NIMl1bQ0BIXShbQ0gzXSlbQ0gyXVtDSDJdW0NIMl1bQ0gyXVtDSDJdW0NIMl1bQ0gyXVtOSF00

>  <s_epik_cmdline>
J2VwaWtfcHl0aG9uJywgJy1waCcsICc3LjAnLCAnLXRuJywgJzgnLCAnLW1hJywgJzIwMCcsICctaW1hZScsICc8aW5maWxlLm1hZT4nLCAnLW9tYWUnLCAnPG91dGZpbGUubWFlPic=

>  <r_lp_tautomer_probability>
1

>  <r_epik_Ionization_Penalty>
2.1118

>  <r_epik_Ionization_Penalty_Charging>
0.0000

>  <r_epik_Ionization_Penalty_Neutral>
2.1118

>  <r_epik_State_Penalty>
2.2481

>  <r_epik_Charging_Adjusted_Penalty>
2.24811

>  <i_epik_Tot_Q>
0

>  <i_epik_Tot_abs_Q>
0

>  <s_lp_Force_Field>
OPLS_2005

>  <r_lp_Energy>
51.1507

>  <b_lp_Chiralities_Consistent>
1

>  <s_lp_Variant>
BACE_63.smi:1-2

>  <chiral flag>
1

>  <version>
0

>  <s_i_glide_gridfile>
second_dock_grid_2

>  <i_i_glide_lignum>
126

>  <i_i_glide_rotatable_bonds>
8

>  <r_i_docking_score>
-2.57204

>  <r_i_glide_ligand_efficiency>
-0.0598149

>  <r_i_glide_ligand_efficiency_sa>
-0.209555

>  <r_i_glide_ligand_efficiency_ln>
-0.540209

>  <r_glide_XP_GScore>
-4.82014

>  <r_i_glide_gscore>
-4.82014

>  <r_i_glide_evdw>
-40.5272

>  <r_i_glide_ecoul>
-11.2828

>  <r_i_glide_energy>
-51.81

>  <r_i_glide_einternal>
5.79756

>  <r_i_glide_emodel>
-68.4404

>  <r_glide_XP_HBond>
-1.51152

>  <i_i_glide_confnum>
1

>  <i_i_glide_posenum>
11

>  <r_i_glide_eff_state_penalty>
2.2481

>  <i_glide_XP_PoseRank>
1

$$$$
