BACE_134.smi:1
 OpenBabel09291822493D
Structure written by MMmdl.
 80 83  0  0  1  0  0  0  0  0999 V2000
   21.9746   49.0334   -5.0013 C   0  0  0  0  0  0  0  0  0  0  0  0
   22.8852   48.1134   -5.5777 O   0  0  0  0  0  0  0  0  0  0  0  0
   23.8669   47.5737   -4.8271 C   0  0  0  0  0  0  0  0  0  0  0  0
   24.0161   47.7976   -3.6243 O   0  0  0  0  0  0  0  0  0  0  0  0
   24.7758   46.7123   -5.6293 C   0  0  0  0  0  0  0  0  0  0  0  0
   26.1297   46.5753   -5.2503 C   0  0  0  0  0  0  0  0  0  0  0  0
   27.0298   45.8113   -6.0211 C   0  0  0  0  0  0  0  0  0  0  0  0
   26.5395   45.1194   -7.1535 C   0  0  0  0  0  0  0  0  0  0  0  0
   25.1854   45.2296   -7.5381 C   0  0  0  0  0  0  0  0  0  0  0  0
   24.3136   46.0408   -6.7826 C   0  0  0  0  0  0  0  0  0  0  0  0
   24.6894   44.5533   -8.7815 C   0  0  0  0  0  0  0  0  0  0  0  0
   23.8142   45.0694   -9.4767 O   0  0  0  0  0  0  0  0  0  0  0  0
   25.2422   43.3591   -9.0441 N   0  0  0  0  0  0  0  0  0  0  0  0
   24.9947   42.5604  -10.2428 C   0  0  1  0  0  0  0  0  0  0  0  0
   26.3054   41.8831  -10.7037 C   0  0  0  0  0  0  0  0  0  0  0  0
   27.4483   42.8641  -10.9231 C   0  0  0  0  0  0  0  0  0  0  0  0
   28.4710   43.0005   -9.9608 C   0  0  0  0  0  0  0  0  0  0  0  0
   29.5320   43.9106  -10.1588 C   0  0  0  0  0  0  0  0  0  0  0  0
   30.6563   44.0224   -9.1384 C   0  0  0  0  0  0  0  0  0  0  0  0
   30.8445   45.4250   -8.5213 C   0  0  0  0  0  0  0  0  0  0  0  0
   29.6490   45.9760   -7.7206 C   0  0  0  0  0  0  0  0  0  0  0  0
   29.3306   45.1727   -6.4427 C   0  0  0  0  0  0  0  0  0  0  0  0
   28.3511   45.8035   -5.6223 O   0  0  0  0  0  0  0  0  0  0  0  0
   29.5623   44.6873  -11.3354 C   0  0  0  0  0  0  0  0  0  0  0  0
   28.5418   44.5588  -12.2987 C   0  0  0  0  0  0  0  0  0  0  0  0
   27.4868   43.6492  -12.0929 C   0  0  0  0  0  0  0  0  0  0  0  0
   23.8319   41.5325  -10.0873 C   0  0  2  0  0  0  0  0  0  0  0  0
   22.8602   41.8393  -11.0678 O   0  0  0  0  0  0  0  0  0  0  0  0
   23.1002   41.4062   -8.7179 C   0  0  0  0  0  0  0  0  0  0  0  0
   23.3352   40.0912   -8.1048 N   0  0  0  0  0  0  0  0  0  0  0  0
   22.1500   39.4664   -7.5007 C   0  0  0  0  0  0  0  0  0  0  0  0
   21.0258   39.0978   -8.4705 C   0  0  0  0  0  0  0  0  0  0  0  0
   19.7807   38.6849   -7.9465 C   0  0  0  0  0  0  0  0  0  0  0  0
   18.6999   38.3839   -8.8066 C   0  0  0  0  0  0  0  0  0  0  0  0
   18.8579   38.5461  -10.1977 C   0  0  0  0  0  0  0  0  0  0  0  0
   20.0944   38.9389  -10.7325 C   0  0  0  0  0  0  0  0  0  0  0  0
   21.1830   39.1706   -9.8751 C   0  0  0  0  0  0  0  0  0  0  0  0
   17.3767   37.8830   -8.2450 C   0  0  0  0  0  0  0  0  0  0  0  0
   17.0035   36.5143   -8.8420 C   0  0  0  0  0  0  0  0  0  0  0  0
   16.2504   38.9093   -8.4354 C   0  0  0  0  0  0  0  0  0  0  0  0
   24.7374   43.2584  -11.0426 H   0  0  0  0  0  0  0  0  0  0  0  0
   24.2044   40.5500  -10.3776 H   0  0  0  0  0  0  0  0  0  0  0  0
   21.4159   49.5404   -5.7884 H   0  0  0  0  0  0  0  0  0  0  0  0
   22.4894   49.7953   -4.4107 H   0  0  0  0  0  0  0  0  0  0  0  0
   21.2600   48.5181   -4.3624 H   0  0  0  0  0  0  0  0  0  0  0  0
   26.4995   47.0930   -4.3775 H   0  0  0  0  0  0  0  0  0  0  0  0
   27.1978   44.5187   -7.7597 H   0  0  0  0  0  0  0  0  0  0  0  0
   23.2818   46.1374   -7.0926 H   0  0  0  0  0  0  0  0  0  0  0  0
   25.9205   43.0052   -8.3876 H   0  0  0  0  0  0  0  0  0  0  0  0
   26.6109   41.1247   -9.9820 H   0  0  0  0  0  0  0  0  0  0  0  0
   26.1352   41.3502  -11.6400 H   0  0  0  0  0  0  0  0  0  0  0  0
   28.4370   42.3979   -9.0683 H   0  0  0  0  0  0  0  0  0  0  0  0
   30.5087   43.2908   -8.3475 H   0  0  0  0  0  0  0  0  0  0  0  0
   31.5802   43.7279   -9.6377 H   0  0  0  0  0  0  0  0  0  0  0  0
   31.7207   45.4054   -7.8719 H   0  0  0  0  0  0  0  0  0  0  0  0
   31.0891   46.1334   -9.3140 H   0  0  0  0  0  0  0  0  0  0  0  0
   29.8777   47.0018   -7.4262 H   0  0  0  0  0  0  0  0  0  0  0  0
   28.7785   46.0436   -8.3719 H   0  0  0  0  0  0  0  0  0  0  0  0
   29.0395   44.1500   -6.6663 H   0  0  0  0  0  0  0  0  0  0  0  0
   30.2373   45.0909   -5.8427 H   0  0  0  0  0  0  0  0  0  0  0  0
   30.3732   45.3795  -11.5105 H   0  0  0  0  0  0  0  0  0  0  0  0
   28.5703   45.1561  -13.1979 H   0  0  0  0  0  0  0  0  0  0  0  0
   26.7086   43.5550  -12.8360 H   0  0  0  0  0  0  0  0  0  0  0  0
   23.1975   41.5477  -11.9080 H   0  0  0  0  0  0  0  0  0  0  0  0
   23.3663   42.1866   -8.0122 H   0  0  0  0  0  0  0  0  0  0  0  0
   22.0335   41.5569   -8.8765 H   0  0  0  0  0  0  0  0  0  0  0  0
   23.7387   39.4509   -8.7892 H   0  0  0  0  0  0  0  0  0  0  0  0
   22.4474   38.5525   -6.9856 H   0  0  0  0  0  0  0  0  0  0  0  0
   21.7391   40.1251   -6.7352 H   0  0  0  0  0  0  0  0  0  0  0  0
   19.6547   38.5968   -6.8773 H   0  0  0  0  0  0  0  0  0  0  0  0
   18.0338   38.3456  -10.8634 H   0  0  0  0  0  0  0  0  0  0  0  0
   20.2156   39.0316  -11.8017 H   0  0  0  0  0  0  0  0  0  0  0  0
   22.1291   39.4306  -10.3182 H   0  0  0  0  0  0  0  0  0  0  0  0
   17.5038   37.7496   -7.1707 H   0  0  0  0  0  0  0  0  0  0  0  0
   17.7612   35.7664   -8.6159 H   0  0  0  0  0  0  0  0  0  0  0  0
   16.8866   36.5551   -9.9251 H   0  0  0  0  0  0  0  0  0  0  0  0
   16.0604   36.1535   -8.4394 H   0  0  0  0  0  0  0  0  0  0  0  0
   16.5061   39.8627   -7.9718 H   0  0  0  0  0  0  0  0  0  0  0  0
   15.3250   38.5607   -7.9714 H   0  0  0  0  0  0  0  0  0  0  0  0
   16.0463   39.0937   -9.4901 H   0  0  0  0  0  0  0  0  0  0  0  0
  1  2  1  0  0  0  0
  1 43  1  0  0  0  0
  1 44  1  0  0  0  0
  1 45  1  0  0  0  0
  2  3  1  0  0  0  0
  3  4  2  0  0  0  0
  3  5  1  0  0  0  0
  5 10  1  0  0  0  0
  5  6  2  0  0  0  0
  6  7  1  0  0  0  0
  6 46  1  0  0  0  0
  7 23  1  0  0  0  0
  7  8  2  0  0  0  0
  8  9  1  0  0  0  0
  8 47  1  0  0  0  0
  9 10  2  0  0  0  0
  9 11  1  0  0  0  0
 10 48  1  0  0  0  0
 11 12  2  0  0  0  0
 11 13  1  0  0  0  0
 13 14  1  0  0  0  0
 13 49  1  0  0  0  0
 14 41  1  6  0  0  0
 14 15  1  0  0  0  0
 14 27  1  0  0  0  0
 15 16  1  0  0  0  0
 15 50  1  0  0  0  0
 15 51  1  0  0  0  0
 16 26  1  0  0  0  0
 16 17  2  0  0  0  0
 17 18  1  0  0  0  0
 17 52  1  0  0  0  0
 18 19  1  0  0  0  0
 18 24  2  0  0  0  0
 19 20  1  0  0  0  0
 19 53  1  0  0  0  0
 19 54  1  0  0  0  0
 20 21  1  0  0  0  0
 20 55  1  0  0  0  0
 20 56  1  0  0  0  0
 21 22  1  0  0  0  0
 21 57  1  0  0  0  0
 21 58  1  0  0  0  0
 22 23  1  0  0  0  0
 22 59  1  0  0  0  0
 22 60  1  0  0  0  0
 24 25  1  0  0  0  0
 24 61  1  0  0  0  0
 25 26  2  0  0  0  0
 25 62  1  0  0  0  0
 26 63  1  0  0  0  0
 27 42  1  6  0  0  0
 27 28  1  0  0  0  0
 27 29  1  0  0  0  0
 28 64  1  0  0  0  0
 29 30  1  0  0  0  0
 29 65  1  0  0  0  0
 29 66  1  0  0  0  0
 30 31  1  0  0  0  0
 30 67  1  0  0  0  0
 31 32  1  0  0  0  0
 31 68  1  0  0  0  0
 31 69  1  0  0  0  0
 32 37  1  0  0  0  0
 32 33  2  0  0  0  0
 33 34  1  0  0  0  0
 33 70  1  0  0  0  0
 34 35  2  0  0  0  0
 34 38  1  0  0  0  0
 35 36  1  0  0  0  0
 35 71  1  0  0  0  0
 36 37  2  0  0  0  0
 36 72  1  0  0  0  0
 37 73  1  0  0  0  0
 38 39  1  0  0  0  0
 38 40  1  0  0  0  0
 38 74  1  0  0  0  0
 39 75  1  0  0  0  0
 39 76  1  0  0  0  0
 39 77  1  0  0  0  0
 40 78  1  0  0  0  0
 40 79  1  0  0  0  0
 40 80  1  0  0  0  0
M  END
>  <s_m_source_file>
BACE_134.smi

>  <i_m_source_file_index>
1

>  <i_lp_mmshare_version>
42013

>  <i_f3d_flags>
0

>  <s_epik_input>
TzFbQ0gyXVtDSDJdW0NIMl1bQ0gyXWMoW2NIXVtjSF1bY0hdMilbY0hdYzJbQ0gyXVtDQEhdKFtOSF1DKD1PKWMoW2NIXTMpW2NIXWMoW2NIXWMxMylDKD1PKU9bQ0gzXSlbQ0BIXShbT0hdKVtDSDJdW05IXVtDSDJdYzRbY0hdYyhbQ0hdKFtDSDNdKVtDSDNdKVtjSF1bY0hdW2NIXTQ=

>  <s_epik_cmdline>
J2VwaWtfcHl0aG9uJywgJy1waCcsICc3LjAnLCAnLXRuJywgJzgnLCAnLW1hJywgJzIwMCcsICctaW1hZScsICc8aW5maWxlLm1hZT4nLCAnLW9tYWUnLCAnPG91dGZpbGUubWFlPic=

>  <r_epik_Ionization_Penalty>
2.0439

>  <r_epik_Ionization_Penalty_Charging>
0.0000

>  <r_epik_Ionization_Penalty_Neutral>
2.0439

>  <r_epik_State_Penalty>
2.1759

>  <r_epik_Charging_Adjusted_Penalty>
2.17586

>  <i_epik_Tot_Q>
0

>  <i_epik_Tot_abs_Q>
0

>  <s_epik_Chemistry_Notes>
This compound has an ester and may undergo hydrolysis at high or low pH.

>  <s_lp_Force_Field>
OPLS_2005

>  <r_lp_Energy>
36.8575

>  <b_lp_Chiralities_Consistent>
1

>  <s_lp_Variant>
BACE_134.smi:1-2

>  <chiral flag>
1

>  <version>
0

>  <s_i_glide_gridfile>
second_dock_grid_2

>  <i_i_glide_lignum>
276

>  <i_i_glide_rotatable_bonds>
9

>  <r_i_docking_score>
-0.93454

>  <r_i_glide_ligand_efficiency>
-0.0233635

>  <r_i_glide_ligand_efficiency_sa>
-0.0799021

>  <r_i_glide_ligand_efficiency_ln>
-0.19931

>  <r_glide_XP_GScore>
-3.11044

>  <r_i_glide_gscore>
-3.11044

>  <r_i_glide_evdw>
-39.9194

>  <r_i_glide_ecoul>
-6.7504

>  <r_i_glide_energy>
-46.6698

>  <r_i_glide_einternal>
6.16982

>  <r_i_glide_emodel>
-68.8308

>  <r_glide_XP_HBond>
-1.33

>  <i_i_glide_confnum>
1

>  <i_i_glide_posenum>
1

>  <r_i_glide_eff_state_penalty>
2.1759

>  <i_glide_XP_PoseRank>
1

$$$$
