BACE_128.smi:1
 OpenBabel09291822493D
Structure written by MMmdl.
 95 99  0  0  1  0  0  0  0  0999 V2000
   13.6325   44.4079   -8.0718 C   0  0  0  0  0  0  0  0  0  0  0  0
   14.6910   45.3512   -7.9609 O   0  0  0  0  0  0  0  0  0  0  0  0
   15.5268   45.4909   -9.1103 C   0  0  0  0  0  0  0  0  0  0  0  0
   16.3516   44.2626   -9.4478 C   0  0  0  0  0  0  0  0  0  0  0  0
   15.7300   43.1786  -10.0913 C   0  0  0  0  0  0  0  0  0  0  0  0
   16.4464   42.0096  -10.3829 C   0  0  0  0  0  0  0  0  0  0  0  0
   17.8301   41.9570  -10.0978 C   0  0  0  0  0  0  0  0  0  0  0  0
   18.4875   43.0653   -9.5093 C   0  0  0  0  0  0  0  0  0  0  0  0
   17.7296   44.2064   -9.1594 C   0  0  0  0  0  0  0  0  0  0  0  0
   19.9650   43.0314   -9.2224 C   0  0  0  0  0  0  0  0  0  0  0  0
   20.4455   43.6497   -8.2725 O   0  0  0  0  0  0  0  0  0  0  0  0
   20.7051   42.3540  -10.1125 N   0  0  0  0  0  0  0  0  0  0  0  0
   22.1537   42.1233  -10.0699 C   0  0  1  0  0  0  0  0  0  0  0  0
   22.4319   40.5973  -10.1741 C   0  0  0  0  0  0  0  0  0  0  0  0
   21.6377   39.8074   -9.1548 C   0  0  0  0  0  0  0  0  0  0  0  0
   20.4212   39.1999   -9.5262 C   0  0  0  0  0  0  0  0  0  0  0  0
   19.5972   38.5919   -8.5612 C   0  0  0  0  0  0  0  0  0  0  0  0
   20.0391   38.5500   -7.2154 C   0  0  0  0  0  0  0  0  0  0  0  0
   21.2763   39.1144   -6.8500 C   0  0  0  0  0  0  0  0  0  0  0  0
   22.0749   39.7479   -7.8170 C   0  0  0  0  0  0  0  0  0  0  0  0
   18.3929   38.0932   -9.0030 O   0  0  0  0  0  0  0  0  0  0  0  0
   17.4046   37.7826   -8.0312 C   0  0  0  0  0  0  0  0  0  0  0  0
   16.0076   37.8481   -8.6660 C   0  0  0  0  0  0  0  0  0  0  0  0
   15.6084   39.2624   -9.1218 C   0  0  0  0  0  0  0  0  0  0  0  0
   16.0757   39.5979  -10.5461 C   0  0  0  0  0  0  0  0  0  0  0  0
   15.7195   40.9510  -10.9389 N   0  0  0  0  0  0  0  0  0  0  0  0
   22.8193   43.0079  -11.1567 C   0  0  2  0  0  0  0  0  0  0  0  0
   22.4674   42.5500  -12.4398 O   0  0  0  0  0  0  0  0  0  0  0  0
   24.3454   43.2762  -11.0594 C   0  0  0  0  0  0  0  0  0  0  0  0
   25.1592   42.0993  -10.6547 N   0  3  0  0  0  0  0  0  0  0  0  0
   26.6342   42.2687  -10.5226 C   0  0  1  0  0  0  0  0  0  0  0  0
   27.3443   41.9534  -11.8490 C   0  0  0  0  0  0  0  0  0  0  0  0
   28.7946   42.4839  -11.8879 C   0  0  0  0  0  0  0  0  0  0  0  0
   29.7223   41.8555  -10.8244 C   0  0  0  0  0  0  0  0  0  0  0  0
   29.4081   42.2512  -13.2749 C   0  0  0  0  0  0  0  0  0  0  0  0
   28.7621   43.8982  -11.7007 O   0  0  0  0  0  0  0  0  0  0  0  0
   28.0886   44.3629  -10.5913 C   0  0  0  0  0  0  0  0  0  0  0  0
   28.4535   45.6212  -10.0773 C   0  0  0  0  0  0  0  0  0  0  0  0
   27.8469   46.1228   -8.9109 C   0  0  0  0  0  0  0  0  0  0  0  0
   26.8644   45.3634   -8.2389 C   0  0  0  0  0  0  0  0  0  0  0  0
   26.5050   44.0987   -8.7492 C   0  0  0  0  0  0  0  0  0  0  0  0
   27.0759   43.6115   -9.9446 C   0  0  0  0  0  0  0  0  0  0  0  0
   26.1827   45.8674   -6.9729 C   0  0  0  0  0  0  0  0  0  0  0  0
   26.9432   45.4036   -5.7247 C   0  0  0  0  0  0  0  0  0  0  0  0
   25.9500   47.3896   -6.9619 C   0  0  0  0  0  0  0  0  0  0  0  0
   22.5240   42.4586   -9.0989 H   0  0  0  0  0  0  0  0  0  0  0  0
   22.3569   43.9943  -11.0910 H   0  0  0  0  0  0  0  0  0  0  0  0
   26.9636   41.5119   -9.8080 H   0  0  0  0  0  0  0  0  0  0  0  0
   12.9410   44.5285   -7.2402 H   0  0  0  0  0  0  0  0  0  0  0  0
   14.0008   43.3829   -8.0317 H   0  0  0  0  0  0  0  0  0  0  0  0
   13.0635   44.5464   -8.9912 H   0  0  0  0  0  0  0  0  0  0  0  0
   16.1944   46.3352   -8.9388 H   0  0  0  0  0  0  0  0  0  0  0  0
   14.9255   45.7495   -9.9815 H   0  0  0  0  0  0  0  0  0  0  0  0
   14.6795   43.2293  -10.3324 H   0  0  0  0  0  0  0  0  0  0  0  0
   18.3929   41.0673  -10.3316 H   0  0  0  0  0  0  0  0  0  0  0  0
   18.2106   45.0475   -8.6820 H   0  0  0  0  0  0  0  0  0  0  0  0
   20.2153   41.9292  -10.8857 H   0  0  0  0  0  0  0  0  0  0  0  0
   22.1834   40.2296  -11.1707 H   0  0  0  0  0  0  0  0  0  0  0  0
   23.4787   40.3541  -10.0141 H   0  0  0  0  0  0  0  0  0  0  0  0
   20.0817   39.2493  -10.5499 H   0  0  0  0  0  0  0  0  0  0  0  0
   19.4474   38.0803   -6.4432 H   0  0  0  0  0  0  0  0  0  0  0  0
   21.6034   39.0748   -5.8211 H   0  0  0  0  0  0  0  0  0  0  0  0
   23.0063   40.2071   -7.5236 H   0  0  0  0  0  0  0  0  0  0  0  0
   17.6109   36.7857   -7.6404 H   0  0  0  0  0  0  0  0  0  0  0  0
   17.4191   38.4781   -7.1905 H   0  0  0  0  0  0  0  0  0  0  0  0
   15.9148   37.1312   -9.4844 H   0  0  0  0  0  0  0  0  0  0  0  0
   15.2930   37.5399   -7.9051 H   0  0  0  0  0  0  0  0  0  0  0  0
   14.5196   39.3441   -9.0891 H   0  0  0  0  0  0  0  0  0  0  0  0
   15.9838   39.9951   -8.4069 H   0  0  0  0  0  0  0  0  0  0  0  0
   17.1384   39.4059  -10.6887 H   0  0  0  0  0  0  0  0  0  0  0  0
   15.5542   38.9457  -11.2393 H   0  0  0  0  0  0  0  0  0  0  0  0
   14.7202   41.0932  -10.8897 H   0  0  0  0  0  0  0  0  0  0  0  0
   23.0059   41.8035  -12.6839 H   0  0  0  0  0  0  0  0  0  0  0  0
   24.4692   44.0712  -10.3274 H   0  0  0  0  0  0  0  0  0  0  0  0
   24.7206   43.6765  -12.0029 H   0  0  0  0  0  0  0  0  0  0  0  0
   24.9883   41.3496  -11.3145 H   0  0  0  0  0  0  0  0  0  0  0  0
   27.3157   40.8798  -12.0397 H   0  0  0  0  0  0  0  0  0  0  0  0
   26.7993   42.4278  -12.6670 H   0  0  0  0  0  0  0  0  0  0  0  0
   29.7213   40.7681  -10.8927 H   0  0  0  0  0  0  0  0  0  0  0  0
   29.4378   42.1473   -9.8125 H   0  0  0  0  0  0  0  0  0  0  0  0
   30.7516   42.1907  -10.9612 H   0  0  0  0  0  0  0  0  0  0  0  0
   29.4065   41.1940  -13.5445 H   0  0  0  0  0  0  0  0  0  0  0  0
   30.4412   42.5988  -13.3169 H   0  0  0  0  0  0  0  0  0  0  0  0
   28.8594   42.7937  -14.0407 H   0  0  0  0  0  0  0  0  0  0  0  0
   29.2197   46.2006  -10.5727 H   0  0  0  0  0  0  0  0  0  0  0  0
   28.1579   47.0842   -8.5311 H   0  0  0  0  0  0  0  0  0  0  0  0
   25.7592   43.5147   -8.2288 H   0  0  0  0  0  0  0  0  0  0  0  0
   25.1930   45.4066   -6.9398 H   0  0  0  0  0  0  0  0  0  0  0  0
   27.0212   44.3159   -5.6882 H   0  0  0  0  0  0  0  0  0  0  0  0
   26.4233   45.7255   -4.8249 H   0  0  0  0  0  0  0  0  0  0  0  0
   27.9545   45.8130   -5.6947 H   0  0  0  0  0  0  0  0  0  0  0  0
   25.4177   47.7125   -7.8583 H   0  0  0  0  0  0  0  0  0  0  0  0
   26.8886   47.9440   -6.9028 H   0  0  0  0  0  0  0  0  0  0  0  0
   25.3491   47.6831   -6.0995 H   0  0  0  0  0  0  0  0  0  0  0  0
   24.8221   41.8018   -9.7517 H   0  0  0  0  0  0  0  0  0  0  0  0
  1  2  1  0  0  0  0
  1 49  1  0  0  0  0
  1 50  1  0  0  0  0
  1 51  1  0  0  0  0
  2  3  1  0  0  0  0
  3  4  1  0  0  0  0
  3 52  1  0  0  0  0
  3 53  1  0  0  0  0
  4  9  1  0  0  0  0
  4  5  2  0  0  0  0
  5  6  1  0  0  0  0
  5 54  1  0  0  0  0
  6 26  1  0  0  0  0
  6  7  2  0  0  0  0
  7  8  1  0  0  0  0
  7 55  1  0  0  0  0
  8  9  2  0  0  0  0
  8 10  1  0  0  0  0
  9 56  1  0  0  0  0
 10 11  2  0  0  0  0
 10 12  1  0  0  0  0
 12 13  1  0  0  0  0
 12 57  1  0  0  0  0
 13 46  1  1  0  0  0
 13 14  1  0  0  0  0
 13 27  1  0  0  0  0
 14 15  1  0  0  0  0
 14 58  1  0  0  0  0
 14 59  1  0  0  0  0
 15 20  1  0  0  0  0
 15 16  2  0  0  0  0
 16 17  1  0  0  0  0
 16 60  1  0  0  0  0
 17 18  2  0  0  0  0
 17 21  1  0  0  0  0
 18 19  1  0  0  0  0
 18 61  1  0  0  0  0
 19 20  2  0  0  0  0
 19 62  1  0  0  0  0
 20 63  1  0  0  0  0
 21 22  1  0  0  0  0
 22 23  1  0  0  0  0
 22 64  1  0  0  0  0
 22 65  1  0  0  0  0
 23 24  1  0  0  0  0
 23 66  1  0  0  0  0
 23 67  1  0  0  0  0
 24 25  1  0  0  0  0
 24 68  1  0  0  0  0
 24 69  1  0  0  0  0
 25 26  1  0  0  0  0
 25 70  1  0  0  0  0
 25 71  1  0  0  0  0
 26 72  1  0  0  0  0
 27 47  1  1  0  0  0
 27 28  1  0  0  0  0
 27 29  1  0  0  0  0
 28 73  1  0  0  0  0
 29 30  1  0  0  0  0
 29 74  1  0  0  0  0
 29 75  1  0  0  0  0
 30 31  1  0  0  0  0
 30 76  1  0  0  0  0
 30 95  1  0  0  0  0
 31 48  1  1  0  0  0
 31 42  1  0  0  0  0
 31 32  1  0  0  0  0
 32 33  1  0  0  0  0
 32 77  1  0  0  0  0
 32 78  1  0  0  0  0
 33 34  1  0  0  0  0
 33 35  1  0  0  0  0
 33 36  1  0  0  0  0
 34 79  1  0  0  0  0
 34 80  1  0  0  0  0
 34 81  1  0  0  0  0
 35 82  1  0  0  0  0
 35 83  1  0  0  0  0
 35 84  1  0  0  0  0
 36 37  1  0  0  0  0
 37 42  2  0  0  0  0
 37 38  1  0  0  0  0
 38 39  2  0  0  0  0
 38 85  1  0  0  0  0
 39 40  1  0  0  0  0
 39 86  1  0  0  0  0
 40 41  2  0  0  0  0
 40 43  1  0  0  0  0
 41 42  1  0  0  0  0
 41 87  1  0  0  0  0
 43 44  1  0  0  0  0
 43 45  1  0  0  0  0
 43 88  1  0  0  0  0
 44 89  1  0  0  0  0
 44 90  1  0  0  0  0
 44 91  1  0  0  0  0
 45 92  1  0  0  0  0
 45 93  1  0  0  0  0
 45 94  1  0  0  0  0
M  CHG  1  30   1
M  END
>  <s_m_source_file>
BACE_128.smi

>  <i_m_source_file_index>
1

>  <i_lp_mmshare_version>
42013

>  <i_f3d_flags>
0

>  <s_epik_input>
W2NIXTFbY0hdYyhbQ0hdKFtDSDNdKVtDSDNdKVtjSF1jKGMxMilbQ0BIXShbQ0gyXUMoTzIpKFtDSDNdKVtDSDNdKVtOSF1bQ0gyXVtDQEBIXShbT0hdKVtDQEBIXShbTkhdQyg9TyljKFtjSF0zKVtjSF1jKFtjSF1jMzQpW0NIMl1PW0NIM10pW0NIMl1jNVtjSF1jKFtjSF1bY0hdW2NIXTUpT1tDSDJdW0NIMl1bQ0gyXVtDSDJdW05IXTQ=

>  <s_epik_cmdline>
J2VwaWtfcHl0aG9uJywgJy1waCcsICc3LjAnLCAnLXRuJywgJzgnLCAnLW1hJywgJzIwMCcsICctaW1hZScsICc8aW5maWxlLm1hZT4nLCAnLW9tYWUnLCAnPG91dGZpbGUubWFlPic=

>  <r_lp_tautomer_probability>
1

>  <r_epik_Ionization_Penalty>
0.0201

>  <r_epik_Ionization_Penalty_Charging>
0.0197

>  <r_epik_Ionization_Penalty_Neutral>
0.0003

>  <r_epik_State_Penalty>
0.0158

>  <r_epik_Charging_Adjusted_Penalty>
0.0354898

>  <i_epik_Tot_Q>
1

>  <i_epik_Tot_abs_Q>
1

>  <s_lp_Force_Field>
OPLS_2005

>  <r_lp_Energy>
42.809

>  <b_lp_Chiralities_Consistent>
1

>  <s_lp_Variant>
BACE_128.smi:1-1

>  <chiral flag>
1

>  <version>
0

>  <s_i_glide_gridfile>
second_dock_grid_2

>  <i_i_glide_lignum>
262

>  <i_i_glide_rotatable_bonds>
8

>  <r_i_docking_score>
-2.41384

>  <r_i_glide_ligand_efficiency>
-0.0536409

>  <r_i_glide_ligand_efficiency_sa>
-0.190795

>  <r_i_glide_ligand_efficiency_ln>
-0.502186

>  <r_glide_XP_GScore>
-2.42964

>  <r_i_glide_gscore>
-2.42964

>  <r_i_glide_evdw>
-41.9712

>  <r_i_glide_ecoul>
-11.7844

>  <r_i_glide_energy>
-53.7556

>  <r_i_glide_einternal>
6.36439

>  <r_i_glide_emodel>
-71.1874

>  <r_glide_XP_HBond>
-0.7

>  <i_i_glide_confnum>
1

>  <i_i_glide_posenum>
6

>  <r_i_glide_eff_state_penalty>
0.0158

>  <i_glide_XP_PoseRank>
1

$$$$
