BACE_100.smi:1
 OpenBabel09291822493D
Structure written by MMmdl.
 79 82  0  0  1  0  0  0  0  0999 V2000
   31.1342   42.9141  -11.0801 C   0  0  0  0  0  0  0  0  0  0  0  0
   30.1395   42.1788  -10.3822 O   0  0  0  0  0  0  0  0  0  0  0  0
   28.8217   42.5654  -10.5184 C   0  0  0  0  0  0  0  0  0  0  0  0
   27.8708   41.8444  -11.2810 C   0  0  0  0  0  0  0  0  0  0  0  0
   26.5473   42.3027  -11.3884 C   0  0  0  0  0  0  0  0  0  0  0  0
   26.1445   43.4793  -10.7284 C   0  0  0  0  0  0  0  0  0  0  0  0
   24.7132   43.9790  -10.8884 C   0  0  0  0  0  0  0  0  0  0  0  0
   23.7290   43.5966   -9.7513 C   0  0  2  0  0  0  0  0  0  0  0  0
   23.8799   44.5258   -8.6317 N   0  0  0  0  0  0  0  0  0  0  0  0
   23.2081   45.6801   -8.4727 C   0  0  0  0  0  0  0  0  0  0  0  0
   22.3777   46.1010   -9.2786 O   0  0  0  0  0  0  0  0  0  0  0  0
   23.4881   46.4253   -7.1976 C   0  0  0  0  0  0  0  0  0  0  0  0
   22.5479   47.3370   -6.6724 C   0  0  0  0  0  0  0  0  0  0  0  0
   22.8675   48.0451   -5.4964 C   0  0  0  0  0  0  0  0  0  0  0  0
   21.7147   49.1558   -4.8545 Cl  0  0  0  0  0  0  0  0  0  0  0  0
   24.0444   47.8964   -4.8497 N   0  0  0  0  0  0  0  0  0  0  0  0
   24.9554   47.0323   -5.3452 C   0  0  0  0  0  0  0  0  0  0  0  0
   24.7133   46.2722   -6.5144 C   0  0  0  0  0  0  0  0  0  0  0  0
   26.1604   46.9516   -4.6287 N   0  0  0  0  0  0  0  0  0  0  0  0
   27.1789   45.9747   -4.9912 C   0  0  0  0  0  0  0  0  0  0  0  0
   27.9734   46.3870   -6.2454 C   0  0  0  0  0  0  0  0  0  0  0  0
   28.4790   45.1714   -7.0325 C   0  0  0  0  0  0  0  0  0  0  0  0
   29.1027   45.5625   -8.3812 C   0  0  0  0  0  0  0  0  0  0  0  0
   29.4192   44.4047   -9.1444 O   0  0  0  0  0  0  0  0  0  0  0  0
   28.4289   43.7498   -9.8531 C   0  0  0  0  0  0  0  0  0  0  0  0
   27.0838   44.1968   -9.9577 C   0  0  0  0  0  0  0  0  0  0  0  0
   23.8410   42.1312   -9.2542 C   0  0  2  0  0  0  0  0  0  0  0  0
   23.4543   41.2796  -10.3158 O   0  0  0  0  0  0  0  0  0  0  0  0
   22.9132   41.8094   -8.0629 C   0  0  0  0  0  0  0  0  0  0  0  0
   22.9898   40.3957   -7.6993 N   0  0  0  0  0  0  0  0  0  0  0  0
   22.0227   39.9840   -6.6847 C   0  0  0  0  0  0  0  0  0  0  0  0
   21.4748   41.1486   -5.8805 C   0  0  0  0  0  0  0  0  0  0  0  0
   21.5219   41.1211   -4.4706 C   0  0  0  0  0  0  0  0  0  0  0  0
   21.0099   42.1982   -3.7154 C   0  0  0  0  0  0  0  0  0  0  0  0
   20.4526   43.3095   -4.3857 C   0  0  0  0  0  0  0  0  0  0  0  0
   20.4055   43.3408   -5.7926 C   0  0  0  0  0  0  0  0  0  0  0  0
   20.9152   42.2622   -6.5397 C   0  0  0  0  0  0  0  0  0  0  0  0
   21.0620   42.1546   -2.1934 C   0  0  0  0  0  0  0  0  0  0  0  0
   19.7087   42.5263   -1.5670 C   0  0  0  0  0  0  0  0  0  0  0  0
   22.2008   43.0262   -1.6420 C   0  0  0  0  0  0  0  0  0  0  0  0
   22.7183   43.7253  -10.1445 H   0  0  0  0  0  0  0  0  0  0  0  0
   24.8737   41.9153   -8.9770 H   0  0  0  0  0  0  0  0  0  0  0  0
   32.1140   42.4898  -10.8614 H   0  0  0  0  0  0  0  0  0  0  0  0
   31.1514   43.9590  -10.7675 H   0  0  0  0  0  0  0  0  0  0  0  0
   30.9862   42.8609  -12.1595 H   0  0  0  0  0  0  0  0  0  0  0  0
   28.1333   40.9368  -11.8024 H   0  0  0  0  0  0  0  0  0  0  0  0
   25.8403   41.7446  -11.9849 H   0  0  0  0  0  0  0  0  0  0  0  0
   24.7290   45.0604  -11.0313 H   0  0  0  0  0  0  0  0  0  0  0  0
   24.3274   43.5785  -11.8268 H   0  0  0  0  0  0  0  0  0  0  0  0
   24.5327   44.2610   -7.9085 H   0  0  0  0  0  0  0  0  0  0  0  0
   21.5965   47.4980   -7.1589 H   0  0  0  0  0  0  0  0  0  0  0  0
   25.4562   45.5924   -6.9005 H   0  0  0  0  0  0  0  0  0  0  0  0
   26.2819   47.5008   -3.7896 H   0  0  0  0  0  0  0  0  0  0  0  0
   27.8599   45.8437   -4.1501 H   0  0  0  0  0  0  0  0  0  0  0  0
   26.6957   45.0074   -5.1339 H   0  0  0  0  0  0  0  0  0  0  0  0
   27.3489   46.9841   -6.9105 H   0  0  0  0  0  0  0  0  0  0  0  0
   28.8041   47.0346   -5.9634 H   0  0  0  0  0  0  0  0  0  0  0  0
   29.2033   44.6144   -6.4370 H   0  0  0  0  0  0  0  0  0  0  0  0
   27.6439   44.4929   -7.2061 H   0  0  0  0  0  0  0  0  0  0  0  0
   28.4777   46.2573   -8.9426 H   0  0  0  0  0  0  0  0  0  0  0  0
   30.0339   46.0983   -8.1962 H   0  0  0  0  0  0  0  0  0  0  0  0
   26.7489   45.0955   -9.4634 H   0  0  0  0  0  0  0  0  0  0  0  0
   24.0618   41.3956  -11.0301 H   0  0  0  0  0  0  0  0  0  0  0  0
   23.2063   42.3977   -7.1938 H   0  0  0  0  0  0  0  0  0  0  0  0
   21.8866   42.0987   -8.2912 H   0  0  0  0  0  0  0  0  0  0  0  0
   22.8990   39.8130   -8.5251 H   0  0  0  0  0  0  0  0  0  0  0  0
   21.1757   39.5004   -7.1718 H   0  0  0  0  0  0  0  0  0  0  0  0
   22.4590   39.2361   -6.0211 H   0  0  0  0  0  0  0  0  0  0  0  0
   21.9520   40.2657   -3.9702 H   0  0  0  0  0  0  0  0  0  0  0  0
   20.0579   44.1430   -3.8236 H   0  0  0  0  0  0  0  0  0  0  0  0
   19.9770   44.1933   -6.2987 H   0  0  0  0  0  0  0  0  0  0  0  0
   20.8735   42.2917   -7.6186 H   0  0  0  0  0  0  0  0  0  0  0  0
   21.2765   41.1264   -1.8992 H   0  0  0  0  0  0  0  0  0  0  0  0
   18.9170   41.8695   -1.9281 H   0  0  0  0  0  0  0  0  0  0  0  0
   19.4233   43.5523   -1.8006 H   0  0  0  0  0  0  0  0  0  0  0  0
   19.7421   42.4341   -0.4813 H   0  0  0  0  0  0  0  0  0  0  0  0
   23.1636   42.7136   -2.0475 H   0  0  0  0  0  0  0  0  0  0  0  0
   22.2611   42.9499   -0.5563 H   0  0  0  0  0  0  0  0  0  0  0  0
   22.0593   44.0781   -1.8910 H   0  0  0  0  0  0  0  0  0  0  0  0
  1  2  1  0  0  0  0
  1 43  1  0  0  0  0
  1 44  1  0  0  0  0
  1 45  1  0  0  0  0
  2  3  1  0  0  0  0
  3 25  1  0  0  0  0
  3  4  2  0  0  0  0
  4  5  1  0  0  0  0
  4 46  1  0  0  0  0
  5  6  2  0  0  0  0
  5 47  1  0  0  0  0
  6 26  1  0  0  0  0
  6  7  1  0  0  0  0
  7  8  1  0  0  0  0
  7 48  1  0  0  0  0
  7 49  1  0  0  0  0
  8 41  1  6  0  0  0
  8  9  1  0  0  0  0
  8 27  1  0  0  0  0
  9 10  1  0  0  0  0
  9 50  1  0  0  0  0
 10 11  2  0  0  0  0
 10 12  1  0  0  0  0
 12 18  1  0  0  0  0
 12 13  2  0  0  0  0
 13 14  1  0  0  0  0
 13 51  1  0  0  0  0
 14 15  1  0  0  0  0
 14 16  2  0  0  0  0
 16 17  1  0  0  0  0
 17 18  2  0  0  0  0
 17 19  1  0  0  0  0
 18 52  1  0  0  0  0
 19 20  1  0  0  0  0
 19 53  1  0  0  0  0
 20 21  1  0  0  0  0
 20 54  1  0  0  0  0
 20 55  1  0  0  0  0
 21 22  1  0  0  0  0
 21 56  1  0  0  0  0
 21 57  1  0  0  0  0
 22 23  1  0  0  0  0
 22 58  1  0  0  0  0
 22 59  1  0  0  0  0
 23 24  1  0  0  0  0
 23 60  1  0  0  0  0
 23 61  1  0  0  0  0
 24 25  1  0  0  0  0
 25 26  2  0  0  0  0
 26 62  1  0  0  0  0
 27 42  1  1  0  0  0
 27 28  1  0  0  0  0
 27 29  1  0  0  0  0
 28 63  1  0  0  0  0
 29 30  1  0  0  0  0
 29 64  1  0  0  0  0
 29 65  1  0  0  0  0
 30 31  1  0  0  0  0
 30 66  1  0  0  0  0
 31 32  1  0  0  0  0
 31 67  1  0  0  0  0
 31 68  1  0  0  0  0
 32 37  1  0  0  0  0
 32 33  2  0  0  0  0
 33 34  1  0  0  0  0
 33 69  1  0  0  0  0
 34 35  2  0  0  0  0
 34 38  1  0  0  0  0
 35 36  1  0  0  0  0
 35 70  1  0  0  0  0
 36 37  2  0  0  0  0
 36 71  1  0  0  0  0
 37 72  1  0  0  0  0
 38 39  1  0  0  0  0
 38 40  1  0  0  0  0
 38 73  1  0  0  0  0
 39 74  1  0  0  0  0
 39 75  1  0  0  0  0
 39 76  1  0  0  0  0
 40 77  1  0  0  0  0
 40 78  1  0  0  0  0
 40 79  1  0  0  0  0
M  END
>  <s_m_source_file>
BACE_100.smi

>  <i_m_source_file_index>
1

>  <i_lp_mmshare_version>
42013

>  <i_f3d_flags>
0

>  <s_epik_input>
YzEyW2NIXVtjSF1jKE9bQ0gzXSljKFtjSF0yKU9bQ0gyXVtDSDJdW0NIMl1bQ0gyXVtOSF1jM25jKENsKVtjSF1jKFtjSF0zKUMoPU8pW05IXVtDQEBIXShbQ0gyXTEpW0NASF0oW09IXSlbQ0gyXVtOSF1bQ0gyXWM0W2NIXWMoW0NIXShbQ0gzXSlbQ0gzXSlbY0hdW2NIXVtjSF00

>  <s_epik_cmdline>
J2VwaWtfcHl0aG9uJywgJy1waCcsICc3LjAnLCAnLXRuJywgJzgnLCAnLW1hJywgJzIwMCcsICctaW1hZScsICc8aW5maWxlLm1hZT4nLCAnLW9tYWUnLCAnPG91dGZpbGUubWFlPic=

>  <r_lp_tautomer_probability>
1

>  <r_epik_Ionization_Penalty>
2.0161

>  <r_epik_Ionization_Penalty_Charging>
0.0000

>  <r_epik_Ionization_Penalty_Neutral>
2.0161

>  <r_epik_State_Penalty>
2.1460

>  <r_epik_Charging_Adjusted_Penalty>
2.14597

>  <i_epik_Tot_Q>
0

>  <i_epik_Tot_abs_Q>
0

>  <s_lp_Force_Field>
OPLS_2005

>  <r_lp_Energy>
35.4655

>  <b_lp_Chiralities_Consistent>
1

>  <s_lp_Variant>
BACE_100.smi:1-2

>  <chiral flag>
1

>  <version>
0

>  <s_i_glide_gridfile>
second_dock_grid_2

>  <i_i_glide_lignum>
205

>  <i_i_glide_rotatable_bonds>
8

>  <r_i_docking_score>
-0.823403

>  <r_i_glide_ligand_efficiency>
-0.0205851

>  <r_i_glide_ligand_efficiency_sa>
-0.0703999

>  <r_i_glide_ligand_efficiency_ln>
-0.175608

>  <r_glide_XP_GScore>
-2.9694

>  <r_i_glide_gscore>
-2.9694

>  <r_i_glide_evdw>
-38.2428

>  <r_i_glide_ecoul>
-2.93841

>  <r_i_glide_energy>
-41.1812

>  <r_i_glide_einternal>
11.4569

>  <r_i_glide_emodel>
-52.539

>  <r_glide_XP_HBond>
-0.7

>  <i_i_glide_confnum>
1

>  <i_i_glide_posenum>
2

>  <r_i_glide_eff_state_penalty>
2.146

>  <i_glide_XP_PoseRank>
1

$$$$
