BACE_144.smi:1
 OpenBabel09291822493D
Structure written by MMmdl.
 87 91  0  0  1  0  0  0  0  0999 V2000
   27.2245   42.3229  -11.5279 C   0  0  0  0  0  0  0  0  0  0  0  0
   27.0052   41.9318  -10.1826 O   0  0  0  0  0  0  0  0  0  0  0  0
   25.9913   40.9474  -10.0502 C   0  0  0  0  0  0  0  0  0  0  0  0
   24.6408   41.5714   -9.7460 C   0  0  0  0  0  0  0  0  0  0  0  0
   24.5253   42.5890   -8.7794 C   0  0  0  0  0  0  0  0  0  0  0  0
   23.2745   43.1730   -8.4955 C   0  0  0  0  0  0  0  0  0  0  0  0
   22.1257   42.7338   -9.1991 C   0  0  0  0  0  0  0  0  0  0  0  0
   22.2299   41.7288  -10.1964 C   0  0  0  0  0  0  0  0  0  0  0  0
   23.4967   41.1525  -10.4535 C   0  0  0  0  0  0  0  0  0  0  0  0
   21.0609   41.2869  -11.0193 C   0  0  0  0  0  0  0  0  0  0  0  0
   21.1804   40.5861  -12.0271 O   0  0  0  0  0  0  0  0  0  0  0  0
   19.8659   41.7382  -10.5534 O   0  0  0  0  0  0  0  0  0  0  0  0
   18.6540   41.5735  -11.2998 C   0  0  1  0  0  0  0  0  0  0  0  0
   17.7833   40.4453  -10.6920 C   0  0  0  0  0  0  0  0  0  0  0  0
   17.9980   40.3433   -9.2537 N   0  0  0  0  0  0  0  0  0  0  0  0
   18.8757   39.2294   -8.8632 C   0  0  0  0  0  0  0  0  0  0  0  0
   19.0617   38.1051   -9.8540 C   0  0  0  0  0  0  0  0  0  0  0  0
   18.2319   37.8869   -8.6114 C   0  0  0  0  0  0  0  0  0  0  0  0
   20.0689   39.6120   -7.9993 C   0  0  0  0  0  0  0  0  0  0  0  0
   19.8909   40.0829   -6.6779 C   0  0  0  0  0  0  0  0  0  0  0  0
   20.9987   40.4359   -5.8720 C   0  0  0  0  0  0  0  0  0  0  0  0
   22.3012   40.3110   -6.4025 C   0  0  0  0  0  0  0  0  0  0  0  0
   22.4909   39.8398   -7.7150 C   0  0  0  0  0  0  0  0  0  0  0  0
   21.3810   39.4916   -8.5075 C   0  0  0  0  0  0  0  0  0  0  0  0
   20.8036   40.9458   -4.4451 C   0  0  0  0  0  0  0  0  0  0  0  0
   21.9347   40.4876   -3.5074 C   0  0  0  0  0  0  0  0  0  0  0  0
   20.6023   42.4709   -4.3983 C   0  0  0  0  0  0  0  0  0  0  0  0
   17.9695   42.9653  -11.3448 C   0  0  1  0  0  0  0  0  0  0  0  0
   17.0619   43.0171  -12.4787 N   0  0  0  0  0  0  0  0  0  0  0  0
   17.2283   43.3940  -10.0494 C   0  0  0  0  0  0  0  0  0  0  0  0
   17.4624   44.8363   -9.6088 C   0  0  0  0  0  0  0  0  0  0  0  0
   17.6681   45.1042   -8.2383 C   0  0  0  0  0  0  0  0  0  0  0  0
   17.9344   46.4113   -7.7865 C   0  0  0  0  0  0  0  0  0  0  0  0
   17.9572   47.4760   -8.7138 C   0  0  0  0  0  0  0  0  0  0  0  0
   17.7202   47.2245  -10.0794 C   0  0  0  0  0  0  0  0  0  0  0  0
   17.4717   45.9115  -10.5266 C   0  0  0  0  0  0  0  0  0  0  0  0
   18.1131   46.6127   -6.4406 O   0  0  0  0  0  0  0  0  0  0  0  0
   19.3765   47.1267   -6.0283 C   0  0  0  0  0  0  0  0  0  0  0  0
   20.3666   45.9801   -5.7377 C   0  0  0  0  0  0  0  0  0  0  0  0
   21.2886   45.6078   -6.9143 C   0  0  0  0  0  0  0  0  0  0  0  0
   22.1242   44.3485   -6.6240 C   0  0  0  0  0  0  0  0  0  0  0  0
   23.2470   44.2016   -7.5410 N   0  0  0  0  0  0  0  0  0  0  0  0
   18.8838   41.3118  -12.3342 H   0  0  0  0  0  0  0  0  0  0  0  0
   18.7573   43.6884  -11.5592 H   0  0  0  0  0  0  0  0  0  0  0  0
   28.0114   43.0763  -11.5645 H   0  0  0  0  0  0  0  0  0  0  0  0
   26.3257   42.7576  -11.9675 H   0  0  0  0  0  0  0  0  0  0  0  0
   27.5419   41.4785  -12.1411 H   0  0  0  0  0  0  0  0  0  0  0  0
   26.2417   40.2594   -9.2409 H   0  0  0  0  0  0  0  0  0  0  0  0
   25.9294   40.3554  -10.9649 H   0  0  0  0  0  0  0  0  0  0  0  0
   25.4034   42.9271   -8.2474 H   0  0  0  0  0  0  0  0  0  0  0  0
   21.1751   43.2040   -8.9962 H   0  0  0  0  0  0  0  0  0  0  0  0
   23.6097   40.3849  -11.2059 H   0  0  0  0  0  0  0  0  0  0  0  0
   18.0527   39.4899  -11.1426 H   0  0  0  0  0  0  0  0  0  0  0  0
   16.7279   40.6160  -10.9045 H   0  0  0  0  0  0  0  0  0  0  0  0
   17.1328   40.3278   -8.7328 H   0  0  0  0  0  0  0  0  0  0  0  0
   18.5356   38.1789  -10.8058 H   0  0  0  0  0  0  0  0  0  0  0  0
   20.0405   37.6275   -9.8977 H   0  0  0  0  0  0  0  0  0  0  0  0
   18.6559   37.2633   -7.8244 H   0  0  0  0  0  0  0  0  0  0  0  0
   17.1510   37.8148   -8.7324 H   0  0  0  0  0  0  0  0  0  0  0  0
   18.8906   40.1708   -6.2798 H   0  0  0  0  0  0  0  0  0  0  0  0
   23.1645   40.5736   -5.8084 H   0  0  0  0  0  0  0  0  0  0  0  0
   23.4898   39.7449   -8.1147 H   0  0  0  0  0  0  0  0  0  0  0  0
   21.5423   39.1304   -9.5129 H   0  0  0  0  0  0  0  0  0  0  0  0
   19.8846   40.5008   -4.0613 H   0  0  0  0  0  0  0  0  0  0  0  0
   22.0242   39.4007   -3.5028 H   0  0  0  0  0  0  0  0  0  0  0  0
   21.7429   40.8010   -2.4807 H   0  0  0  0  0  0  0  0  0  0  0  0
   22.9010   40.8997   -3.7991 H   0  0  0  0  0  0  0  0  0  0  0  0
   19.7579   42.7743   -5.0181 H   0  0  0  0  0  0  0  0  0  0  0  0
   21.4825   43.0112   -4.7477 H   0  0  0  0  0  0  0  0  0  0  0  0
   20.3953   42.8073   -3.3819 H   0  0  0  0  0  0  0  0  0  0  0  0
   16.6930   43.9523  -12.5763 H   0  0  0  0  0  0  0  0  0  0  0  0
   17.5683   42.8152  -13.3289 H   0  0  0  0  0  0  0  0  0  0  0  0
   16.1537   43.2242  -10.1356 H   0  0  0  0  0  0  0  0  0  0  0  0
   17.5524   42.7612   -9.2238 H   0  0  0  0  0  0  0  0  0  0  0  0
   17.6415   44.2992   -7.5180 H   0  0  0  0  0  0  0  0  0  0  0  0
   18.1353   48.4885   -8.3821 H   0  0  0  0  0  0  0  0  0  0  0  0
   17.7281   48.0413  -10.7861 H   0  0  0  0  0  0  0  0  0  0  0  0
   17.2942   45.7429  -11.5781 H   0  0  0  0  0  0  0  0  0  0  0  0
   19.7986   47.8578   -6.7189 H   0  0  0  0  0  0  0  0  0  0  0  0
   19.1924   47.6688   -5.1002 H   0  0  0  0  0  0  0  0  0  0  0  0
   19.8167   45.1044   -5.3901 H   0  0  0  0  0  0  0  0  0  0  0  0
   21.0003   46.2790   -4.9017 H   0  0  0  0  0  0  0  0  0  0  0  0
   21.9519   46.4509   -7.1138 H   0  0  0  0  0  0  0  0  0  0  0  0
   20.7104   45.4523   -7.8244 H   0  0  0  0  0  0  0  0  0  0  0  0
   21.4945   43.4582   -6.6187 H   0  0  0  0  0  0  0  0  0  0  0  0
   22.5496   44.4219   -5.6228 H   0  0  0  0  0  0  0  0  0  0  0  0
   24.1424   44.4628   -7.1536 H   0  0  0  0  0  0  0  0  0  0  0  0
  1  2  1  0  0  0  0
  1 45  1  0  0  0  0
  1 46  1  0  0  0  0
  1 47  1  0  0  0  0
  2  3  1  0  0  0  0
  3  4  1  0  0  0  0
  3 48  1  0  0  0  0
  3 49  1  0  0  0  0
  4  9  1  0  0  0  0
  4  5  2  0  0  0  0
  5  6  1  0  0  0  0
  5 50  1  0  0  0  0
  6 42  1  0  0  0  0
  6  7  2  0  0  0  0
  7  8  1  0  0  0  0
  7 51  1  0  0  0  0
  8  9  2  0  0  0  0
  8 10  1  0  0  0  0
  9 52  1  0  0  0  0
 10 11  2  0  0  0  0
 10 12  1  0  0  0  0
 12 13  1  0  0  0  0
 13 43  1  0  0  0  0
 13 14  1  0  0  0  0
 13 28  1  1  0  0  0
 14 15  1  0  0  0  0
 14 53  1  0  0  0  0
 14 54  1  0  0  0  0
 15 16  1  0  0  0  0
 15 55  1  0  0  0  0
 16 18  1  0  0  0  0
 16 17  1  0  0  0  0
 16 19  1  0  0  0  0
 17 18  1  0  0  0  0
 17 56  1  0  0  0  0
 17 57  1  0  0  0  0
 18 58  1  0  0  0  0
 18 59  1  0  0  0  0
 19 24  1  0  0  0  0
 19 20  2  0  0  0  0
 20 21  1  0  0  0  0
 20 60  1  0  0  0  0
 21 22  2  0  0  0  0
 21 25  1  0  0  0  0
 22 23  1  0  0  0  0
 22 61  1  0  0  0  0
 23 24  2  0  0  0  0
 23 62  1  0  0  0  0
 24 63  1  0  0  0  0
 25 26  1  0  0  0  0
 25 27  1  0  0  0  0
 25 64  1  0  0  0  0
 26 65  1  0  0  0  0
 26 66  1  0  0  0  0
 26 67  1  0  0  0  0
 27 68  1  0  0  0  0
 27 69  1  0  0  0  0
 27 70  1  0  0  0  0
 28 44  1  6  0  0  0
 28 29  1  0  0  0  0
 28 30  1  0  0  0  0
 29 71  1  0  0  0  0
 29 72  1  0  0  0  0
 30 31  1  0  0  0  0
 30 73  1  0  0  0  0
 30 74  1  0  0  0  0
 31 36  1  0  0  0  0
 31 32  2  0  0  0  0
 32 33  1  0  0  0  0
 32 75  1  0  0  0  0
 33 34  2  0  0  0  0
 33 37  1  0  0  0  0
 34 35  1  0  0  0  0
 34 76  1  0  0  0  0
 35 36  2  0  0  0  0
 35 77  1  0  0  0  0
 36 78  1  0  0  0  0
 37 38  1  0  0  0  0
 38 39  1  0  0  0  0
 38 79  1  0  0  0  0
 38 80  1  0  0  0  0
 39 40  1  0  0  0  0
 39 81  1  0  0  0  0
 39 82  1  0  0  0  0
 40 41  1  0  0  0  0
 40 83  1  0  0  0  0
 40 84  1  0  0  0  0
 41 42  1  0  0  0  0
 41 85  1  0  0  0  0
 41 86  1  0  0  0  0
 42 87  1  0  0  0  0
M  END
>  <s_m_source_file>
BACE_144.smi

>  <i_m_source_file_index>
1

>  <i_lp_mmshare_version>
42013

>  <i_f3d_flags>
0

>  <s_epik_input>
W2NIXTFbY0hdW2NIXWMoW0NIXShbQ0gzXSlbQ0gzXSlbY0hdYzFDMihbQ0gyXVtDSDJdMilbTkhdW0NIMl1bQ0BIXShPQyg9TyljKFtjSF0zKVtjSF1jKFtjSF1jMzQpW0NIMl1PW0NIM10pW0NAQEhdKFtOSDJdKVtDSDJdYzVbY0hdYyhbY0hdW2NIXVtjSF01KU9bQ0gyXVtDSDJdW0NIMl1bQ0gyXVtOSF00

>  <s_epik_cmdline>
J2VwaWtfcHl0aG9uJywgJy1waCcsICc3LjAnLCAnLXRuJywgJzgnLCAnLW1hJywgJzIwMCcsICctaW1hZScsICc8aW5maWxlLm1hZT4nLCAnLW9tYWUnLCAnPG91dGZpbGUubWFlPic=

>  <r_lp_tautomer_probability>
1

>  <r_epik_Ionization_Penalty>
2.2590

>  <r_epik_Ionization_Penalty_Charging>
0.0000

>  <r_epik_Ionization_Penalty_Neutral>
2.2590

>  <r_epik_State_Penalty>
2.3476

>  <r_epik_Charging_Adjusted_Penalty>
2.34765

>  <i_epik_Tot_Q>
0

>  <i_epik_Tot_abs_Q>
0

>  <s_epik_Chemistry_Notes>
This compound has an ester and may undergo hydrolysis at high or low pH.

>  <s_lp_Force_Field>
OPLS_2005

>  <r_lp_Energy>
45.8012

>  <b_lp_Chiralities_Consistent>
1

>  <s_lp_Variant>
BACE_144.smi:1-3

>  <chiral flag>
1

>  <version>
0

>  <s_i_glide_gridfile>
second_dock_grid_2

>  <i_i_glide_lignum>
295

>  <i_i_glide_rotatable_bonds>
7

>  <r_i_docking_score>
-1.04892

>  <r_i_glide_ligand_efficiency>
-0.0249744

>  <r_i_glide_ligand_efficiency_sa>
-0.0868115

>  <r_i_glide_ligand_efficiency_ln>
-0.221401

>  <r_glide_XP_GScore>
-3.39652

>  <r_i_glide_gscore>
-3.39652

>  <r_i_glide_evdw>
-35.8703

>  <r_i_glide_ecoul>
-4.63587

>  <r_i_glide_energy>
-40.5061

>  <r_i_glide_einternal>
9.33384

>  <r_i_glide_emodel>
-57.3118

>  <r_glide_XP_HBond>
0

>  <i_i_glide_confnum>
1

>  <i_i_glide_posenum>
3

>  <r_i_glide_eff_state_penalty>
2.3476

>  <i_glide_XP_PoseRank>
1

$$$$
