BACE_154.smi:1
 OpenBabel09291822493D
Structure written by MMmdl.
 79 81  0  0  1  0  0  0  0  0999 V2000
   17.0425   36.5151   -9.0852 C   0  0  0  0  0  0  0  0  0  0  0  0
   16.5246   37.9222   -9.4006 C   0  0  0  0  0  0  0  0  0  0  0  0
   15.0139   38.0606   -9.1478 C   0  0  0  0  0  0  0  0  0  0  0  0
   14.4464   39.4388   -9.5321 C   0  0  0  0  0  0  0  0  0  0  0  0
   15.1685   40.5315   -8.8908 N   0  0  0  0  0  0  0  0  0  0  0  0
   15.7218   41.5727   -9.5310 C   0  0  0  0  0  0  0  0  0  0  0  0
   15.5816   41.7775  -10.7372 O   0  0  0  0  0  0  0  0  0  0  0  0
   16.5805   42.5190   -8.6801 C   0  0  2  0  0  0  0  0  0  0  0  0
   16.0419   43.9567   -8.7767 C   0  0  0  0  0  0  0  0  0  0  0  0
   18.0747   42.4618   -9.0789 C   0  0  0  0  0  0  0  0  0  0  0  0
   18.4253   43.0960  -10.4472 C   0  0  2  0  0  0  0  0  0  0  0  0
   17.8267   42.3217  -11.4706 O   0  0  0  0  0  0  0  0  0  0  0  0
   19.9554   43.2324  -10.6649 C   0  0  2  0  0  0  0  0  0  0  0  0
   20.6655   41.9771  -11.2392 C   0  0  0  0  0  0  0  0  0  0  0  0
   20.4947   40.6938  -10.4383 C   0  0  0  0  0  0  0  0  0  0  0  0
   21.0620   40.5726   -9.1540 C   0  0  0  0  0  0  0  0  0  0  0  0
   20.8382   39.4188   -8.3774 C   0  0  0  0  0  0  0  0  0  0  0  0
   21.3548   39.3710   -6.9535 C   0  0  0  0  0  0  0  0  0  0  0  0
   20.3304   39.9810   -5.9811 C   0  0  0  0  0  0  0  0  0  0  0  0
   20.8828   40.3379   -4.5885 C   0  0  0  0  0  0  0  0  0  0  0  0
   21.3670   41.7951   -4.4531 C   0  0  0  0  0  0  0  0  0  0  0  0
   22.8032   42.0392   -4.9416 C   0  0  0  0  0  0  0  0  0  0  0  0
   23.1777   43.4426   -4.8377 N   0  0  0  0  0  0  0  0  0  0  0  0
   22.8844   44.3789   -5.8406 C   0  0  0  0  0  0  0  0  0  0  0  0
   22.2814   44.0337   -7.0745 C   0  0  0  0  0  0  0  0  0  0  0  0
   22.0702   45.0441   -8.0413 C   0  0  0  0  0  0  0  0  0  0  0  0
   22.4605   46.3620   -7.7225 C   0  0  0  0  0  0  0  0  0  0  0  0
   23.0351   46.6199   -6.4636 C   0  0  0  0  0  0  0  0  0  0  0  0
   23.2439   45.6456   -5.5449 N   0  0  0  0  0  0  0  0  0  0  0  0
   23.4071   47.9136   -6.1603 O   0  0  0  0  0  0  0  0  0  0  0  0
   24.0156   48.1631   -4.8979 C   0  0  0  0  0  0  0  0  0  0  0  0
   21.5118   44.7318   -9.4014 C   0  0  0  0  0  0  0  0  0  0  0  0
   21.8421   45.4010  -10.3806 O   0  0  0  0  0  0  0  0  0  0  0  0
   20.6201   43.7276   -9.4548 N   0  0  0  0  0  0  0  0  0  0  0  0
   20.0869   38.3515   -8.9105 C   0  0  0  0  0  0  0  0  0  0  0  0
   19.5502   38.4504  -10.2090 C   0  0  0  0  0  0  0  0  0  0  0  0
   19.7470   39.6209  -10.9675 C   0  0  0  0  0  0  0  0  0  0  0  0
   16.4922   42.2139   -7.6361 H   0  0  0  0  0  0  0  0  0  0  0  0
   17.9958   44.0967  -10.5024 H   0  0  0  0  0  0  0  0  0  0  0  0
   20.0684   43.9916  -11.4407 H   0  0  0  0  0  0  0  0  0  0  0  0
   18.1147   36.4456   -9.2692 H   0  0  0  0  0  0  0  0  0  0  0  0
   16.5472   35.7662   -9.7036 H   0  0  0  0  0  0  0  0  0  0  0  0
   16.8680   36.2565   -8.0406 H   0  0  0  0  0  0  0  0  0  0  0  0
   17.0650   38.6455   -8.7893 H   0  0  0  0  0  0  0  0  0  0  0  0
   16.7539   38.1625  -10.4396 H   0  0  0  0  0  0  0  0  0  0  0  0
   14.4798   37.2780   -9.6883 H   0  0  0  0  0  0  0  0  0  0  0  0
   14.8119   37.8869   -8.0903 H   0  0  0  0  0  0  0  0  0  0  0  0
   14.4653   39.5633  -10.6160 H   0  0  0  0  0  0  0  0  0  0  0  0
   13.3991   39.5026   -9.2362 H   0  0  0  0  0  0  0  0  0  0  0  0
   15.2792   40.4784   -7.8884 H   0  0  0  0  0  0  0  0  0  0  0  0
   14.9859   44.0048   -8.5077 H   0  0  0  0  0  0  0  0  0  0  0  0
   16.1482   44.3595   -9.7848 H   0  0  0  0  0  0  0  0  0  0  0  0
   16.5804   44.6197   -8.0990 H   0  0  0  0  0  0  0  0  0  0  0  0
   18.6672   42.9470   -8.3018 H   0  0  0  0  0  0  0  0  0  0  0  0
   18.3927   41.4184   -9.0762 H   0  0  0  0  0  0  0  0  0  0  0  0
   18.1272   41.4299  -11.3882 H   0  0  0  0  0  0  0  0  0  0  0  0
   20.3019   41.8035  -12.2528 H   0  0  0  0  0  0  0  0  0  0  0  0
   21.7332   42.1745  -11.3435 H   0  0  0  0  0  0  0  0  0  0  0  0
   21.6433   41.3828   -8.7441 H   0  0  0  0  0  0  0  0  0  0  0  0
   21.5763   38.3410   -6.6711 H   0  0  0  0  0  0  0  0  0  0  0  0
   22.3023   39.9040   -6.9157 H   0  0  0  0  0  0  0  0  0  0  0  0
   19.8860   40.8745   -6.4223 H   0  0  0  0  0  0  0  0  0  0  0  0
   19.5067   39.2744   -5.8715 H   0  0  0  0  0  0  0  0  0  0  0  0
   20.0677   40.2057   -3.8760 H   0  0  0  0  0  0  0  0  0  0  0  0
   21.6565   39.6341   -4.2792 H   0  0  0  0  0  0  0  0  0  0  0  0
   20.6730   42.4645   -4.9630 H   0  0  0  0  0  0  0  0  0  0  0  0
   21.3203   42.0747   -3.3999 H   0  0  0  0  0  0  0  0  0  0  0  0
   23.4951   41.4626   -4.3275 H   0  0  0  0  0  0  0  0  0  0  0  0
   22.9521   41.6912   -5.9600 H   0  0  0  0  0  0  0  0  0  0  0  0
   23.6096   43.7617   -3.9825 H   0  0  0  0  0  0  0  0  0  0  0  0
   22.0027   43.0156   -7.2923 H   0  0  0  0  0  0  0  0  0  0  0  0
   22.3282   47.1680   -8.4300 H   0  0  0  0  0  0  0  0  0  0  0  0
   24.2457   49.2250   -4.8123 H   0  0  0  0  0  0  0  0  0  0  0  0
   24.9512   47.6124   -4.7905 H   0  0  0  0  0  0  0  0  0  0  0  0
   23.3498   47.9018   -4.0741 H   0  0  0  0  0  0  0  0  0  0  0  0
   20.4020   43.2501   -8.5924 H   0  0  0  0  0  0  0  0  0  0  0  0
   19.9082   37.4638   -8.3214 H   0  0  0  0  0  0  0  0  0  0  0  0
   18.9707   37.6355  -10.6174 H   0  0  0  0  0  0  0  0  0  0  0  0
   19.3129   39.6963  -11.9530 H   0  0  0  0  0  0  0  0  0  0  0  0
  1  2  1  0  0  0  0
  1 41  1  0  0  0  0
  1 42  1  0  0  0  0
  1 43  1  0  0  0  0
  2  3  1  0  0  0  0
  2 44  1  0  0  0  0
  2 45  1  0  0  0  0
  3  4  1  0  0  0  0
  3 46  1  0  0  0  0
  3 47  1  0  0  0  0
  4  5  1  0  0  0  0
  4 48  1  0  0  0  0
  4 49  1  0  0  0  0
  5  6  1  0  0  0  0
  5 50  1  0  0  0  0
  6  7  2  0  0  0  0
  6  8  1  0  0  0  0
  8 38  1  1  0  0  0
  8  9  1  0  0  0  0
  8 10  1  0  0  0  0
  9 51  1  0  0  0  0
  9 52  1  0  0  0  0
  9 53  1  0  0  0  0
 10 11  1  0  0  0  0
 10 54  1  0  0  0  0
 10 55  1  0  0  0  0
 11 39  1  6  0  0  0
 11 12  1  0  0  0  0
 11 13  1  0  0  0  0
 12 56  1  0  0  0  0
 13 40  1  6  0  0  0
 13 34  1  0  0  0  0
 13 14  1  0  0  0  0
 14 15  1  0  0  0  0
 14 57  1  0  0  0  0
 14 58  1  0  0  0  0
 15 37  1  0  0  0  0
 15 16  2  0  0  0  0
 16 17  1  0  0  0  0
 16 59  1  0  0  0  0
 17 18  1  0  0  0  0
 17 35  2  0  0  0  0
 18 19  1  0  0  0  0
 18 60  1  0  0  0  0
 18 61  1  0  0  0  0
 19 20  1  0  0  0  0
 19 62  1  0  0  0  0
 19 63  1  0  0  0  0
 20 21  1  0  0  0  0
 20 64  1  0  0  0  0
 20 65  1  0  0  0  0
 21 22  1  0  0  0  0
 21 66  1  0  0  0  0
 21 67  1  0  0  0  0
 22 23  1  0  0  0  0
 22 68  1  0  0  0  0
 22 69  1  0  0  0  0
 23 24  1  0  0  0  0
 23 70  1  0  0  0  0
 24 29  1  0  0  0  0
 24 25  2  0  0  0  0
 25 26  1  0  0  0  0
 25 71  1  0  0  0  0
 26 27  2  0  0  0  0
 26 32  1  0  0  0  0
 27 28  1  0  0  0  0
 27 72  1  0  0  0  0
 28 29  2  0  0  0  0
 28 30  1  0  0  0  0
 30 31  1  0  0  0  0
 31 73  1  0  0  0  0
 31 74  1  0  0  0  0
 31 75  1  0  0  0  0
 32 33  2  0  0  0  0
 32 34  1  0  0  0  0
 34 76  1  0  0  0  0
 35 36  1  0  0  0  0
 35 77  1  0  0  0  0
 36 37  2  0  0  0  0
 36 78  1  0  0  0  0
 37 79  1  0  0  0  0
M  END
>  <s_m_source_file>
BACE_154.smi

>  <i_m_source_file_index>
1

>  <i_lp_mmshare_version>
42013

>  <i_f3d_flags>
0

>  <s_epik_input>
W0NIM11bQ0gyXVtDSDJdW0NIMl1bTkhdQyg9TylbQ0BIXShbQ0gzXSlbQ0gyXVtDQEhdKFtPSF0pW0NASF0oW0NIMl0xKVtOSF1DKD1PKWMoW2NIXWMobjIpT1tDSDNdKVtjSF1jMltOSF1bQ0gyXVtDSDJdW0NIMl1bQ0gyXVtDSDJdYyhbY0hdYzEzKVtjSF1bY0hdW2NIXTM=

>  <s_epik_cmdline>
J2VwaWtfcHl0aG9uJywgJy1waCcsICc3LjAnLCAnLXRuJywgJzgnLCAnLW1hJywgJzIwMCcsICctaW1hZScsICc8aW5maWxlLm1hZT4nLCAnLW9tYWUnLCAnPG91dGZpbGUubWFlPic=

>  <r_lp_tautomer_probability>
1

>  <r_epik_Ionization_Penalty>
0.0000

>  <r_epik_Ionization_Penalty_Charging>
0.0000

>  <r_epik_Ionization_Penalty_Neutral>
0.0000

>  <r_epik_State_Penalty>
-0.0000

>  <r_epik_Charging_Adjusted_Penalty>
0

>  <i_epik_Tot_Q>
0

>  <i_epik_Tot_abs_Q>
0

>  <s_lp_Force_Field>
OPLS_2005

>  <r_lp_Energy>
22.147

>  <b_lp_Chiralities_Consistent>
1

>  <s_lp_Variant>
BACE_154.smi:1-1

>  <chiral flag>
1

>  <version>
0

>  <s_i_glide_gridfile>
second_dock_grid_2

>  <i_i_glide_lignum>
307

>  <i_i_glide_rotatable_bonds>
10

>  <r_i_docking_score>
-4.45229

>  <r_i_glide_ligand_efficiency>
-0.120332

>  <r_i_glide_ligand_efficiency_sa>
-0.400973

>  <r_i_glide_ligand_efficiency_ln>
-0.965597

>  <r_glide_XP_GScore>
-4.45229

>  <r_i_glide_gscore>
-4.45229

>  <r_i_glide_evdw>
-38.6047

>  <r_i_glide_ecoul>
-7.57896

>  <r_i_glide_energy>
-46.1837

>  <r_i_glide_einternal>
4.41638

>  <r_i_glide_emodel>
-62.5257

>  <r_glide_XP_HBond>
-1.37787

>  <i_i_glide_confnum>
1

>  <i_i_glide_posenum>
25

>  <r_i_glide_eff_state_penalty>
-0

>  <i_glide_XP_PoseRank>
1

$$$$
