BACE_97.smi:1
 OpenBabel09291822493D
Structure written by MMmdl.
 79 82  0  0  1  0  0  0  0  0999 V2000
   21.6971   45.5732  -11.2671 C   0  0  0  0  0  0  0  0  0  0  0  0
   20.8997   44.2974  -11.1008 C   0  0  0  0  0  0  0  0  0  0  0  0
   19.5572   44.2232  -11.5131 C   0  0  0  0  0  0  0  0  0  0  0  0
   18.8584   43.0158  -11.3150 C   0  0  0  0  0  0  0  0  0  0  0  0
   19.5482   41.9275  -10.7392 C   0  0  0  0  0  0  0  0  0  0  0  0
   20.9045   42.0956  -10.3819 C   0  0  0  0  0  0  0  0  0  0  0  0
   21.6708   41.0715   -9.8189 N   0  0  0  0  0  0  0  0  0  0  0  0
   21.5444   39.7256  -10.3593 C   0  0  0  0  0  0  0  0  0  0  0  0
   21.2698   38.6836   -9.2596 C   0  0  0  0  0  0  0  0  0  0  0  0
   19.8268   38.7128   -8.7364 C   0  0  0  0  0  0  0  0  0  0  0  0
   18.8131   38.0953   -9.7163 C   0  0  0  0  0  0  0  0  0  0  0  0
   17.3976   38.5485   -9.4291 C   0  0  0  0  0  0  0  0  0  0  0  0
   16.7538   38.1501   -8.2431 C   0  0  0  0  0  0  0  0  0  0  0  0
   15.4377   38.5651   -7.9734 C   0  0  0  0  0  0  0  0  0  0  0  0
   14.7727   39.4178   -8.8707 C   0  0  0  0  0  0  0  0  0  0  0  0
   15.4213   39.8523  -10.0433 C   0  0  0  0  0  0  0  0  0  0  0  0
   14.7427   40.8416  -10.9743 C   0  0  0  0  0  0  0  0  0  0  0  0
   15.1654   42.3119  -10.7381 C   0  0  2  0  0  0  0  0  0  0  0  0
   16.6238   42.3952  -10.7441 N   0  0  0  0  0  0  0  0  0  0  0  0
   17.4137   42.9182  -11.6923 C   0  0  0  0  0  0  0  0  0  0  0  0
   17.0036   43.3548  -12.7653 O   0  0  0  0  0  0  0  0  0  0  0  0
   14.5676   42.9232   -9.4315 C   0  0  2  0  0  0  0  0  0  0  0  0
   13.1656   42.9503   -9.6396 O   0  0  0  0  0  0  0  0  0  0  0  0
   14.9670   44.3974   -9.1197 C   0  0  0  0  0  0  0  0  0  0  0  0
   15.9539   44.5855   -8.0403 N   0  0  0  0  0  0  0  0  0  0  0  0
   17.2978   44.1174   -8.3504 C   0  0  0  0  0  0  0  0  0  0  0  0
   18.3634   44.5273   -7.3594 C   0  0  0  0  0  0  0  0  0  0  0  0
   19.2210   43.5470   -6.8264 C   0  0  0  0  0  0  0  0  0  0  0  0
   20.2391   43.9319   -5.9285 C   0  0  0  0  0  0  0  0  0  0  0  0
   20.3490   45.3110   -5.6395 C   0  0  0  0  0  0  0  0  0  0  0  0
   19.4598   46.2185   -6.2432 C   0  0  0  0  0  0  0  0  0  0  0  0
   18.4732   45.8431   -7.0797 N   0  0  0  0  0  0  0  0  0  0  0  0
   21.1534   42.9039   -5.2374 C   0  0  0  0  0  0  0  0  0  0  0  0
   22.6289   43.3443   -5.3236 C   0  0  0  0  0  0  0  0  0  0  0  0
   21.0585   41.4923   -5.8645 C   0  0  0  0  0  0  0  0  0  0  0  0
   20.7357   42.7988   -3.7587 C   0  0  0  0  0  0  0  0  0  0  0  0
   16.7218   39.3901  -10.3322 C   0  0  0  0  0  0  0  0  0  0  0  0
   21.5598   43.2605  -10.5483 N   0  0  0  0  0  0  0  0  0  0  0  0
   14.7791   42.9048  -11.5679 H   0  0  0  0  0  0  0  0  0  0  0  0
   14.7691   42.2921   -8.5651 H   0  0  0  0  0  0  0  0  0  0  0  0
   21.0692   46.3874  -11.6259 H   0  0  0  0  0  0  0  0  0  0  0  0
   22.5051   45.4195  -11.9850 H   0  0  0  0  0  0  0  0  0  0  0  0
   22.1342   45.8721  -10.3132 H   0  0  0  0  0  0  0  0  0  0  0  0
   19.0643   45.0806  -11.9485 H   0  0  0  0  0  0  0  0  0  0  0  0
   19.0506   40.9864  -10.5693 H   0  0  0  0  0  0  0  0  0  0  0  0
   22.6202   41.3396   -9.6068 H   0  0  0  0  0  0  0  0  0  0  0  0
   20.8031   39.6676  -11.1573 H   0  0  0  0  0  0  0  0  0  0  0  0
   22.4906   39.4908  -10.8394 H   0  0  0  0  0  0  0  0  0  0  0  0
   21.4919   37.6870   -9.6332 H   0  0  0  0  0  0  0  0  0  0  0  0
   21.9620   38.8487   -8.4303 H   0  0  0  0  0  0  0  0  0  0  0  0
   19.7632   38.1880   -7.7827 H   0  0  0  0  0  0  0  0  0  0  0  0
   19.5540   39.7475   -8.5185 H   0  0  0  0  0  0  0  0  0  0  0  0
   19.0573   38.3593  -10.7450 H   0  0  0  0  0  0  0  0  0  0  0  0
   18.8566   37.0067   -9.6663 H   0  0  0  0  0  0  0  0  0  0  0  0
   17.2654   37.5061   -7.5410 H   0  0  0  0  0  0  0  0  0  0  0  0
   14.9468   38.2367   -7.0650 H   0  0  0  0  0  0  0  0  0  0  0  0
   13.7684   39.7491   -8.6466 H   0  0  0  0  0  0  0  0  0  0  0  0
   14.9873   40.5484  -11.9965 H   0  0  0  0  0  0  0  0  0  0  0  0
   13.6611   40.7249  -10.8910 H   0  0  0  0  0  0  0  0  0  0  0  0
   17.0891   42.0242   -9.9278 H   0  0  0  0  0  0  0  0  0  0  0  0
   12.7848   42.1796   -9.2263 H   0  0  0  0  0  0  0  0  0  0  0  0
   15.3070   44.8918  -10.0314 H   0  0  0  0  0  0  0  0  0  0  0  0
   14.0730   44.9467   -8.8236 H   0  0  0  0  0  0  0  0  0  0  0  0
   15.6474   44.1285   -7.1754 H   0  0  0  0  0  0  0  0  0  0  0  0
   17.3025   43.0302   -8.4061 H   0  0  0  0  0  0  0  0  0  0  0  0
   17.6101   44.5096   -9.3172 H   0  0  0  0  0  0  0  0  0  0  0  0
   19.0630   42.5140   -7.0950 H   0  0  0  0  0  0  0  0  0  0  0  0
   21.0938   45.6813   -4.9540 H   0  0  0  0  0  0  0  0  0  0  0  0
   19.5298   47.2749   -6.0295 H   0  0  0  0  0  0  0  0  0  0  0  0
   23.2904   42.6076   -4.8660 H   0  0  0  0  0  0  0  0  0  0  0  0
   22.8132   44.2868   -4.8089 H   0  0  0  0  0  0  0  0  0  0  0  0
   22.9387   43.4646   -6.3616 H   0  0  0  0  0  0  0  0  0  0  0  0
   21.3039   41.5096   -6.9262 H   0  0  0  0  0  0  0  0  0  0  0  0
   20.0607   41.0614   -5.7573 H   0  0  0  0  0  0  0  0  0  0  0  0
   21.7495   40.7987   -5.3860 H   0  0  0  0  0  0  0  0  0  0  0  0
   21.3321   42.0560   -3.2249 H   0  0  0  0  0  0  0  0  0  0  0  0
   19.6867   42.5150   -3.6637 H   0  0  0  0  0  0  0  0  0  0  0  0
   20.8546   43.7488   -3.2397 H   0  0  0  0  0  0  0  0  0  0  0  0
   17.2140   39.7060  -11.2417 H   0  0  0  0  0  0  0  0  0  0  0  0
  1  2  1  0  0  0  0
  1 41  1  0  0  0  0
  1 42  1  0  0  0  0
  1 43  1  0  0  0  0
  2 38  1  0  0  0  0
  2  3  2  0  0  0  0
  3  4  1  0  0  0  0
  3 44  1  0  0  0  0
  4 20  1  0  0  0  0
  4  5  2  0  0  0  0
  5  6  1  0  0  0  0
  5 45  1  0  0  0  0
  6  7  1  0  0  0  0
  6 38  2  0  0  0  0
  7  8  1  0  0  0  0
  7 46  1  0  0  0  0
  8  9  1  0  0  0  0
  8 47  1  0  0  0  0
  8 48  1  0  0  0  0
  9 10  1  0  0  0  0
  9 49  1  0  0  0  0
  9 50  1  0  0  0  0
 10 11  1  0  0  0  0
 10 51  1  0  0  0  0
 10 52  1  0  0  0  0
 11 12  1  0  0  0  0
 11 53  1  0  0  0  0
 11 54  1  0  0  0  0
 12 37  1  0  0  0  0
 12 13  2  0  0  0  0
 13 14  1  0  0  0  0
 13 55  1  0  0  0  0
 14 15  2  0  0  0  0
 14 56  1  0  0  0  0
 15 16  1  0  0  0  0
 15 57  1  0  0  0  0
 16 17  1  0  0  0  0
 16 37  2  0  0  0  0
 17 18  1  0  0  0  0
 17 58  1  0  0  0  0
 17 59  1  0  0  0  0
 18 39  1  6  0  0  0
 18 19  1  0  0  0  0
 18 22  1  0  0  0  0
 19 20  1  0  0  0  0
 19 60  1  0  0  0  0
 20 21  2  0  0  0  0
 22 40  1  1  0  0  0
 22 23  1  0  0  0  0
 22 24  1  0  0  0  0
 23 61  1  0  0  0  0
 24 25  1  0  0  0  0
 24 62  1  0  0  0  0
 24 63  1  0  0  0  0
 25 26  1  0  0  0  0
 25 64  1  0  0  0  0
 26 27  1  0  0  0  0
 26 65  1  0  0  0  0
 26 66  1  0  0  0  0
 27 32  1  0  0  0  0
 27 28  2  0  0  0  0
 28 29  1  0  0  0  0
 28 67  1  0  0  0  0
 29 30  2  0  0  0  0
 29 33  1  0  0  0  0
 30 31  1  0  0  0  0
 30 68  1  0  0  0  0
 31 32  2  0  0  0  0
 31 69  1  0  0  0  0
 33 34  1  0  0  0  0
 33 35  1  0  0  0  0
 33 36  1  0  0  0  0
 34 70  1  0  0  0  0
 34 71  1  0  0  0  0
 34 72  1  0  0  0  0
 35 73  1  0  0  0  0
 35 74  1  0  0  0  0
 35 75  1  0  0  0  0
 36 76  1  0  0  0  0
 36 77  1  0  0  0  0
 36 78  1  0  0  0  0
 37 79  1  0  0  0  0
M  END
>  <s_m_source_file>
BACE_97.smi

>  <i_m_source_file_index>
1

>  <i_lp_mmshare_version>
42013

>  <i_f3d_flags>
0

>  <s_epik_input>
YzEyW2NIXWMoW0NIM10pbmMoW2NIXTEpW05IXVtDSDJdW0NIMl1bQ0gyXVtDSDJdYzNbY0hdW2NIXVtjSF1jKFtjSF0zKVtDSDJdW0NASF0oW05IXUMyPU8pW0NASF0oW09IXSlbQ0gyXVtOSF1bQ0gyXWM0W2NIXWMoW2NIXVtjSF1uNClDKFtDSDNdKShbQ0gzXSlbQ0gzXQ==

>  <s_epik_cmdline>
J2VwaWtfcHl0aG9uJywgJy1waCcsICc3LjAnLCAnLXRuJywgJzgnLCAnLW1hJywgJzIwMCcsICctaW1hZScsICc8aW5maWxlLm1hZT4nLCAnLW9tYWUnLCAnPG91dGZpbGUubWFlPic=

>  <r_lp_tautomer_probability>
1

>  <r_epik_Ionization_Penalty>
1.6406

>  <r_epik_Ionization_Penalty_Charging>
0.0000

>  <r_epik_Ionization_Penalty_Neutral>
1.6406

>  <r_epik_State_Penalty>
1.7289

>  <r_epik_Charging_Adjusted_Penalty>
1.72887

>  <i_epik_Tot_Q>
0

>  <i_epik_Tot_abs_Q>
0

>  <s_lp_Force_Field>
OPLS_2005

>  <r_lp_Energy>
35.3464

>  <b_lp_Chiralities_Consistent>
1

>  <s_lp_Variant>
BACE_97.smi:1-2

>  <chiral flag>
1

>  <version>
0

>  <s_i_glide_gridfile>
second_dock_grid_2

>  <i_i_glide_lignum>
197

>  <i_i_glide_rotatable_bonds>
7

>  <r_i_docking_score>
-2.65402

>  <r_i_glide_ligand_efficiency>
-0.0698426

>  <r_i_glide_ligand_efficiency_sa>
-0.234809

>  <r_i_glide_ligand_efficiency_ln>
-0.572285

>  <r_glide_XP_GScore>
-4.38292

>  <r_i_glide_gscore>
-4.38292

>  <r_i_glide_evdw>
-38.7324

>  <r_i_glide_ecoul>
-15.8264

>  <r_i_glide_energy>
-54.5588

>  <r_i_glide_einternal>
10.2638

>  <r_i_glide_emodel>
-67.3268

>  <r_glide_XP_HBond>
-1.33

>  <i_i_glide_confnum>
1

>  <i_i_glide_posenum>
6

>  <r_i_glide_eff_state_penalty>
1.7289

>  <i_glide_XP_PoseRank>
1

$$$$
