BACE_41.smi:1
 OpenBabel09291822493D
Structure written by MMmdl.
 82 84  0  0  1  0  0  0  0  0999 V2000
   21.4453   48.6604   -5.2572 C   0  0  0  0  0  0  0  0  0  0  0  0
   21.3661   47.2295   -5.8351 C   0  0  0  0  0  0  0  0  0  0  0  0
   22.6615   46.8496   -6.5730 C   0  0  0  0  0  0  0  0  0  0  0  0
   20.1534   47.0266   -6.7298 C   0  0  0  0  0  0  0  0  0  0  0  0
   19.8228   47.9795   -7.7192 C   0  0  0  0  0  0  0  0  0  0  0  0
   18.6942   47.7912   -8.5384 C   0  0  0  0  0  0  0  0  0  0  0  0
   17.8990   46.6448   -8.3827 C   0  0  0  0  0  0  0  0  0  0  0  0
   18.2316   45.6740   -7.4185 C   0  0  0  0  0  0  0  0  0  0  0  0
   17.3182   44.4774   -7.2444 C   0  0  0  0  0  0  0  0  0  0  0  0
   17.9556   43.1665   -7.3525 N   0  0  0  0  0  0  0  0  0  0  0  0
   17.3178   42.2887   -8.3396 C   0  0  0  0  0  0  0  0  0  0  0  0
   15.9085   41.7500   -7.9297 C   0  0  1  0  0  0  0  0  0  0  0  0
   14.9534   42.7835   -8.0400 O   0  0  0  0  0  0  0  0  0  0  0  0
   15.3324   40.5043   -8.6847 C   0  0  2  0  0  0  0  0  0  0  0  0
   16.3064   39.3661   -9.0369 C   0  0  0  0  0  0  0  0  0  0  0  0
   16.5688   38.3533   -7.9131 C   0  0  2  0  0  0  0  0  0  0  0  0
   17.1993   38.9499   -6.6425 C   0  0  0  0  0  0  0  0  0  0  0  0
   17.3254   37.1141   -8.4393 C   0  0  0  0  0  0  0  0  0  0  0  0
   18.5309   37.3836   -9.3385 C   0  0  0  0  0  0  0  0  0  0  0  0
   19.6657   38.1891   -8.6698 C   0  0  0  0  0  0  0  0  0  0  0  0
   20.9434   38.3273   -9.5087 C   0  0  0  0  0  0  0  0  0  0  0  0
   20.7305   38.9867  -10.8805 C   0  0  0  0  0  0  0  0  0  0  0  0
   20.2661   40.4446  -10.7841 C   0  0  0  0  0  0  0  0  0  0  0  0
   19.9969   41.0591  -12.1572 C   0  0  0  0  0  0  0  0  0  0  0  0
   19.5114   42.4224  -12.0392 N   0  0  0  0  0  0  0  0  0  0  0  0
   18.1710   42.7305  -11.8177 C   0  0  0  0  0  0  0  0  0  0  0  0
   17.1768   41.7569  -11.5605 C   0  0  0  0  0  0  0  0  0  0  0  0
   15.8752   42.1946  -11.2404 C   0  0  0  0  0  0  0  0  0  0  0  0
   15.6007   43.5762  -11.2679 C   0  0  0  0  0  0  0  0  0  0  0  0
   16.6443   44.4618  -11.5912 C   0  0  0  0  0  0  0  0  0  0  0  0
   16.3915   45.9491  -11.7048 C   0  0  0  0  0  0  0  0  0  0  0  0
   17.8991   44.0507  -11.8517 N   0  0  0  0  0  0  0  0  0  0  0  0
   14.7515   41.2273  -11.0584 C   0  0  0  0  0  0  0  0  0  0  0  0
   14.0599   40.9500  -12.0377 O   0  0  0  0  0  0  0  0  0  0  0  0
   14.4597   40.7686   -9.8339 N   0  0  0  0  0  0  0  0  0  0  0  0
   19.3569   45.8646   -6.5897 C   0  0  0  0  0  0  0  0  0  0  0  0
   15.9548   41.4887   -6.8725 H   0  0  0  0  0  0  0  0  0  0  0  0
   14.6129   40.0751   -7.9823 H   0  0  0  0  0  0  0  0  0  0  0  0
   15.5932   37.9688   -7.6107 H   0  0  0  0  0  0  0  0  0  0  0  0
   20.5117   48.9500   -4.7677 H   0  0  0  0  0  0  0  0  0  0  0  0
   21.6470   49.4008   -6.0341 H   0  0  0  0  0  0  0  0  0  0  0  0
   22.2456   48.7409   -4.5202 H   0  0  0  0  0  0  0  0  0  0  0  0
   21.2641   46.5473   -4.9863 H   0  0  0  0  0  0  0  0  0  0  0  0
   22.6258   45.8110   -6.9142 H   0  0  0  0  0  0  0  0  0  0  0  0
   23.5357   46.9519   -5.9283 H   0  0  0  0  0  0  0  0  0  0  0  0
   22.8180   47.4787   -7.4519 H   0  0  0  0  0  0  0  0  0  0  0  0
   20.4280   48.8618   -7.8549 H   0  0  0  0  0  0  0  0  0  0  0  0
   18.4459   48.5278   -9.2891 H   0  0  0  0  0  0  0  0  0  0  0  0
   17.0266   46.5166   -9.0061 H   0  0  0  0  0  0  0  0  0  0  0  0
   16.8603   44.5513   -6.2708 H   0  0  0  0  0  0  0  0  0  0  0  0
   16.5142   44.5903   -7.9706 H   0  0  0  0  0  0  0  0  0  0  0  0
   17.9071   42.6937   -6.4478 H   0  0  0  0  0  0  0  0  0  0  0  0
   17.2711   42.8278   -9.2764 H   0  0  0  0  0  0  0  0  0  0  0  0
   17.9947   41.4523   -8.4934 H   0  0  0  0  0  0  0  0  0  0  0  0
   14.8596   43.1192   -7.1506 H   0  0  0  0  0  0  0  0  0  0  0  0
   15.8820   38.7906   -9.8617 H   0  0  0  0  0  0  0  0  0  0  0  0
   17.2335   39.7680   -9.4353 H   0  0  0  0  0  0  0  0  0  0  0  0
   17.9757   39.6840   -6.8476 H   0  0  0  0  0  0  0  0  0  0  0  0
   17.6342   38.1716   -6.0114 H   0  0  0  0  0  0  0  0  0  0  0  0
   16.4349   39.4439   -6.0401 H   0  0  0  0  0  0  0  0  0  0  0  0
   17.6510   36.4846   -7.6113 H   0  0  0  0  0  0  0  0  0  0  0  0
   16.6201   36.5002   -8.9996 H   0  0  0  0  0  0  0  0  0  0  0  0
   18.8607   36.3995   -9.6415 H   0  0  0  0  0  0  0  0  0  0  0  0
   18.2030   37.8694  -10.2582 H   0  0  0  0  0  0  0  0  0  0  0  0
   19.3159   39.1879   -8.4336 H   0  0  0  0  0  0  0  0  0  0  0  0
   19.9179   37.7500   -7.7069 H   0  0  0  0  0  0  0  0  0  0  0  0
   21.6753   38.9080   -8.9455 H   0  0  0  0  0  0  0  0  0  0  0  0
   21.3983   37.3500   -9.6398 H   0  0  0  0  0  0  0  0  0  0  0  0
   21.6622   38.9534  -11.4372 H   0  0  0  0  0  0  0  0  0  0  0  0
   20.0245   38.4080  -11.4727 H   0  0  0  0  0  0  0  0  0  0  0  0
   19.3583   40.5079  -10.1924 H   0  0  0  0  0  0  0  0  0  0  0  0
   21.0129   41.0308  -10.2484 H   0  0  0  0  0  0  0  0  0  0  0  0
   20.9188   41.0721  -12.7385 H   0  0  0  0  0  0  0  0  0  0  0  0
   19.2898   40.4549  -12.7252 H   0  0  0  0  0  0  0  0  0  0  0  0
   20.1733   43.1841  -12.0739 H   0  0  0  0  0  0  0  0  0  0  0  0
   17.3966   40.6993  -11.5798 H   0  0  0  0  0  0  0  0  0  0  0  0
   14.6037   43.9448  -11.0753 H   0  0  0  0  0  0  0  0  0  0  0  0
   15.5480   46.2481  -11.0776 H   0  0  0  0  0  0  0  0  0  0  0  0
   16.1614   46.2055  -12.7417 H   0  0  0  0  0  0  0  0  0  0  0  0
   17.2671   46.5260  -11.3963 H   0  0  0  0  0  0  0  0  0  0  0  0
   13.5528   40.3232   -9.7592 H   0  0  0  0  0  0  0  0  0  0  0  0
   19.6076   45.1192   -5.8484 H   0  0  0  0  0  0  0  0  0  0  0  0
  1  2  1  0  0  0  0
  1 40  1  0  0  0  0
  1 41  1  0  0  0  0
  1 42  1  0  0  0  0
  2  3  1  0  0  0  0
  2  4  1  0  0  0  0
  2 43  1  0  0  0  0
  3 44  1  0  0  0  0
  3 45  1  0  0  0  0
  3 46  1  0  0  0  0
  4 36  1  0  0  0  0
  4  5  2  0  0  0  0
  5  6  1  0  0  0  0
  5 47  1  0  0  0  0
  6  7  2  0  0  0  0
  6 48  1  0  0  0  0
  7  8  1  0  0  0  0
  7 49  1  0  0  0  0
  8  9  1  0  0  0  0
  8 36  2  0  0  0  0
  9 10  1  0  0  0  0
  9 50  1  0  0  0  0
  9 51  1  0  0  0  0
 10 11  1  0  0  0  0
 10 52  1  0  0  0  0
 11 12  1  0  0  0  0
 11 53  1  0  0  0  0
 11 54  1  0  0  0  0
 12 37  1  1  0  0  0
 12 13  1  0  0  0  0
 12 14  1  0  0  0  0
 13 55  1  0  0  0  0
 14 38  1  1  0  0  0
 14 35  1  0  0  0  0
 14 15  1  0  0  0  0
 15 16  1  0  0  0  0
 15 56  1  0  0  0  0
 15 57  1  0  0  0  0
 16 39  1  1  0  0  0
 16 17  1  0  0  0  0
 16 18  1  0  0  0  0
 17 58  1  0  0  0  0
 17 59  1  0  0  0  0
 17 60  1  0  0  0  0
 18 19  1  0  0  0  0
 18 61  1  0  0  0  0
 18 62  1  0  0  0  0
 19 20  1  0  0  0  0
 19 63  1  0  0  0  0
 19 64  1  0  0  0  0
 20 21  1  0  0  0  0
 20 65  1  0  0  0  0
 20 66  1  0  0  0  0
 21 22  1  0  0  0  0
 21 67  1  0  0  0  0
 21 68  1  0  0  0  0
 22 23  1  0  0  0  0
 22 69  1  0  0  0  0
 22 70  1  0  0  0  0
 23 24  1  0  0  0  0
 23 71  1  0  0  0  0
 23 72  1  0  0  0  0
 24 25  1  0  0  0  0
 24 73  1  0  0  0  0
 24 74  1  0  0  0  0
 25 26  1  0  0  0  0
 25 75  1  0  0  0  0
 26 32  1  0  0  0  0
 26 27  2  0  0  0  0
 27 28  1  0  0  0  0
 27 76  1  0  0  0  0
 28 29  2  0  0  0  0
 28 33  1  0  0  0  0
 29 30  1  0  0  0  0
 29 77  1  0  0  0  0
 30 31  1  0  0  0  0
 30 32  2  0  0  0  0
 31 78  1  0  0  0  0
 31 79  1  0  0  0  0
 31 80  1  0  0  0  0
 33 34  2  0  0  0  0
 33 35  1  0  0  0  0
 35 81  1  0  0  0  0
 36 82  1  0  0  0  0
M  END
>  <s_m_source_file>
BACE_41.smi

>  <i_m_source_file_index>
1

>  <i_lp_mmshare_version>
42013

>  <i_f3d_flags>
0

>  <s_epik_input>
W0NIM11bQ0hdKFtDSDNdKWMxW2NIXVtjSF1bY0hdYyhbY0hdMSlbQ0gyXVtOSF1bQ0gyXVtDQEBIXShbT0hdKVtDQEBIXShbTkhdQyg9TyljKFtjSF1jMjMpW2NIXWMobjMpW0NIM10pW0NIMl1bQ0BIXShbQ0gzXSlbQ0gyXVtDSDJdW0NIMl1bQ0gyXVtDSDJdW0NIMl1bQ0gyXVtOSF0y

>  <s_epik_cmdline>
J2VwaWtfcHl0aG9uJywgJy1waCcsICc3LjAnLCAnLXRuJywgJzgnLCAnLW1hJywgJzIwMCcsICctaW1hZScsICc8aW5maWxlLm1hZT4nLCAnLW9tYWUnLCAnPG91dGZpbGUubWFlPic=

>  <r_lp_tautomer_probability>
1

>  <r_epik_Ionization_Penalty>
2.1208

>  <r_epik_Ionization_Penalty_Charging>
0.0000

>  <r_epik_Ionization_Penalty_Neutral>
2.1208

>  <r_epik_State_Penalty>
2.3075

>  <r_epik_Charging_Adjusted_Penalty>
2.30751

>  <i_epik_Tot_Q>
0

>  <i_epik_Tot_abs_Q>
0

>  <s_lp_Force_Field>
OPLS_2005

>  <r_lp_Energy>
42.6855

>  <b_lp_Chiralities_Consistent>
1

>  <s_lp_Variant>
BACE_41.smi:1-2

>  <chiral flag>
1

>  <version>
0

>  <s_i_glide_gridfile>
second_dock_grid_2

>  <i_i_glide_lignum>
74

>  <i_i_glide_rotatable_bonds>
7

>  <r_i_docking_score>
-1.6419

>  <r_i_glide_ligand_efficiency>
-0.0456085

>  <r_i_glide_ligand_efficiency_sa>
-0.150596

>  <r_i_glide_ligand_efficiency_ln>
-0.358219

>  <r_glide_XP_GScore>
-3.9494

>  <r_i_glide_gscore>
-3.9494

>  <r_i_glide_evdw>
-29.5007

>  <r_i_glide_ecoul>
-21.8695

>  <r_i_glide_energy>
-51.3702

>  <r_i_glide_einternal>
5.01584

>  <r_i_glide_emodel>
-58.2446

>  <r_glide_XP_HBond>
-1.27847

>  <i_i_glide_confnum>
1

>  <i_i_glide_posenum>
8

>  <r_i_glide_eff_state_penalty>
2.3075

>  <i_glide_XP_PoseRank>
1

$$$$
