BACE_23.smi:1
 OpenBabel09291822493D
Structure written by MMmdl.
 91 93  0  0  1  0  0  0  0  0999 V2000
   20.0302   43.5328   -9.1466 C   0  0  0  0  0  0  0  0  0  0  0  0
   20.8272   42.9665  -10.3364 C   0  0  2  0  0  0  0  0  0  0  0  0
   22.0382   43.8543  -10.7187 C   0  0  0  0  0  0  0  0  0  0  0  0
   21.7441   45.2577  -11.2944 C   0  0  0  0  0  0  0  0  0  0  0  0
   21.4110   46.3382  -10.2476 C   0  0  0  0  0  0  0  0  0  0  0  0
   21.2660   47.7546  -10.8353 C   0  0  0  0  0  0  0  0  0  0  0  0
   20.1926   47.9143  -11.9315 C   0  0  0  0  0  0  0  0  0  0  0  0
   18.7848   47.4028  -11.5738 C   0  0  0  0  0  0  0  0  0  0  0  0
   18.1604   48.0893  -10.3442 C   0  0  0  0  0  0  0  0  0  0  0  0
   16.6951   47.6911  -10.0743 C   0  0  0  0  0  0  0  0  0  0  0  0
   16.5369   46.1992   -9.7195 C   0  0  0  0  0  0  0  0  0  0  0  0
   17.0244   45.8310   -8.6517 O   0  0  0  0  0  0  0  0  0  0  0  0
   15.8940   45.3498  -10.5658 N   0  0  0  0  0  0  0  0  0  0  0  0
   15.3160   45.8239  -11.8344 C   0  0  0  0  0  0  0  0  0  0  0  0
   15.8804   43.8880  -10.2940 C   0  0  1  0  0  0  0  0  0  0  0  0
   14.4546   43.3057  -10.4080 C   0  0  0  0  0  0  0  0  0  0  0  0
   16.8474   43.1400  -11.2301 C   0  0  0  0  0  0  0  0  0  0  0  0
   16.8567   43.3523  -12.4427 O   0  0  0  0  0  0  0  0  0  0  0  0
   17.6834   42.2645  -10.6600 N   0  0  0  0  0  0  0  0  0  0  0  0
   18.7764   41.5949  -11.3628 C   0  0  1  0  0  0  0  0  0  0  0  0
   19.9645   42.5819  -11.5753 C   0  0  0  0  0  0  0  0  0  0  0  0
   19.1854   40.3168  -10.6100 C   0  0  2  0  0  0  0  0  0  0  0  0
   20.1683   39.6124  -11.3502 O   0  0  0  0  0  0  0  0  0  0  0  0
   18.0589   39.3122  -10.3043 C   0  0  0  0  0  0  0  0  0  0  0  0
   18.5242   38.2036   -9.4543 N   0  0  0  0  0  0  0  0  0  0  0  0
   18.7198   38.5076   -8.0212 C   0  0  0  0  0  0  0  0  0  0  0  0
   18.1088   37.5236   -7.0628 C   0  0  0  0  0  0  0  0  0  0  0  0
   17.4501   38.8636   -7.2652 C   0  0  0  0  0  0  0  0  0  0  0  0
   20.0714   39.1125   -7.6551 C   0  0  0  0  0  0  0  0  0  0  0  0
   20.3270   39.7774   -6.4310 C   0  0  0  0  0  0  0  0  0  0  0  0
   21.5344   40.4969   -6.2267 C   0  0  0  0  0  0  0  0  0  0  0  0
   22.4786   40.4829   -7.2801 C   0  0  0  0  0  0  0  0  0  0  0  0
   22.2315   39.7317   -8.4390 C   0  0  0  0  0  0  0  0  0  0  0  0
   21.0732   39.0608   -8.5666 N   0  3  0  0  0  0  0  0  0  0  0  0
   21.8303   41.2546   -4.9126 C   0  0  0  0  0  0  0  0  0  0  0  0
   22.6913   40.3611   -4.0058 C   0  0  0  0  0  0  0  0  0  0  0  0
   22.5643   42.5924   -5.1757 C   0  0  0  0  0  0  0  0  0  0  0  0
   20.5537   41.6209   -4.1300 C   0  0  0  0  0  0  0  0  0  0  0  0
   21.2877   42.0482   -9.9741 H   0  0  0  0  0  0  0  0  0  0  0  0
   16.1937   43.6833   -9.2679 H   0  0  0  0  0  0  0  0  0  0  0  0
   18.4085   41.2940  -12.3454 H   0  0  0  0  0  0  0  0  0  0  0  0
   19.5893   40.6651   -9.6683 H   0  0  0  0  0  0  0  0  0  0  0  0
   20.6893   43.9676   -8.3950 H   0  0  0  0  0  0  0  0  0  0  0  0
   19.4551   42.7561   -8.6444 H   0  0  0  0  0  0  0  0  0  0  0  0
   19.3224   44.2965   -9.4663 H   0  0  0  0  0  0  0  0  0  0  0  0
   22.7058   43.9509   -9.8607 H   0  0  0  0  0  0  0  0  0  0  0  0
   22.6199   43.3100  -11.4646 H   0  0  0  0  0  0  0  0  0  0  0  0
   20.9535   45.2010  -12.0405 H   0  0  0  0  0  0  0  0  0  0  0  0
   22.6334   45.5856  -11.8362 H   0  0  0  0  0  0  0  0  0  0  0  0
   20.4964   46.0920   -9.7148 H   0  0  0  0  0  0  0  0  0  0  0  0
   22.1963   46.3553   -9.4900 H   0  0  0  0  0  0  0  0  0  0  0  0
   22.2284   48.0704  -11.2390 H   0  0  0  0  0  0  0  0  0  0  0  0
   21.0513   48.4467  -10.0209 H   0  0  0  0  0  0  0  0  0  0  0  0
   20.1309   48.9694  -12.2029 H   0  0  0  0  0  0  0  0  0  0  0  0
   20.5276   47.4047  -12.8363 H   0  0  0  0  0  0  0  0  0  0  0  0
   18.8143   46.3223  -11.4279 H   0  0  0  0  0  0  0  0  0  0  0  0
   18.1373   47.5702  -12.4354 H   0  0  0  0  0  0  0  0  0  0  0  0
   18.7589   47.8736   -9.4577 H   0  0  0  0  0  0  0  0  0  0  0  0
   18.2082   49.1711  -10.4768 H   0  0  0  0  0  0  0  0  0  0  0  0
   16.0634   48.0193  -10.8958 H   0  0  0  0  0  0  0  0  0  0  0  0
   16.3481   48.2568   -9.2108 H   0  0  0  0  0  0  0  0  0  0  0  0
   14.8854   45.0278  -12.4385 H   0  0  0  0  0  0  0  0  0  0  0  0
   16.0794   46.2940  -12.4560 H   0  0  0  0  0  0  0  0  0  0  0  0
   14.5183   46.5439  -11.6514 H   0  0  0  0  0  0  0  0  0  0  0  0
   14.4311   42.2765  -10.0442 H   0  0  0  0  0  0  0  0  0  0  0  0
   14.0762   43.2867  -11.4287 H   0  0  0  0  0  0  0  0  0  0  0  0
   13.7508   43.8733   -9.7988 H   0  0  0  0  0  0  0  0  0  0  0  0
   17.6209   42.1302   -9.6607 H   0  0  0  0  0  0  0  0  0  0  0  0
   20.6314   42.1465  -12.3189 H   0  0  0  0  0  0  0  0  0  0  0  0
   19.5786   43.4870  -12.0404 H   0  0  0  0  0  0  0  0  0  0  0  0
   19.7898   39.3517  -12.1786 H   0  0  0  0  0  0  0  0  0  0  0  0
   17.6684   38.9167  -11.2401 H   0  0  0  0  0  0  0  0  0  0  0  0
   17.2185   39.8143   -9.8258 H   0  0  0  0  0  0  0  0  0  0  0  0
   19.3604   37.8064   -9.8625 H   0  0  0  0  0  0  0  0  0  0  0  0
   17.6602   36.6412   -7.5122 H   0  0  0  0  0  0  0  0  0  0  0  0
   18.5610   37.3683   -6.0856 H   0  0  0  0  0  0  0  0  0  0  0  0
   17.4970   39.5721   -6.4439 H   0  0  0  0  0  0  0  0  0  0  0  0
   16.4914   38.8319   -7.7787 H   0  0  0  0  0  0  0  0  0  0  0  0
   19.5723   39.7500   -5.6652 H   0  0  0  0  0  0  0  0  0  0  0  0
   23.3942   41.0438   -7.2402 H   0  0  0  0  0  0  0  0  0  0  0  0
   22.8934   39.7059   -9.2919 H   0  0  0  0  0  0  0  0  0  0  0  0
   22.2039   39.4050   -3.8172 H   0  0  0  0  0  0  0  0  0  0  0  0
   22.8601   40.8349   -3.0386 H   0  0  0  0  0  0  0  0  0  0  0  0
   23.6643   40.1506   -4.4437 H   0  0  0  0  0  0  0  0  0  0  0  0
   21.9933   43.2299   -5.8529 H   0  0  0  0  0  0  0  0  0  0  0  0
   23.5583   42.4708   -5.6009 H   0  0  0  0  0  0  0  0  0  0  0  0
   22.7061   43.1539   -4.2509 H   0  0  0  0  0  0  0  0  0  0  0  0
   19.8954   42.2465   -4.7299 H   0  0  0  0  0  0  0  0  0  0  0  0
   20.7903   42.1894   -3.2278 H   0  0  0  0  0  0  0  0  0  0  0  0
   20.0083   40.7398   -3.7948 H   0  0  0  0  0  0  0  0  0  0  0  0
   20.8957   38.6102   -9.4640 H   0  0  0  0  0  0  0  0  0  0  0  0
  1  2  1  0  0  0  0
  1 43  1  0  0  0  0
  1 44  1  0  0  0  0
  1 45  1  0  0  0  0
  2 39  1  1  0  0  0
  2 21  1  0  0  0  0
  2  3  1  0  0  0  0
  3  4  1  0  0  0  0
  3 46  1  0  0  0  0
  3 47  1  0  0  0  0
  4  5  1  0  0  0  0
  4 48  1  0  0  0  0
  4 49  1  0  0  0  0
  5  6  1  0  0  0  0
  5 50  1  0  0  0  0
  5 51  1  0  0  0  0
  6  7  1  0  0  0  0
  6 52  1  0  0  0  0
  6 53  1  0  0  0  0
  7  8  1  0  0  0  0
  7 54  1  0  0  0  0
  7 55  1  0  0  0  0
  8  9  1  0  0  0  0
  8 56  1  0  0  0  0
  8 57  1  0  0  0  0
  9 10  1  0  0  0  0
  9 58  1  0  0  0  0
  9 59  1  0  0  0  0
 10 11  1  0  0  0  0
 10 60  1  0  0  0  0
 10 61  1  0  0  0  0
 11 12  2  0  0  0  0
 11 13  1  0  0  0  0
 13 14  1  0  0  0  0
 13 15  1  0  0  0  0
 14 62  1  0  0  0  0
 14 63  1  0  0  0  0
 14 64  1  0  0  0  0
 15 40  1  1  0  0  0
 15 16  1  0  0  0  0
 15 17  1  0  0  0  0
 16 65  1  0  0  0  0
 16 66  1  0  0  0  0
 16 67  1  0  0  0  0
 17 18  2  0  0  0  0
 17 19  1  0  0  0  0
 19 20  1  0  0  0  0
 19 68  1  0  0  0  0
 20 41  1  6  0  0  0
 20 21  1  0  0  0  0
 20 22  1  0  0  0  0
 21 69  1  0  0  0  0
 21 70  1  0  0  0  0
 22 42  1  1  0  0  0
 22 23  1  0  0  0  0
 22 24  1  0  0  0  0
 23 71  1  0  0  0  0
 24 25  1  0  0  0  0
 24 72  1  0  0  0  0
 24 73  1  0  0  0  0
 25 26  1  0  0  0  0
 25 74  1  0  0  0  0
 26 28  1  0  0  0  0
 26 27  1  0  0  0  0
 26 29  1  0  0  0  0
 27 28  1  0  0  0  0
 27 75  1  0  0  0  0
 27 76  1  0  0  0  0
 28 77  1  0  0  0  0
 28 78  1  0  0  0  0
 29 34  1  0  0  0  0
 29 30  2  0  0  0  0
 30 31  1  0  0  0  0
 30 79  1  0  0  0  0
 31 32  2  0  0  0  0
 31 35  1  0  0  0  0
 32 33  1  0  0  0  0
 32 80  1  0  0  0  0
 33 34  2  0  0  0  0
 33 81  1  0  0  0  0
 34 91  1  0  0  0  0
 35 36  1  0  0  0  0
 35 37  1  0  0  0  0
 35 38  1  0  0  0  0
 36 82  1  0  0  0  0
 36 83  1  0  0  0  0
 36 84  1  0  0  0  0
 37 85  1  0  0  0  0
 37 86  1  0  0  0  0
 37 87  1  0  0  0  0
 38 88  1  0  0  0  0
 38 89  1  0  0  0  0
 38 90  1  0  0  0  0
M  CHG  1  34   1
M  END
>  <s_m_source_file>
BACE_23.smi

>  <i_m_source_file_index>
1

>  <i_lp_mmshare_version>
42013

>  <i_f3d_flags>
0

>  <s_epik_input>
W0NIM11bQ0BASF0xW0NIMl1bQ0gyXVtDSDJdW0NIMl1bQ0gyXVtDSDJdW0NIMl1bQ0gyXUMoPU8pTihbQ0gzXSlbQ0BASF0oW0NIM10pQyg9TylbTkhdW0NAQEhdKFtDSDJdMSlbQ0BIXShbT0hdKVtDSDJdW05IXUMyKFtDSDJdW0NIMl0yKWMzW2NIXWMoW2NIXVtjSF1uMylDKFtDSDNdKShbQ0gzXSlbQ0gzXQ==

>  <s_epik_cmdline>
J2VwaWtfcHl0aG9uJywgJy1waCcsICc3LjAnLCAnLXRuJywgJzgnLCAnLW1hJywgJzIwMCcsICctaW1hZScsICc8aW5maWxlLm1hZT4nLCAnLW9tYWUnLCAnPG91dGZpbGUubWFlPic=

>  <r_epik_Ionization_Penalty>
2.3622

>  <r_epik_Ionization_Penalty_Charging>
2.3621

>  <r_epik_Ionization_Penalty_Neutral>
0.0000

>  <r_epik_State_Penalty>
1.4993

>  <r_epik_Charging_Adjusted_Penalty>
3.86143

>  <i_epik_Tot_Q>
1

>  <i_epik_Tot_abs_Q>
1

>  <s_lp_Force_Field>
OPLS_2005

>  <r_lp_Energy>
57.9636

>  <b_lp_Chiralities_Consistent>
1

>  <s_lp_Variant>
BACE_23.smi:1-2

>  <chiral flag>
1

>  <version>
0

>  <s_i_glide_gridfile>
second_dock_grid_2

>  <i_i_glide_lignum>
37

>  <i_i_glide_rotatable_bonds>
7

>  <r_i_docking_score>
-2.00817

>  <r_i_glide_ligand_efficiency>
-0.0528466

>  <r_i_glide_ligand_efficiency_sa>
-0.177669

>  <r_i_glide_ligand_efficiency_ln>
-0.433021

>  <r_glide_XP_GScore>
-3.50747

>  <r_i_glide_gscore>
-3.50747

>  <r_i_glide_evdw>
-34.8402

>  <r_i_glide_ecoul>
-10.9764

>  <r_i_glide_energy>
-45.8166

>  <r_i_glide_einternal>
10.9629

>  <r_i_glide_emodel>
-55.4181

>  <r_glide_XP_HBond>
-0.55174

>  <i_i_glide_confnum>
1

>  <i_i_glide_posenum>
3

>  <r_i_glide_eff_state_penalty>
1.4993

>  <i_glide_XP_PoseRank>
1

$$$$
