BACE_7.smi:1
 OpenBabel09291822493D
Structure written by MMmdl.
 99103  0  0  1  0  0  0  0  0999 V2000
   21.9156   39.1405   -9.2671 C   0  0  0  0  0  0  0  0  0  0  0  0
   20.9728   39.3765   -8.0699 C   0  0  0  0  0  0  0  0  0  0  0  0
   21.5997   38.8326   -6.7840 C   0  0  0  0  0  0  0  0  0  0  0  0
   19.5590   38.8217   -8.2587 C   0  0  0  0  0  0  0  0  0  0  0  0
   18.5121   39.3068   -7.4402 C   0  0  0  0  0  0  0  0  0  0  0  0
   17.2032   38.7884   -7.5592 C   0  0  0  0  0  0  0  0  0  0  0  0
   16.0685   39.3001   -6.6795 C   0  0  0  0  0  0  0  0  0  0  0  0
   15.6108   40.6370   -7.1090 N   0  3  0  0  0  0  0  0  0  0  0  0
   15.0056   40.6749   -8.4658 C   0  0  0  0  0  0  0  0  0  0  0  0
   14.7899   42.1070   -9.0170 C   0  0  1  0  0  0  0  0  0  0  0  0
   14.1973   42.9493   -8.0401 O   0  0  0  0  0  0  0  0  0  0  0  0
   15.9783   42.7854   -9.7799 C   0  0  2  0  0  0  0  0  0  0  0  0
   17.3819   42.1470   -9.5704 C   0  0  0  0  0  0  0  0  0  0  0  0
   18.5420   42.8011  -10.3718 C   0  0  2  0  0  0  0  0  0  0  0  0
   18.4346   42.5068  -11.8796 C   0  0  0  0  0  0  0  0  0  0  0  0
   19.9093   42.3732   -9.8079 C   0  0  0  0  0  0  0  0  0  0  0  0
   21.1238   43.2049  -10.2793 C   0  0  0  0  0  0  0  0  0  0  0  0
   21.0558   44.7212   -9.9928 C   0  0  0  0  0  0  0  0  0  0  0  0
   20.8162   45.0696   -8.5148 C   0  0  0  0  0  0  0  0  0  0  0  0
   20.9176   46.5841   -8.2199 C   0  0  0  0  0  0  0  0  0  0  0  0
   20.3833   46.9497   -6.8868 N   0  0  0  0  0  0  0  0  0  0  0  0
   21.3730   47.0387   -5.7911 C   0  0  2  0  0  0  0  0  0  0  0  0
   21.9798   48.4532   -5.7168 C   0  0  0  0  0  0  0  0  0  0  0  0
   22.3915   45.9030   -5.7570 C   0  0  0  0  0  0  0  0  0  0  0  0
   23.7131   46.0691   -6.2340 C   0  0  0  0  0  0  0  0  0  0  0  0
   24.6218   44.9965   -6.1816 C   0  0  0  0  0  0  0  0  0  0  0  0
   24.2158   43.7564   -5.6547 C   0  0  0  0  0  0  0  0  0  0  0  0
   22.9006   43.5767   -5.1901 C   0  0  0  0  0  0  0  0  0  0  0  0
   21.9934   44.6492   -5.2406 C   0  0  0  0  0  0  0  0  0  0  0  0
   19.0858   47.3038   -6.6646 C   0  0  0  0  0  0  0  0  0  0  0  0
   18.6163   47.5553   -5.5532 O   0  0  0  0  0  0  0  0  0  0  0  0
   18.1886   47.4613   -7.8517 C   0  0  0  0  0  0  0  0  0  0  0  0
   17.5902   46.3360   -8.4453 C   0  0  0  0  0  0  0  0  0  0  0  0
   16.7844   46.4676   -9.6009 C   0  0  0  0  0  0  0  0  0  0  0  0
   16.5958   47.7504  -10.1576 C   0  0  0  0  0  0  0  0  0  0  0  0
   17.1417   48.8938   -9.5269 C   0  0  0  0  0  0  0  0  0  0  0  0
   17.9431   48.7422   -8.3784 C   0  0  0  0  0  0  0  0  0  0  0  0
   16.8601   50.2308  -10.0334 C   0  0  0  0  0  0  0  0  0  0  0  0
   16.8632   51.3801   -9.3571 N   0  0  0  0  0  0  0  0  0  0  0  0
   16.4626   52.3420  -10.2736 C   0  0  0  0  0  0  0  0  0  0  0  0
   16.2187   51.7147  -11.4664 C   0  0  0  0  0  0  0  0  0  0  0  0
   16.4601   50.3745  -11.3271 O   0  0  0  0  0  0  0  0  0  0  0  0
   16.1960   45.2490  -10.2563 C   0  0  0  0  0  0  0  0  0  0  0  0
   15.9015   45.2284  -11.4515 O   0  0  0  0  0  0  0  0  0  0  0  0
   16.0623   44.2020   -9.4301 N   0  0  0  0  0  0  0  0  0  0  0  0
   16.9401   37.7808   -8.5076 C   0  0  0  0  0  0  0  0  0  0  0  0
   17.9724   37.2938   -9.3237 C   0  0  0  0  0  0  0  0  0  0  0  0
   19.2733   37.8121   -9.2049 C   0  0  0  0  0  0  0  0  0  0  0  0
   14.0032   42.0034   -9.7658 H   0  0  0  0  0  0  0  0  0  0  0  0
   15.7459   42.7016  -10.8419 H   0  0  0  0  0  0  0  0  0  0  0  0
   18.4932   43.8757  -10.2352 H   0  0  0  0  0  0  0  0  0  0  0  0
   20.8598   46.8935   -4.8451 H   0  0  0  0  0  0  0  0  0  0  0  0
   21.4867   39.5035  -10.2010 H   0  0  0  0  0  0  0  0  0  0  0  0
   22.1522   38.0831   -9.3964 H   0  0  0  0  0  0  0  0  0  0  0  0
   22.8612   39.6610   -9.1180 H   0  0  0  0  0  0  0  0  0  0  0  0
   20.8764   40.4531   -7.9405 H   0  0  0  0  0  0  0  0  0  0  0  0
   20.9998   39.0810   -5.9085 H   0  0  0  0  0  0  0  0  0  0  0  0
   22.5988   39.2406   -6.6268 H   0  0  0  0  0  0  0  0  0  0  0  0
   21.6780   37.7497   -6.8381 H   0  0  0  0  0  0  0  0  0  0  0  0
   18.7246   40.0721   -6.7082 H   0  0  0  0  0  0  0  0  0  0  0  0
   15.2279   38.6042   -6.6997 H   0  0  0  0  0  0  0  0  0  0  0  0
   16.3936   39.3497   -5.6420 H   0  0  0  0  0  0  0  0  0  0  0  0
   14.9170   40.9496   -6.4338 H   0  0  0  0  0  0  0  0  0  0  0  0
   15.5715   40.0879   -9.1855 H   0  0  0  0  0  0  0  0  0  0  0  0
   14.0608   40.1469   -8.3970 H   0  0  0  0  0  0  0  0  0  0  0  0
   14.7688   43.0147   -7.2848 H   0  0  0  0  0  0  0  0  0  0  0  0
   17.6161   42.1900   -8.5068 H   0  0  0  0  0  0  0  0  0  0  0  0
   17.3685   41.0892   -9.8310 H   0  0  0  0  0  0  0  0  0  0  0  0
   18.4929   41.4368  -12.0798 H   0  0  0  0  0  0  0  0  0  0  0  0
   19.2356   42.9905  -12.4367 H   0  0  0  0  0  0  0  0  0  0  0  0
   17.4966   42.8736  -12.2943 H   0  0  0  0  0  0  0  0  0  0  0  0
   19.8796   42.4102   -8.7180 H   0  0  0  0  0  0  0  0  0  0  0  0
   20.0732   41.3276  -10.0627 H   0  0  0  0  0  0  0  0  0  0  0  0
   22.0151   42.8011   -9.7962 H   0  0  0  0  0  0  0  0  0  0  0  0
   21.2839   43.0499  -11.3467 H   0  0  0  0  0  0  0  0  0  0  0  0
   21.9947   45.1704  -10.3151 H   0  0  0  0  0  0  0  0  0  0  0  0
   20.2865   45.1846  -10.6088 H   0  0  0  0  0  0  0  0  0  0  0  0
   19.8466   44.6901   -8.2039 H   0  0  0  0  0  0  0  0  0  0  0  0
   21.5477   44.5283   -7.9183 H   0  0  0  0  0  0  0  0  0  0  0  0
   21.9593   46.8961   -8.3012 H   0  0  0  0  0  0  0  0  0  0  0  0
   20.4193   47.1472   -9.0083 H   0  0  0  0  0  0  0  0  0  0  0  0
   22.6588   48.5435   -4.8678 H   0  0  0  0  0  0  0  0  0  0  0  0
   21.2008   49.2063   -5.5916 H   0  0  0  0  0  0  0  0  0  0  0  0
   22.5323   48.7065   -6.6213 H   0  0  0  0  0  0  0  0  0  0  0  0
   24.0448   47.0106   -6.6442 H   0  0  0  0  0  0  0  0  0  0  0  0
   25.6329   45.1261   -6.5382 H   0  0  0  0  0  0  0  0  0  0  0  0
   24.9246   42.9501   -5.5962 H   0  0  0  0  0  0  0  0  0  0  0  0
   22.5948   42.6231   -4.7859 H   0  0  0  0  0  0  0  0  0  0  0  0
   20.9854   44.5076   -4.8757 H   0  0  0  0  0  0  0  0  0  0  0  0
   17.7774   45.3676   -8.0067 H   0  0  0  0  0  0  0  0  0  0  0  0
   15.9992   47.8641  -11.0511 H   0  0  0  0  0  0  0  0  0  0  0  0
   18.3805   49.6106   -7.9049 H   0  0  0  0  0  0  0  0  0  0  0  0
   16.3753   53.3860  -10.0100 H   0  0  0  0  0  0  0  0  0  0  0  0
   15.8928   52.0551  -12.4382 H   0  0  0  0  0  0  0  0  0  0  0  0
   16.2329   44.3895   -8.4553 H   0  0  0  0  0  0  0  0  0  0  0  0
   15.9481   37.3626   -8.5940 H   0  0  0  0  0  0  0  0  0  0  0  0
   17.7672   36.5158  -10.0408 H   0  0  0  0  0  0  0  0  0  0  0  0
   20.0438   37.3995   -9.8369 H   0  0  0  0  0  0  0  0  0  0  0  0
   16.4058   41.2550   -7.0566 H   0  0  0  0  0  0  0  0  0  0  0  0
  1  2  1  0  0  0  0
  1 53  1  0  0  0  0
  1 54  1  0  0  0  0
  1 55  1  0  0  0  0
  2  3  1  0  0  0  0
  2  4  1  0  0  0  0
  2 56  1  0  0  0  0
  3 57  1  0  0  0  0
  3 58  1  0  0  0  0
  3 59  1  0  0  0  0
  4 48  1  0  0  0  0
  4  5  2  0  0  0  0
  5  6  1  0  0  0  0
  5 60  1  0  0  0  0
  6  7  1  0  0  0  0
  6 46  2  0  0  0  0
  7  8  1  0  0  0  0
  7 61  1  0  0  0  0
  7 62  1  0  0  0  0
  8  9  1  0  0  0  0
  8 63  1  0  0  0  0
  8 99  1  0  0  0  0
  9 10  1  0  0  0  0
  9 64  1  0  0  0  0
  9 65  1  0  0  0  0
 10 49  1  6  0  0  0
 10 11  1  0  0  0  0
 10 12  1  0  0  0  0
 11 66  1  0  0  0  0
 12 50  1  6  0  0  0
 12 45  1  0  0  0  0
 12 13  1  0  0  0  0
 13 14  1  0  0  0  0
 13 67  1  0  0  0  0
 13 68  1  0  0  0  0
 14 51  1  1  0  0  0
 14 15  1  0  0  0  0
 14 16  1  0  0  0  0
 15 69  1  0  0  0  0
 15 70  1  0  0  0  0
 15 71  1  0  0  0  0
 16 17  1  0  0  0  0
 16 72  1  0  0  0  0
 16 73  1  0  0  0  0
 17 18  1  0  0  0  0
 17 74  1  0  0  0  0
 17 75  1  0  0  0  0
 18 19  1  0  0  0  0
 18 76  1  0  0  0  0
 18 77  1  0  0  0  0
 19 20  1  0  0  0  0
 19 78  1  0  0  0  0
 19 79  1  0  0  0  0
 20 21  1  0  0  0  0
 20 80  1  0  0  0  0
 20 81  1  0  0  0  0
 21 22  1  0  0  0  0
 21 30  1  0  0  0  0
 22 52  1  1  0  0  0
 22 23  1  0  0  0  0
 22 24  1  0  0  0  0
 23 82  1  0  0  0  0
 23 83  1  0  0  0  0
 23 84  1  0  0  0  0
 24 29  1  0  0  0  0
 24 25  2  0  0  0  0
 25 26  1  0  0  0  0
 25 85  1  0  0  0  0
 26 27  2  0  0  0  0
 26 86  1  0  0  0  0
 27 28  1  0  0  0  0
 27 87  1  0  0  0  0
 28 29  2  0  0  0  0
 28 88  1  0  0  0  0
 29 89  1  0  0  0  0
 30 31  2  0  0  0  0
 30 32  1  0  0  0  0
 32 37  1  0  0  0  0
 32 33  2  0  0  0  0
 33 34  1  0  0  0  0
 33 90  1  0  0  0  0
 34 35  2  0  0  0  0
 34 43  1  0  0  0  0
 35 36  1  0  0  0  0
 35 91  1  0  0  0  0
 36 37  2  0  0  0  0
 36 38  1  0  0  0  0
 37 92  1  0  0  0  0
 38 42  1  0  0  0  0
 38 39  2  0  0  0  0
 39 40  1  0  0  0  0
 40 41  2  0  0  0  0
 40 93  1  0  0  0  0
 41 42  1  0  0  0  0
 41 94  1  0  0  0  0
 43 44  2  0  0  0  0
 43 45  1  0  0  0  0
 45 95  1  0  0  0  0
 46 47  1  0  0  0  0
 46 96  1  0  0  0  0
 47 48  2  0  0  0  0
 47 97  1  0  0  0  0
 48 98  1  0  0  0  0
M  CHG  1   8   1
M  END
>  <s_m_source_file>
BACE_7.smi

>  <i_m_source_file_index>
1

>  <i_lp_mmshare_version>
42013

>  <i_f3d_flags>
0

>  <s_epik_input>
bzFbY0hdW2NIXW5jMS1jKFtjSF0yKVtjSF1jKFtjSF1jMjMpQyg9TylbTkhdW0NASF0oW0NASF0oW09IXSlbQ0gyXVtOSF1bQ0gyXWMoW2NIXVtjSF1bY0hdNClbY0hdYzRbQ0hdKFtDSDNdKVtDSDNdKVtDSDJdW0NASF0oW0NIM10pW0NIMl1bQ0gyXVtDSDJdW0NIMl1bQ0gyXU4oQzM9TylbQ0BIXShbQ0gzXSljNVtjSF1bY0hdW2NIXVtjSF1bY0hdNQ==

>  <s_epik_cmdline>
J2VwaWtfcHl0aG9uJywgJy1waCcsICc3LjAnLCAnLXRuJywgJzgnLCAnLW1hJywgJzIwMCcsICctaW1hZScsICc8aW5maWxlLm1hZT4nLCAnLW9tYWUnLCAnPG91dGZpbGUubWFlPic=

>  <r_epik_Ionization_Penalty>
0.0165

>  <r_epik_Ionization_Penalty_Charging>
0.0165

>  <r_epik_Ionization_Penalty_Neutral>
0.0000

>  <r_epik_State_Penalty>
0.0130

>  <r_epik_Charging_Adjusted_Penalty>
0.0295552

>  <i_epik_Tot_Q>
1

>  <i_epik_Tot_abs_Q>
1

>  <s_lp_Force_Field>
OPLS_2005

>  <r_lp_Energy>
54.3097

>  <b_lp_Chiralities_Consistent>
1

>  <s_lp_Variant>
BACE_7.smi:1-1

>  <chiral flag>
1

>  <version>
0

>  <s_i_glide_gridfile>
second_dock_grid_2

>  <i_i_glide_lignum>
10

>  <i_i_glide_rotatable_bonds>
10

>  <r_i_docking_score>
-6.74418

>  <r_i_glide_ligand_efficiency>
-0.140504

>  <r_i_glide_ligand_efficiency_sa>
-0.510625

>  <r_i_glide_ligand_efficiency_ln>
-1.3845

>  <r_glide_XP_GScore>
-6.75718

>  <r_i_glide_gscore>
-6.75718

>  <r_i_glide_evdw>
-43.2096

>  <r_i_glide_ecoul>
-19.5773

>  <r_i_glide_energy>
-62.7869

>  <r_i_glide_einternal>
9.8222

>  <r_i_glide_emodel>
-85.3144

>  <r_glide_XP_HBond>
-0.468495

>  <i_i_glide_confnum>
1

>  <i_i_glide_posenum>
9

>  <r_i_glide_eff_state_penalty>
0.013

>  <i_glide_XP_PoseRank>
1

$$$$
