BACE_97.smi:1
 OpenBabel09291822493D
Structure written by MMmdl.
 81 84  0  0  1  0  0  0  0  0999 V2000
   19.3624   46.8702   -6.4541 C   0  0  0  0  0  0  0  0  0  0  0  0
   18.8947   45.5160   -6.9432 C   0  0  0  0  0  0  0  0  0  0  0  0
   19.6978   44.3651   -6.8434 C   0  0  0  0  0  0  0  0  0  0  0  0
   19.2017   43.1319   -7.3188 C   0  0  0  0  0  0  0  0  0  0  0  0
   17.8893   43.0784   -7.8460 C   0  0  0  0  0  0  0  0  0  0  0  0
   17.1239   44.2633   -7.9282 C   0  0  0  0  0  0  0  0  0  0  0  0
   15.8199   44.3353   -8.4398 N   0  0  0  0  0  0  0  0  0  0  0  0
   15.0479   43.1377   -8.7417 C   0  0  0  0  0  0  0  0  0  0  0  0
   15.1949   42.7130  -10.2152 C   0  0  0  0  0  0  0  0  0  0  0  0
   14.3212   41.4990  -10.5915 C   0  0  0  0  0  0  0  0  0  0  0  0
   15.0891   40.1706  -10.7394 C   0  0  0  0  0  0  0  0  0  0  0  0
   15.8869   39.7572   -9.5154 C   0  0  0  0  0  0  0  0  0  0  0  0
   15.2798   39.7121   -8.2417 C   0  0  0  0  0  0  0  0  0  0  0  0
   16.0352   39.3492   -7.1125 C   0  0  0  0  0  0  0  0  0  0  0  0
   17.3867   38.9796   -7.2548 C   0  0  0  0  0  0  0  0  0  0  0  0
   17.9942   38.9924   -8.5283 C   0  0  0  0  0  0  0  0  0  0  0  0
   19.4554   38.5934   -8.6907 C   0  0  0  0  0  0  0  0  0  0  0  0
   20.4921   39.6764   -8.2820 C   0  0  2  0  0  0  0  0  0  0  0  0
   19.8656   40.9977   -8.2105 N   0  0  0  0  0  0  0  0  0  0  0  0
   20.0600   41.9045   -7.2394 C   0  0  0  0  0  0  0  0  0  0  0  0
   20.9324   41.7995   -6.3786 O   0  0  0  0  0  0  0  0  0  0  0  0
   21.7517   39.6612   -9.1978 C   0  0  2  0  0  0  0  0  0  0  0  0
   22.4599   38.4891   -8.8397 O   0  0  0  0  0  0  0  0  0  0  0  0
   22.6994   40.8707   -9.0284 C   0  0  0  0  0  0  0  0  0  0  0  0
   23.7434   40.9255  -10.0770 N   0  3  0  0  0  0  0  0  0  0  0  0
   24.8430   41.8694   -9.8076 C   0  0  0  0  0  0  0  0  0  0  0  0
   24.3921   43.3169   -9.8022 C   0  0  0  0  0  0  0  0  0  0  0  0
   24.4867   44.1034  -10.9662 C   0  0  0  0  0  0  0  0  0  0  0  0
   24.0791   45.4571  -10.9155 C   0  0  0  0  0  0  0  0  0  0  0  0
   23.5855   45.9387   -9.6807 C   0  0  0  0  0  0  0  0  0  0  0  0
   23.5229   45.0694   -8.5770 C   0  0  0  0  0  0  0  0  0  0  0  0
   23.9137   43.7816   -8.6306 N   0  0  0  0  0  0  0  0  0  0  0  0
   24.1541   46.3940  -12.1320 C   0  0  0  0  0  0  0  0  0  0  0  0
   24.6815   45.6879  -13.4008 C   0  0  0  0  0  0  0  0  0  0  0  0
   25.1010   47.5694  -11.8200 C   0  0  0  0  0  0  0  0  0  0  0  0
   22.7447   46.9438  -12.4367 C   0  0  0  0  0  0  0  0  0  0  0  0
   17.2419   39.3899   -9.6539 C   0  0  0  0  0  0  0  0  0  0  0  0
   17.6639   45.4238   -7.4905 N   0  3  0  0  0  0  0  0  0  0  0  0
   20.8014   39.4289   -7.2630 H   0  0  0  0  0  0  0  0  0  0  0  0
   21.4462   39.5978  -10.2436 H   0  0  0  0  0  0  0  0  0  0  0  0
   20.2261   46.7671   -5.7964 H   0  0  0  0  0  0  0  0  0  0  0  0
   18.5723   47.3743   -5.8966 H   0  0  0  0  0  0  0  0  0  0  0  0
   19.6489   47.5002   -7.2971 H   0  0  0  0  0  0  0  0  0  0  0  0
   20.6892   44.4232   -6.4145 H   0  0  0  0  0  0  0  0  0  0  0  0
   17.4756   42.1344   -8.1702 H   0  0  0  0  0  0  0  0  0  0  0  0
   15.3235   45.2090   -8.3853 H   0  0  0  0  0  0  0  0  0  0  0  0
   15.3119   42.3326   -8.0579 H   0  0  0  0  0  0  0  0  0  0  0  0
   14.0008   43.3598   -8.5352 H   0  0  0  0  0  0  0  0  0  0  0  0
   14.9010   43.5551  -10.8429 H   0  0  0  0  0  0  0  0  0  0  0  0
   16.2402   42.5141  -10.4555 H   0  0  0  0  0  0  0  0  0  0  0  0
   13.5099   41.3811   -9.8721 H   0  0  0  0  0  0  0  0  0  0  0  0
   13.8236   41.7025  -11.5392 H   0  0  0  0  0  0  0  0  0  0  0  0
   14.3899   39.3652  -10.9605 H   0  0  0  0  0  0  0  0  0  0  0  0
   15.7578   40.2360  -11.5990 H   0  0  0  0  0  0  0  0  0  0  0  0
   14.2364   39.9641   -8.1207 H   0  0  0  0  0  0  0  0  0  0  0  0
   15.5673   39.3223   -6.1363 H   0  0  0  0  0  0  0  0  0  0  0  0
   17.9478   38.6803   -6.3812 H   0  0  0  0  0  0  0  0  0  0  0  0
   19.6363   37.6885   -8.1126 H   0  0  0  0  0  0  0  0  0  0  0  0
   19.6051   38.3016   -9.7319 H   0  0  0  0  0  0  0  0  0  0  0  0
   19.1304   41.1721   -8.8788 H   0  0  0  0  0  0  0  0  0  0  0  0
   23.3054   38.4299   -9.2774 H   0  0  0  0  0  0  0  0  0  0  0  0
   22.1419   41.8015   -9.1148 H   0  0  0  0  0  0  0  0  0  0  0  0
   23.1483   40.8560   -8.0332 H   0  0  0  0  0  0  0  0  0  0  0  0
   24.1661   40.0067  -10.1324 H   0  0  0  0  0  0  0  0  0  0  0  0
   25.2642   41.6203   -8.8400 H   0  0  0  0  0  0  0  0  0  0  0  0
   25.6285   41.7264  -10.5504 H   0  0  0  0  0  0  0  0  0  0  0  0
   24.8812   43.6611  -11.8676 H   0  0  0  0  0  0  0  0  0  0  0  0
   23.2611   46.9619   -9.5704 H   0  0  0  0  0  0  0  0  0  0  0  0
   23.1480   45.4175   -7.6261 H   0  0  0  0  0  0  0  0  0  0  0  0
   24.6965   46.3669  -14.2528 H   0  0  0  0  0  0  0  0  0  0  0  0
   24.0601   44.8383  -13.6804 H   0  0  0  0  0  0  0  0  0  0  0  0
   25.7012   45.3253  -13.2655 H   0  0  0  0  0  0  0  0  0  0  0  0
   26.1045   47.2143  -11.5837 H   0  0  0  0  0  0  0  0  0  0  0  0
   24.7552   48.1579  -10.9710 H   0  0  0  0  0  0  0  0  0  0  0  0
   25.1869   48.2503  -12.6674 H   0  0  0  0  0  0  0  0  0  0  0  0
   22.7363   47.5524  -13.3420 H   0  0  0  0  0  0  0  0  0  0  0  0
   22.3660   47.5705  -11.6297 H   0  0  0  0  0  0  0  0  0  0  0  0
   22.0308   46.1319  -12.5721 H   0  0  0  0  0  0  0  0  0  0  0  0
   17.7040   39.4018  -10.6306 H   0  0  0  0  0  0  0  0  0  0  0  0
   23.3318   41.1403  -10.9765 H   0  0  0  0  0  0  0  0  0  0  0  0
   17.1126   46.2776   -7.5607 H   0  0  0  0  0  0  0  0  0  0  0  0
  1  2  1  0  0  0  0
  1 41  1  0  0  0  0
  1 42  1  0  0  0  0
  1 43  1  0  0  0  0
  2 38  1  0  0  0  0
  2  3  2  0  0  0  0
  3  4  1  0  0  0  0
  3 44  1  0  0  0  0
  4 20  1  0  0  0  0
  4  5  2  0  0  0  0
  5  6  1  0  0  0  0
  5 45  1  0  0  0  0
  6  7  1  0  0  0  0
  6 38  2  0  0  0  0
  7  8  1  0  0  0  0
  7 46  1  0  0  0  0
  8  9  1  0  0  0  0
  8 47  1  0  0  0  0
  8 48  1  0  0  0  0
  9 10  1  0  0  0  0
  9 49  1  0  0  0  0
  9 50  1  0  0  0  0
 10 11  1  0  0  0  0
 10 51  1  0  0  0  0
 10 52  1  0  0  0  0
 11 12  1  0  0  0  0
 11 53  1  0  0  0  0
 11 54  1  0  0  0  0
 12 37  1  0  0  0  0
 12 13  2  0  0  0  0
 13 14  1  0  0  0  0
 13 55  1  0  0  0  0
 14 15  2  0  0  0  0
 14 56  1  0  0  0  0
 15 16  1  0  0  0  0
 15 57  1  0  0  0  0
 16 17  1  0  0  0  0
 16 37  2  0  0  0  0
 17 18  1  0  0  0  0
 17 58  1  0  0  0  0
 17 59  1  0  0  0  0
 18 39  1  1  0  0  0
 18 19  1  0  0  0  0
 18 22  1  0  0  0  0
 19 20  1  0  0  0  0
 19 60  1  0  0  0  0
 20 21  2  0  0  0  0
 22 40  1  6  0  0  0
 22 23  1  0  0  0  0
 22 24  1  0  0  0  0
 23 61  1  0  0  0  0
 24 25  1  0  0  0  0
 24 62  1  0  0  0  0
 24 63  1  0  0  0  0
 25 26  1  0  0  0  0
 25 64  1  0  0  0  0
 25 80  1  0  0  0  0
 26 27  1  0  0  0  0
 26 65  1  0  0  0  0
 26 66  1  0  0  0  0
 27 32  1  0  0  0  0
 27 28  2  0  0  0  0
 28 29  1  0  0  0  0
 28 67  1  0  0  0  0
 29 30  2  0  0  0  0
 29 33  1  0  0  0  0
 30 31  1  0  0  0  0
 30 68  1  0  0  0  0
 31 32  2  0  0  0  0
 31 69  1  0  0  0  0
 33 34  1  0  0  0  0
 33 35  1  0  0  0  0
 33 36  1  0  0  0  0
 34 70  1  0  0  0  0
 34 71  1  0  0  0  0
 34 72  1  0  0  0  0
 35 73  1  0  0  0  0
 35 74  1  0  0  0  0
 35 75  1  0  0  0  0
 36 76  1  0  0  0  0
 36 77  1  0  0  0  0
 36 78  1  0  0  0  0
 37 79  1  0  0  0  0
 38 81  1  0  0  0  0
M  CHG  2  25   1  38   1
M  END
>  <s_m_source_file>
BACE_97.smi

>  <i_m_source_file_index>
1

>  <i_lp_mmshare_version>
42013

>  <i_f3d_flags>
0

>  <s_epik_input>
YzEyW2NIXWMoW0NIM10pbmMoW2NIXTEpW05IXVtDSDJdW0NIMl1bQ0gyXVtDSDJdYzNbY0hdW2NIXVtjSF1jKFtjSF0zKVtDSDJdW0NASF0oW05IXUMyPU8pW0NASF0oW09IXSlbQ0gyXVtOSF1bQ0gyXWM0W2NIXWMoW2NIXVtjSF1uNClDKFtDSDNdKShbQ0gzXSlbQ0gzXQ==

>  <s_epik_cmdline>
J2VwaWtfcHl0aG9uJywgJy1waCcsICc3LjAnLCAnLXRuJywgJzgnLCAnLW1hJywgJzIwMCcsICctaW1hZScsICc8aW5maWxlLm1hZT4nLCAnLW9tYWUnLCAnPG91dGZpbGUubWFlPic=

>  <r_lp_tautomer_probability>
0.999994

>  <r_epik_Ionization_Penalty>
2.4014

>  <r_epik_Ionization_Penalty_Charging>
2.4011

>  <r_epik_Ionization_Penalty_Neutral>
0.0002

>  <r_epik_State_Penalty>
2.5455

>  <r_epik_Charging_Adjusted_Penalty>
4.94664

>  <i_epik_Tot_Q>
2

>  <i_epik_Tot_abs_Q>
2

>  <s_lp_Force_Field>
OPLS_2005

>  <r_lp_Energy>
28.5298

>  <b_lp_Chiralities_Consistent>
1

>  <s_lp_Variant>
BACE_97.smi:1-3

>  <chiral flag>
1

>  <version>
0

>  <s_i_glide_gridfile>
second_dock_grid_2

>  <i_i_glide_lignum>
198

>  <i_i_glide_rotatable_bonds>
7

>  <r_i_docking_score>
-0.230537

>  <r_i_glide_ligand_efficiency>
-0.00606678

>  <r_i_glide_ligand_efficiency_sa>
-0.0203964

>  <r_i_glide_ligand_efficiency_ln>
-0.0497107

>  <r_glide_XP_GScore>
-2.77604

>  <r_i_glide_gscore>
-2.77604

>  <r_i_glide_evdw>
-33.5889

>  <r_i_glide_ecoul>
-12.449

>  <r_i_glide_energy>
-46.0379

>  <r_i_glide_einternal>
9.1324

>  <r_i_glide_emodel>
-63.9862

>  <r_glide_XP_HBond>
-0.629154

>  <i_i_glide_confnum>
1

>  <i_i_glide_posenum>
1

>  <r_i_glide_eff_state_penalty>
2.5455

>  <i_glide_XP_PoseRank>
1

$$$$
