BACE_43.smi:1
 OpenBabel09291822493D
Structure written by MMmdl.
 83 85  0  0  1  0  0  0  0  0999 V2000
   15.6203   45.7688  -12.1475 C   0  0  0  0  0  0  0  0  0  0  0  0
   16.7721   45.0796  -12.6155 O   0  0  0  0  0  0  0  0  0  0  0  0
   17.0779   43.8628  -12.0435 C   0  0  0  0  0  0  0  0  0  0  0  0
   18.2436   43.1984  -12.4609 C   0  0  0  0  0  0  0  0  0  0  0  0
   18.6014   41.9896  -11.8316 C   0  0  0  0  0  0  0  0  0  0  0  0
   17.7286   41.4607  -10.8573 C   0  0  0  0  0  0  0  0  0  0  0  0
   16.5382   42.1617  -10.5527 C   0  0  0  0  0  0  0  0  0  0  0  0
   15.5734   41.6990   -9.6485 N   0  0  0  0  0  0  0  0  0  0  0  0
   15.5605   40.3200   -9.1847 C   0  0  0  0  0  0  0  0  0  0  0  0
   16.1083   40.1860   -7.7565 C   0  0  0  0  0  0  0  0  0  0  0  0
   16.4421   38.7276   -7.4169 C   0  0  0  0  0  0  0  0  0  0  0  0
   17.8824   38.3471   -7.8048 C   0  0  0  0  0  0  0  0  0  0  0  0
   18.8693   38.5509   -6.6444 C   0  0  0  0  0  0  0  0  0  0  0  0
   20.3086   38.8462   -7.0997 C   0  0  0  0  0  0  0  0  0  0  0  0
   20.6308   40.3544   -7.0511 C   0  0  0  0  0  0  0  0  0  0  0  0
   21.9588   40.7875   -7.7153 C   0  0  1  0  0  0  0  0  0  0  0  0
   23.1601   40.0139   -7.1635 C   0  0  0  0  0  0  0  0  0  0  0  0
   21.9656   40.7045   -9.2550 C   0  0  0  0  0  0  0  0  0  0  0  0
   20.9851   41.6254  -10.0223 C   0  0  2  0  0  0  0  0  0  0  0  0
   20.7920   41.0023  -11.3219 N   0  0  0  0  0  0  0  0  0  0  0  0
   19.8594   41.2691  -12.2373 C   0  0  0  0  0  0  0  0  0  0  0  0
   20.0599   40.9505  -13.3991 O   0  0  0  0  0  0  0  0  0  0  0  0
   21.4408   43.1017  -10.2557 C   0  0  2  0  0  0  0  0  0  0  0  0
   22.6583   43.1334  -10.9752 O   0  0  0  0  0  0  0  0  0  0  0  0
   21.6171   43.9659   -9.0042 C   0  0  0  0  0  0  0  0  0  0  0  0
   20.3708   44.0861   -8.2418 N   0  0  0  0  0  0  0  0  0  0  0  0
   20.4928   44.8891   -7.0294 C   0  0  0  0  0  0  0  0  0  0  0  0
   21.2000   44.1467   -5.9135 C   0  0  0  0  0  0  0  0  0  0  0  0
   20.4566   43.4579   -4.9319 C   0  0  0  0  0  0  0  0  0  0  0  0
   21.1107   42.7661   -3.8925 C   0  0  0  0  0  0  0  0  0  0  0  0
   22.5183   42.7159   -3.8739 C   0  0  0  0  0  0  0  0  0  0  0  0
   23.2608   43.3857   -4.8612 C   0  0  0  0  0  0  0  0  0  0  0  0
   22.6081   44.1247   -5.8606 C   0  0  0  0  0  0  0  0  0  0  0  0
   20.3096   42.0868   -2.7945 C   0  0  0  0  0  0  0  0  0  0  0  0
   20.6279   42.6706   -1.4109 C   0  0  0  0  0  0  0  0  0  0  0  0
   20.4748   40.5645   -2.8390 C   0  0  0  0  0  0  0  0  0  0  0  0
   16.2278   43.3407  -11.1282 N   0  0  0  0  0  0  0  0  0  0  0  0
   22.1219   41.8217   -7.4310 H   0  0  0  0  0  0  0  0  0  0  0  0
   20.0281   41.6287   -9.5086 H   0  0  0  0  0  0  0  0  0  0  0  0
   20.7054   43.6128  -10.8774 H   0  0  0  0  0  0  0  0  0  0  0  0
   15.5387   46.7220  -12.6667 H   0  0  0  0  0  0  0  0  0  0  0  0
   15.6827   45.9750  -11.0797 H   0  0  0  0  0  0  0  0  0  0  0  0
   14.7102   45.2019  -12.3485 H   0  0  0  0  0  0  0  0  0  0  0  0
   18.8597   43.6355  -13.2324 H   0  0  0  0  0  0  0  0  0  0  0  0
   17.9762   40.5291  -10.3734 H   0  0  0  0  0  0  0  0  0  0  0  0
   14.7414   42.2502   -9.5056 H   0  0  0  0  0  0  0  0  0  0  0  0
   14.5284   39.9665   -9.2023 H   0  0  0  0  0  0  0  0  0  0  0  0
   16.0991   39.6694   -9.8708 H   0  0  0  0  0  0  0  0  0  0  0  0
   16.9964   40.8066   -7.6151 H   0  0  0  0  0  0  0  0  0  0  0  0
   15.3643   40.5665   -7.0536 H   0  0  0  0  0  0  0  0  0  0  0  0
   16.2997   38.5550   -6.3513 H   0  0  0  0  0  0  0  0  0  0  0  0
   15.7301   38.0641   -7.9062 H   0  0  0  0  0  0  0  0  0  0  0  0
   17.9112   37.3003   -8.1050 H   0  0  0  0  0  0  0  0  0  0  0  0
   18.1906   38.9160   -8.6832 H   0  0  0  0  0  0  0  0  0  0  0  0
   18.5285   39.3497   -5.9847 H   0  0  0  0  0  0  0  0  0  0  0  0
   18.8487   37.6472   -6.0388 H   0  0  0  0  0  0  0  0  0  0  0  0
   20.9979   38.3175   -6.4411 H   0  0  0  0  0  0  0  0  0  0  0  0
   20.4756   38.4341   -8.0939 H   0  0  0  0  0  0  0  0  0  0  0  0
   19.8005   40.9161   -7.4717 H   0  0  0  0  0  0  0  0  0  0  0  0
   20.6628   40.6561   -6.0051 H   0  0  0  0  0  0  0  0  0  0  0  0
   23.0741   38.9503   -7.3668 H   0  0  0  0  0  0  0  0  0  0  0  0
   23.2583   40.1506   -6.0877 H   0  0  0  0  0  0  0  0  0  0  0  0
   24.0811   40.3533   -7.6393 H   0  0  0  0  0  0  0  0  0  0  0  0
   22.9752   40.8841   -9.6239 H   0  0  0  0  0  0  0  0  0  0  0  0
   21.7601   39.6655   -9.5228 H   0  0  0  0  0  0  0  0  0  0  0  0
   21.5943   40.4958  -11.6700 H   0  0  0  0  0  0  0  0  0  0  0  0
   23.2990   42.6166  -10.5123 H   0  0  0  0  0  0  0  0  0  0  0  0
   22.4217   43.5544   -8.3984 H   0  0  0  0  0  0  0  0  0  0  0  0
   21.9550   44.9597   -9.3070 H   0  0  0  0  0  0  0  0  0  0  0  0
   20.0526   43.1570   -7.9818 H   0  0  0  0  0  0  0  0  0  0  0  0
   21.0079   45.8279   -7.2357 H   0  0  0  0  0  0  0  0  0  0  0  0
   19.4980   45.1599   -6.6788 H   0  0  0  0  0  0  0  0  0  0  0  0
   19.3779   43.4664   -4.9752 H   0  0  0  0  0  0  0  0  0  0  0  0
   23.0360   42.1803   -3.0937 H   0  0  0  0  0  0  0  0  0  0  0  0
   24.3406   43.3489   -4.8402 H   0  0  0  0  0  0  0  0  0  0  0  0
   23.1910   44.6514   -6.6016 H   0  0  0  0  0  0  0  0  0  0  0  0
   19.2599   42.3052   -2.9771 H   0  0  0  0  0  0  0  0  0  0  0  0
   20.3940   43.7357   -1.3758 H   0  0  0  0  0  0  0  0  0  0  0  0
   21.6785   42.5510   -1.1559 H   0  0  0  0  0  0  0  0  0  0  0  0
   20.0313   42.1851   -0.6362 H   0  0  0  0  0  0  0  0  0  0  0  0
   20.0521   40.1530   -3.7555 H   0  0  0  0  0  0  0  0  0  0  0  0
   19.9664   40.0972   -1.9978 H   0  0  0  0  0  0  0  0  0  0  0  0
   21.5227   40.2693   -2.8049 H   0  0  0  0  0  0  0  0  0  0  0  0
  1  2  1  0  0  0  0
  1 41  1  0  0  0  0
  1 42  1  0  0  0  0
  1 43  1  0  0  0  0
  2  3  1  0  0  0  0
  3 37  1  0  0  0  0
  3  4  2  0  0  0  0
  4  5  1  0  0  0  0
  4 44  1  0  0  0  0
  5 21  1  0  0  0  0
  5  6  2  0  0  0  0
  6  7  1  0  0  0  0
  6 45  1  0  0  0  0
  7  8  1  0  0  0  0
  7 37  2  0  0  0  0
  8  9  1  0  0  0  0
  8 46  1  0  0  0  0
  9 10  1  0  0  0  0
  9 47  1  0  0  0  0
  9 48  1  0  0  0  0
 10 11  1  0  0  0  0
 10 49  1  0  0  0  0
 10 50  1  0  0  0  0
 11 12  1  0  0  0  0
 11 51  1  0  0  0  0
 11 52  1  0  0  0  0
 12 13  1  0  0  0  0
 12 53  1  0  0  0  0
 12 54  1  0  0  0  0
 13 14  1  0  0  0  0
 13 55  1  0  0  0  0
 13 56  1  0  0  0  0
 14 15  1  0  0  0  0
 14 57  1  0  0  0  0
 14 58  1  0  0  0  0
 15 16  1  0  0  0  0
 15 59  1  0  0  0  0
 15 60  1  0  0  0  0
 16 38  1  1  0  0  0
 16 17  1  0  0  0  0
 16 18  1  0  0  0  0
 17 61  1  0  0  0  0
 17 62  1  0  0  0  0
 17 63  1  0  0  0  0
 18 19  1  0  0  0  0
 18 64  1  0  0  0  0
 18 65  1  0  0  0  0
 19 39  1  1  0  0  0
 19 20  1  0  0  0  0
 19 23  1  0  0  0  0
 20 21  1  0  0  0  0
 20 66  1  0  0  0  0
 21 22  2  0  0  0  0
 23 40  1  6  0  0  0
 23 24  1  0  0  0  0
 23 25  1  0  0  0  0
 24 67  1  0  0  0  0
 25 26  1  0  0  0  0
 25 68  1  0  0  0  0
 25 69  1  0  0  0  0
 26 27  1  0  0  0  0
 26 70  1  0  0  0  0
 27 28  1  0  0  0  0
 27 71  1  0  0  0  0
 27 72  1  0  0  0  0
 28 33  1  0  0  0  0
 28 29  2  0  0  0  0
 29 30  1  0  0  0  0
 29 73  1  0  0  0  0
 30 31  2  0  0  0  0
 30 34  1  0  0  0  0
 31 32  1  0  0  0  0
 31 74  1  0  0  0  0
 32 33  2  0  0  0  0
 32 75  1  0  0  0  0
 33 76  1  0  0  0  0
 34 35  1  0  0  0  0
 34 36  1  0  0  0  0
 34 77  1  0  0  0  0
 35 78  1  0  0  0  0
 35 79  1  0  0  0  0
 35 80  1  0  0  0  0
 36 81  1  0  0  0  0
 36 82  1  0  0  0  0
 36 83  1  0  0  0  0
M  END
>  <s_m_source_file>
BACE_43.smi

>  <i_m_source_file_index>
1

>  <i_lp_mmshare_version>
42013

>  <i_f3d_flags>
0

>  <s_epik_input>
W0NIM11PYyhbY0hdYzEyKW5jKFtjSF0xKVtOSF1bQ0gyXVtDSDJdW0NIMl1bQ0gyXVtDSDJdW0NIMl1bQ0gyXVtDQEBIXShbQ0gzXSlbQ0gyXVtDQEhdKFtOSF1DMj1PKVtDQEhdKFtPSF0pW0NIMl1bTkhdW0NIMl1jM1tjSF1jKFtDSF0oW0NIM10pW0NIM10pW2NIXVtjSF1bY0hdMw==

>  <s_epik_cmdline>
J2VwaWtfcHl0aG9uJywgJy1waCcsICc3LjAnLCAnLXRuJywgJzgnLCAnLW1hJywgJzIwMCcsICctaW1hZScsICc8aW5maWxlLm1hZT4nLCAnLW9tYWUnLCAnPG91dGZpbGUubWFlPic=

>  <r_lp_tautomer_probability>
1

>  <r_epik_Ionization_Penalty>
2.1014

>  <r_epik_Ionization_Penalty_Charging>
0.0000

>  <r_epik_Ionization_Penalty_Neutral>
2.1014

>  <r_epik_State_Penalty>
2.2376

>  <r_epik_Charging_Adjusted_Penalty>
2.23761

>  <i_epik_Tot_Q>
0

>  <i_epik_Tot_abs_Q>
0

>  <s_lp_Force_Field>
OPLS_2005

>  <r_lp_Energy>
43.2585

>  <b_lp_Chiralities_Consistent>
1

>  <s_lp_Variant>
BACE_43.smi:1-2

>  <chiral flag>
1

>  <version>
0

>  <s_i_glide_gridfile>
second_dock_grid_2

>  <i_i_glide_lignum>
79

>  <i_i_glide_rotatable_bonds>
8

>  <r_i_docking_score>
-2.14303

>  <r_i_glide_ligand_efficiency>
-0.0579197

>  <r_i_glide_ligand_efficiency_sa>
-0.193001

>  <r_i_glide_ligand_efficiency_ln>
-0.464773

>  <r_glide_XP_GScore>
-4.38063

>  <r_i_glide_gscore>
-4.38063

>  <r_i_glide_evdw>
-42.0345

>  <r_i_glide_ecoul>
-6.06892

>  <r_i_glide_energy>
-48.1035

>  <r_i_glide_einternal>
3.83843

>  <r_i_glide_emodel>
-63.3913

>  <r_glide_XP_HBond>
-0.849131

>  <i_i_glide_confnum>
1

>  <i_i_glide_posenum>
1

>  <r_i_glide_eff_state_penalty>
2.2376

>  <i_glide_XP_PoseRank>
1

$$$$
