BACE_12.smi:1
 OpenBabel09291822493D
Structure written by MMmdl.
 78 81  0  0  1  0  0  0  0  0999 V2000
   22.7423   45.8868  -10.6405 C   0  0  0  0  0  0  0  0  0  0  0  0
   21.3902   45.7960  -11.0738 O   0  0  0  0  0  0  0  0  0  0  0  0
   20.7514   44.5800  -10.9520 C   0  0  0  0  0  0  0  0  0  0  0  0
   19.4080   44.4835  -11.3583 C   0  0  0  0  0  0  0  0  0  0  0  0
   18.7404   43.2509  -11.2123 C   0  0  0  0  0  0  0  0  0  0  0  0
   19.4651   42.1490  -10.7014 C   0  0  0  0  0  0  0  0  0  0  0  0
   20.8171   42.3362  -10.3395 C   0  0  0  0  0  0  0  0  0  0  0  0
   21.6126   41.3115   -9.8163 N   0  0  0  0  0  0  0  0  0  0  0  0
   21.5279   39.9683  -10.3758 C   0  0  0  0  0  0  0  0  0  0  0  0
   21.2781   38.9029   -9.2918 C   0  0  0  0  0  0  0  0  0  0  0  0
   19.8316   38.8765   -8.7771 C   0  0  0  0  0  0  0  0  0  0  0  0
   18.8507   38.1985   -9.7500 C   0  0  0  0  0  0  0  0  0  0  0  0
   17.4168   38.5973   -9.4731 C   0  0  0  0  0  0  0  0  0  0  0  0
   16.7579   38.1469   -8.3150 C   0  0  0  0  0  0  0  0  0  0  0  0
   15.4359   38.5495   -8.0446 C   0  0  0  0  0  0  0  0  0  0  0  0
   14.7605   39.3987   -8.9372 C   0  0  0  0  0  0  0  0  0  0  0  0
   15.4211   39.8674  -10.0900 C   0  0  0  0  0  0  0  0  0  0  0  0
   14.7344   40.8454  -11.0222 C   0  0  0  0  0  0  0  0  0  0  0  0
   15.0816   42.3238  -10.7350 C   0  0  2  0  0  0  0  0  0  0  0  0
   16.5347   42.4943  -10.6997 N   0  0  0  0  0  0  0  0  0  0  0  0
   17.2985   43.1263  -11.5993 C   0  0  0  0  0  0  0  0  0  0  0  0
   16.8629   43.6303  -12.6367 O   0  0  0  0  0  0  0  0  0  0  0  0
   14.4320   42.8551   -9.4246 C   0  0  2  0  0  0  0  0  0  0  0  0
   13.0354   42.9500   -9.6400 O   0  0  0  0  0  0  0  0  0  0  0  0
   14.9118   44.2642   -9.0100 C   0  0  0  0  0  0  0  0  0  0  0  0
   16.1821   44.2169   -8.2858 N   0  0  0  0  0  0  0  0  0  0  0  0
   16.7791   45.5292   -8.0668 C   0  0  0  0  0  0  0  0  0  0  0  0
   18.1272   45.5113   -7.3599 C   0  0  0  0  0  0  0  0  0  0  0  0
   18.6950   44.3242   -6.8403 C   0  0  0  0  0  0  0  0  0  0  0  0
   19.9361   44.3633   -6.1777 C   0  0  0  0  0  0  0  0  0  0  0  0
   20.6269   45.5799   -6.0404 C   0  0  0  0  0  0  0  0  0  0  0  0
   20.0821   46.7707   -6.5664 C   0  0  0  0  0  0  0  0  0  0  0  0
   18.8303   46.7264   -7.2185 C   0  0  0  0  0  0  0  0  0  0  0  0
   20.8686   48.0726   -6.4681 C   0  0  0  0  0  0  0  0  0  0  0  0
   20.0553   49.2145   -5.8377 C   0  0  0  0  0  0  0  0  0  0  0  0
   21.4320   48.4752   -7.8384 C   0  0  0  0  0  0  0  0  0  0  0  0
   16.7397   39.4504  -10.3609 C   0  0  0  0  0  0  0  0  0  0  0  0
   21.4391   43.5253  -10.4521 N   0  0  0  0  0  0  0  0  0  0  0  0
   14.6783   42.9235  -11.5536 H   0  0  0  0  0  0  0  0  0  0  0  0
   14.5956   42.1672   -8.5949 H   0  0  0  0  0  0  0  0  0  0  0  0
   23.1049   46.9044  -10.7929 H   0  0  0  0  0  0  0  0  0  0  0  0
   23.3884   45.2169  -11.2108 H   0  0  0  0  0  0  0  0  0  0  0  0
   22.8374   45.6563   -9.5788 H   0  0  0  0  0  0  0  0  0  0  0  0
   18.8945   45.3491  -11.7496 H   0  0  0  0  0  0  0  0  0  0  0  0
   18.9934   41.1867  -10.5779 H   0  0  0  0  0  0  0  0  0  0  0  0
   22.5515   41.6075   -9.5928 H   0  0  0  0  0  0  0  0  0  0  0  0
   20.7956   39.9025  -11.1792 H   0  0  0  0  0  0  0  0  0  0  0  0
   22.4907   39.7637  -10.8406 H   0  0  0  0  0  0  0  0  0  0  0  0
   21.5387   37.9158   -9.6750 H   0  0  0  0  0  0  0  0  0  0  0  0
   21.9580   39.0802   -8.4577 H   0  0  0  0  0  0  0  0  0  0  0  0
   19.7872   38.3634   -7.8159 H   0  0  0  0  0  0  0  0  0  0  0  0
   19.5127   39.9020   -8.5799 H   0  0  0  0  0  0  0  0  0  0  0  0
   19.0910   38.4577  -10.7818 H   0  0  0  0  0  0  0  0  0  0  0  0
   18.9430   37.1135   -9.6826 H   0  0  0  0  0  0  0  0  0  0  0  0
   17.2604   37.4786   -7.6318 H   0  0  0  0  0  0  0  0  0  0  0  0
   14.9386   38.1898   -7.1529 H   0  0  0  0  0  0  0  0  0  0  0  0
   13.7451   39.6980   -8.7235 H   0  0  0  0  0  0  0  0  0  0  0  0
   15.0258   40.5877  -12.0400 H   0  0  0  0  0  0  0  0  0  0  0  0
   13.6602   40.6904  -10.9713 H   0  0  0  0  0  0  0  0  0  0  0  0
   16.9972   42.1747   -9.8581 H   0  0  0  0  0  0  0  0  0  0  0  0
   12.6166   42.2244   -9.1798 H   0  0  0  0  0  0  0  0  0  0  0  0
   14.9933   44.8953   -9.8958 H   0  0  0  0  0  0  0  0  0  0  0  0
   14.1644   44.7290   -8.3683 H   0  0  0  0  0  0  0  0  0  0  0  0
   16.0327   43.7590   -7.3880 H   0  0  0  0  0  0  0  0  0  0  0  0
   16.9197   46.0323   -9.0240 H   0  0  0  0  0  0  0  0  0  0  0  0
   16.0977   46.1501   -7.4896 H   0  0  0  0  0  0  0  0  0  0  0  0
   18.1892   43.3748   -6.9297 H   0  0  0  0  0  0  0  0  0  0  0  0
   20.3603   43.4525   -5.7799 H   0  0  0  0  0  0  0  0  0  0  0  0
   21.5862   45.5898   -5.5440 H   0  0  0  0  0  0  0  0  0  0  0  0
   18.4073   47.6291   -7.6333 H   0  0  0  0  0  0  0  0  0  0  0  0
   21.7201   47.8914   -5.8105 H   0  0  0  0  0  0  0  0  0  0  0  0
   19.7014   48.9487   -4.8422 H   0  0  0  0  0  0  0  0  0  0  0  0
   19.1862   49.4787   -6.4417 H   0  0  0  0  0  0  0  0  0  0  0  0
   20.6626   50.1132   -5.7307 H   0  0  0  0  0  0  0  0  0  0  0  0
   22.0617   47.6850   -8.2479 H   0  0  0  0  0  0  0  0  0  0  0  0
   22.0418   49.3763   -7.7656 H   0  0  0  0  0  0  0  0  0  0  0  0
   20.6347   48.6689   -8.5572 H   0  0  0  0  0  0  0  0  0  0  0  0
   17.2420   39.8043  -11.2487 H   0  0  0  0  0  0  0  0  0  0  0  0
  1  2  1  0  0  0  0
  1 41  1  0  0  0  0
  1 42  1  0  0  0  0
  1 43  1  0  0  0  0
  2  3  1  0  0  0  0
  3 38  1  0  0  0  0
  3  4  2  0  0  0  0
  4  5  1  0  0  0  0
  4 44  1  0  0  0  0
  5 21  1  0  0  0  0
  5  6  2  0  0  0  0
  6  7  1  0  0  0  0
  6 45  1  0  0  0  0
  7  8  1  0  0  0  0
  7 38  2  0  0  0  0
  8  9  1  0  0  0  0
  8 46  1  0  0  0  0
  9 10  1  0  0  0  0
  9 47  1  0  0  0  0
  9 48  1  0  0  0  0
 10 11  1  0  0  0  0
 10 49  1  0  0  0  0
 10 50  1  0  0  0  0
 11 12  1  0  0  0  0
 11 51  1  0  0  0  0
 11 52  1  0  0  0  0
 12 13  1  0  0  0  0
 12 53  1  0  0  0  0
 12 54  1  0  0  0  0
 13 37  1  0  0  0  0
 13 14  2  0  0  0  0
 14 15  1  0  0  0  0
 14 55  1  0  0  0  0
 15 16  2  0  0  0  0
 15 56  1  0  0  0  0
 16 17  1  0  0  0  0
 16 57  1  0  0  0  0
 17 18  1  0  0  0  0
 17 37  2  0  0  0  0
 18 19  1  0  0  0  0
 18 58  1  0  0  0  0
 18 59  1  0  0  0  0
 19 39  1  6  0  0  0
 19 20  1  0  0  0  0
 19 23  1  0  0  0  0
 20 21  1  0  0  0  0
 20 60  1  0  0  0  0
 21 22  2  0  0  0  0
 23 40  1  1  0  0  0
 23 24  1  0  0  0  0
 23 25  1  0  0  0  0
 24 61  1  0  0  0  0
 25 26  1  0  0  0  0
 25 62  1  0  0  0  0
 25 63  1  0  0  0  0
 26 27  1  0  0  0  0
 26 64  1  0  0  0  0
 27 28  1  0  0  0  0
 27 65  1  0  0  0  0
 27 66  1  0  0  0  0
 28 33  1  0  0  0  0
 28 29  2  0  0  0  0
 29 30  1  0  0  0  0
 29 67  1  0  0  0  0
 30 31  2  0  0  0  0
 30 68  1  0  0  0  0
 31 32  1  0  0  0  0
 31 69  1  0  0  0  0
 32 33  2  0  0  0  0
 32 34  1  0  0  0  0
 33 70  1  0  0  0  0
 34 35  1  0  0  0  0
 34 36  1  0  0  0  0
 34 71  1  0  0  0  0
 35 72  1  0  0  0  0
 35 73  1  0  0  0  0
 35 74  1  0  0  0  0
 36 75  1  0  0  0  0
 36 76  1  0  0  0  0
 36 77  1  0  0  0  0
 37 78  1  0  0  0  0
M  END
>  <s_m_source_file>
BACE_12.smi

>  <i_m_source_file_index>
1

>  <i_lp_mmshare_version>
42013

>  <i_f3d_flags>
0

>  <s_epik_input>
W0NIM11PYyhbY0hdYzEyKW5jKFtjSF0xKVtOSF1bQ0gyXVtDSDJdW0NIMl1bQ0gyXWMzW2NIXVtjSF1bY0hdYyhbY0hdMylbQ0gyXVtDQEhdKFtOSF1DMj1PKVtDQEhdKFtPSF0pW0NIMl1bTkhdW0NIMl1jNFtjSF1bY0hdW2NIXWMoW2NIXTQpW0NIXShbQ0gzXSlbQ0gzXQ==

>  <s_epik_cmdline>
J2VwaWtfcHl0aG9uJywgJy1waCcsICc3LjAnLCAnLXRuJywgJzgnLCAnLW1hJywgJzIwMCcsICctaW1hZScsICc8aW5maWxlLm1hZT4nLCAnLW9tYWUnLCAnPG91dGZpbGUubWFlPic=

>  <r_lp_tautomer_probability>
1

>  <r_epik_Ionization_Penalty>
2.0161

>  <r_epik_Ionization_Penalty_Charging>
0.0000

>  <r_epik_Ionization_Penalty_Neutral>
2.0161

>  <r_epik_State_Penalty>
2.1460

>  <r_epik_Charging_Adjusted_Penalty>
2.14597

>  <i_epik_Tot_Q>
0

>  <i_epik_Tot_abs_Q>
0

>  <s_lp_Force_Field>
OPLS_2005

>  <r_lp_Energy>
34.3281

>  <b_lp_Chiralities_Consistent>
1

>  <s_lp_Variant>
BACE_12.smi:1-2

>  <chiral flag>
1

>  <version>
0

>  <s_i_glide_gridfile>
second_dock_grid_2

>  <i_i_glide_lignum>
21

>  <i_i_glide_rotatable_bonds>
8

>  <r_i_docking_score>
1.70455

>  <r_i_glide_ligand_efficiency>
0.0448565

>  <r_i_glide_ligand_efficiency_sa>
0.150806

>  <r_i_glide_ligand_efficiency_ln>
0.36755

>  <r_glide_XP_GScore>
-0.441454

>  <r_i_glide_gscore>
-0.441454

>  <r_i_glide_evdw>
-38.005

>  <r_i_glide_ecoul>
-13.4419

>  <r_i_glide_energy>
-51.4469

>  <r_i_glide_einternal>
1.73071

>  <r_i_glide_emodel>
-72.0884

>  <r_glide_XP_HBond>
-1.53089

>  <i_i_glide_confnum>
1

>  <i_i_glide_posenum>
4

>  <r_i_glide_eff_state_penalty>
2.146

>  <i_glide_XP_PoseRank>
1

$$$$
