BACE_16.smi:1
 OpenBabel09291822493D
Structure written by MMmdl.
 84 87  0  0  1  0  0  0  0  0999 V2000
   11.6574   42.5502  -11.0419 C   0  0  0  0  0  0  0  0  0  0  0  0
   12.2681   43.7554  -10.3512 C   0  0  0  0  0  0  0  0  0  0  0  0
   12.1568   44.8800  -10.8403 O   0  0  0  0  0  0  0  0  0  0  0  0
   13.0023   43.5050   -9.0316 C   0  0  0  0  0  0  0  0  0  0  0  0
   13.9378   44.5457   -8.7513 O   0  0  0  0  0  0  0  0  0  0  0  0
   15.2533   44.2575   -9.0424 C   0  0  0  0  0  0  0  0  0  0  0  0
   15.6487   43.5424  -10.1976 C   0  0  0  0  0  0  0  0  0  0  0  0
   16.9971   43.2113  -10.4221 C   0  0  0  0  0  0  0  0  0  0  0  0
   17.9682   43.6282   -9.4785 C   0  0  0  0  0  0  0  0  0  0  0  0
   17.5878   44.3167   -8.3036 C   0  0  0  0  0  0  0  0  0  0  0  0
   16.2369   44.6724   -8.1264 C   0  0  0  0  0  0  0  0  0  0  0  0
   18.5970   44.6497   -7.2414 C   0  0  0  0  0  0  0  0  0  0  0  0
   18.5172   45.6893   -6.5834 O   0  0  0  0  0  0  0  0  0  0  0  0
   19.5262   43.7031   -7.0336 N   0  0  0  0  0  0  0  0  0  0  0  0
   20.6475   43.7586   -6.0961 C   0  0  1  0  0  0  0  0  0  0  0  0
   20.8535   42.3763   -5.4156 C   0  0  0  0  0  0  0  0  0  0  0  0
   21.1283   41.1988   -6.3509 C   0  0  0  0  0  0  0  0  0  0  0  0
   20.0860   40.4861   -6.9881 C   0  0  0  0  0  0  0  0  0  0  0  0
   20.3739   39.4139   -7.8742 C   0  0  0  0  0  0  0  0  0  0  0  0
   21.7189   39.0592   -8.0952 C   0  0  0  0  0  0  0  0  0  0  0  0
   22.7596   39.7491   -7.4514 C   0  0  0  0  0  0  0  0  0  0  0  0
   22.4600   40.8047   -6.5721 C   0  0  0  0  0  0  0  0  0  0  0  0
   19.4313   38.6784   -8.5645 O   0  0  0  0  0  0  0  0  0  0  0  0
   18.0608   39.0697   -8.5264 C   0  0  0  0  0  0  0  0  0  0  0  0
   17.8250   40.3633   -9.3253 C   0  0  0  0  0  0  0  0  0  0  0  0
   18.0855   40.2380  -10.8368 C   0  0  0  0  0  0  0  0  0  0  0  0
   18.3870   41.5750  -11.5462 C   0  0  0  0  0  0  0  0  0  0  0  0
   17.2709   42.4677  -11.5521 O   0  0  0  0  0  0  0  0  0  0  0  0
   21.8892   44.3653   -6.8135 C   0  0  2  0  0  0  0  0  0  0  0  0
   22.2476   43.5647   -7.9241 O   0  0  0  0  0  0  0  0  0  0  0  0
   23.1461   44.5349   -5.9204 C   0  0  0  0  0  0  0  0  0  0  0  0
   23.0607   45.6393   -4.9549 N   0  0  0  0  0  0  0  0  0  0  0  0
   23.1259   46.9658   -5.5740 C   0  0  0  0  0  0  0  0  0  0  0  0
   23.1021   48.1134   -4.5804 C   0  0  0  0  0  0  0  0  0  0  0  0
   24.1361   48.2605   -3.6310 C   0  0  0  0  0  0  0  0  0  0  0  0
   24.1529   49.3700   -2.7549 C   0  0  0  0  0  0  0  0  0  0  0  0
   23.1250   50.3345   -2.8406 C   0  0  0  0  0  0  0  0  0  0  0  0
   22.0770   50.1751   -3.7674 C   0  0  0  0  0  0  0  0  0  0  0  0
   22.0636   49.0652   -4.6334 C   0  0  0  0  0  0  0  0  0  0  0  0
   25.2970   49.5231   -1.7589 C   0  0  0  0  0  0  0  0  0  0  0  0
   24.8221   49.9275   -0.3531 C   0  0  0  0  0  0  0  0  0  0  0  0
   26.3683   50.4831   -2.2916 C   0  0  0  0  0  0  0  0  0  0  0  0
   20.3858   44.4505   -5.2913 H   0  0  0  0  0  0  0  0  0  0  0  0
   21.6097   45.3295   -7.2377 H   0  0  0  0  0  0  0  0  0  0  0  0
   10.9875   42.0197  -10.3608 H   0  0  0  0  0  0  0  0  0  0  0  0
   12.4494   41.8652  -11.3514 H   0  0  0  0  0  0  0  0  0  0  0  0
   11.1012   42.8501  -11.9314 H   0  0  0  0  0  0  0  0  0  0  0  0
   12.2624   43.4783   -8.2304 H   0  0  0  0  0  0  0  0  0  0  0  0
   13.4843   42.5296   -9.0493 H   0  0  0  0  0  0  0  0  0  0  0  0
   14.9200   43.2117  -10.9213 H   0  0  0  0  0  0  0  0  0  0  0  0
   19.0128   43.4058   -9.6268 H   0  0  0  0  0  0  0  0  0  0  0  0
   15.9306   45.2023   -7.2400 H   0  0  0  0  0  0  0  0  0  0  0  0
   19.4657   42.8673   -7.5962 H   0  0  0  0  0  0  0  0  0  0  0  0
   21.6574   42.4392   -4.6817 H   0  0  0  0  0  0  0  0  0  0  0  0
   19.9754   42.1496   -4.8184 H   0  0  0  0  0  0  0  0  0  0  0  0
   19.0675   40.7827   -6.7972 H   0  0  0  0  0  0  0  0  0  0  0  0
   21.9557   38.2502   -8.7731 H   0  0  0  0  0  0  0  0  0  0  0  0
   23.7861   39.4668   -7.6345 H   0  0  0  0  0  0  0  0  0  0  0  0
   23.2566   41.3293   -6.0707 H   0  0  0  0  0  0  0  0  0  0  0  0
   17.4668   38.2652   -8.9592 H   0  0  0  0  0  0  0  0  0  0  0  0
   17.7159   39.1683   -7.4958 H   0  0  0  0  0  0  0  0  0  0  0  0
   16.8012   40.7025   -9.1604 H   0  0  0  0  0  0  0  0  0  0  0  0
   18.4625   41.1423   -8.9240 H   0  0  0  0  0  0  0  0  0  0  0  0
   18.9395   39.5792  -10.9972 H   0  0  0  0  0  0  0  0  0  0  0  0
   17.2348   39.7470  -11.3102 H   0  0  0  0  0  0  0  0  0  0  0  0
   19.3003   42.0267  -11.1643 H   0  0  0  0  0  0  0  0  0  0  0  0
   18.6093   41.3551  -12.5896 H   0  0  0  0  0  0  0  0  0  0  0  0
   22.3260   42.6664   -7.6352 H   0  0  0  0  0  0  0  0  0  0  0  0
   23.3647   43.6060   -5.3957 H   0  0  0  0  0  0  0  0  0  0  0  0
   24.0153   44.7016   -6.5610 H   0  0  0  0  0  0  0  0  0  0  0  0
   23.8416   45.5408   -4.3092 H   0  0  0  0  0  0  0  0  0  0  0  0
   24.0426   47.0554   -6.1572 H   0  0  0  0  0  0  0  0  0  0  0  0
   22.3030   47.1060   -6.2730 H   0  0  0  0  0  0  0  0  0  0  0  0
   24.9334   47.5307   -3.5954 H   0  0  0  0  0  0  0  0  0  0  0  0
   23.1285   51.1956   -2.1910 H   0  0  0  0  0  0  0  0  0  0  0  0
   21.2794   50.9025   -3.8059 H   0  0  0  0  0  0  0  0  0  0  0  0
   21.2591   48.9577   -5.3475 H   0  0  0  0  0  0  0  0  0  0  0  0
   25.7748   48.5502   -1.6569 H   0  0  0  0  0  0  0  0  0  0  0  0
   24.0744   49.2305    0.0223 H   0  0  0  0  0  0  0  0  0  0  0  0
   24.3920   50.9294   -0.3405 H   0  0  0  0  0  0  0  0  0  0  0  0
   25.6532   49.9289    0.3529 H   0  0  0  0  0  0  0  0  0  0  0  0
   26.7664   50.1403   -3.2478 H   0  0  0  0  0  0  0  0  0  0  0  0
   27.2076   50.5497   -1.5969 H   0  0  0  0  0  0  0  0  0  0  0  0
   25.9665   51.4867   -2.4402 H   0  0  0  0  0  0  0  0  0  0  0  0
  1  2  1  0  0  0  0
  1 45  1  0  0  0  0
  1 46  1  0  0  0  0
  1 47  1  0  0  0  0
  2  3  2  0  0  0  0
  2  4  1  0  0  0  0
  4  5  1  0  0  0  0
  4 48  1  0  0  0  0
  4 49  1  0  0  0  0
  5  6  1  0  0  0  0
  6 11  1  0  0  0  0
  6  7  2  0  0  0  0
  7  8  1  0  0  0  0
  7 50  1  0  0  0  0
  8 28  1  0  0  0  0
  8  9  2  0  0  0  0
  9 10  1  0  0  0  0
  9 51  1  0  0  0  0
 10 11  2  0  0  0  0
 10 12  1  0  0  0  0
 11 52  1  0  0  0  0
 12 13  2  0  0  0  0
 12 14  1  0  0  0  0
 14 15  1  0  0  0  0
 14 53  1  0  0  0  0
 15 43  1  1  0  0  0
 15 16  1  0  0  0  0
 15 29  1  0  0  0  0
 16 17  1  0  0  0  0
 16 54  1  0  0  0  0
 16 55  1  0  0  0  0
 17 22  1  0  0  0  0
 17 18  2  0  0  0  0
 18 19  1  0  0  0  0
 18 56  1  0  0  0  0
 19 20  2  0  0  0  0
 19 23  1  0  0  0  0
 20 21  1  0  0  0  0
 20 57  1  0  0  0  0
 21 22  2  0  0  0  0
 21 58  1  0  0  0  0
 22 59  1  0  0  0  0
 23 24  1  0  0  0  0
 24 25  1  0  0  0  0
 24 60  1  0  0  0  0
 24 61  1  0  0  0  0
 25 26  1  0  0  0  0
 25 62  1  0  0  0  0
 25 63  1  0  0  0  0
 26 27  1  0  0  0  0
 26 64  1  0  0  0  0
 26 65  1  0  0  0  0
 27 28  1  0  0  0  0
 27 66  1  0  0  0  0
 27 67  1  0  0  0  0
 29 44  1  6  0  0  0
 29 30  1  0  0  0  0
 29 31  1  0  0  0  0
 30 68  1  0  0  0  0
 31 32  1  0  0  0  0
 31 69  1  0  0  0  0
 31 70  1  0  0  0  0
 32 33  1  0  0  0  0
 32 71  1  0  0  0  0
 33 34  1  0  0  0  0
 33 72  1  0  0  0  0
 33 73  1  0  0  0  0
 34 39  1  0  0  0  0
 34 35  2  0  0  0  0
 35 36  1  0  0  0  0
 35 74  1  0  0  0  0
 36 37  2  0  0  0  0
 36 40  1  0  0  0  0
 37 38  1  0  0  0  0
 37 75  1  0  0  0  0
 38 39  2  0  0  0  0
 38 76  1  0  0  0  0
 39 77  1  0  0  0  0
 40 41  1  0  0  0  0
 40 42  1  0  0  0  0
 40 78  1  0  0  0  0
 41 79  1  0  0  0  0
 41 80  1  0  0  0  0
 41 81  1  0  0  0  0
 42 82  1  0  0  0  0
 42 83  1  0  0  0  0
 42 84  1  0  0  0  0
M  END
>  <s_m_source_file>
BACE_16.smi

>  <i_m_source_file_index>
1

>  <i_lp_mmshare_version>
42013

>  <i_f3d_flags>
0

>  <s_epik_input>
W2NIXTFbY0hdW2NIXWMoW0NIXShbQ0gzXSlbQ0gzXSlbY0hdYzFbQ0gyXVtOSF1bQ0gyXVtDQEBIXShbT0hdKVtDQEBIXShbTkhdQyg9TyljKFtjSF0yKVtjSF1jKFtjSF1jMjMpT1tDSDJdQyg9TylbQ0gzXSlbQ0gyXWM0W2NIXWMoW2NIXVtjSF1bY0hdNClPW0NIMl1bQ0gyXVtDSDJdW0NIMl1PMw==

>  <s_epik_cmdline>
J2VwaWtfcHl0aG9uJywgJy1waCcsICc3LjAnLCAnLXRuJywgJzgnLCAnLW1hJywgJzIwMCcsICctaW1hZScsICc8aW5maWxlLm1hZT4nLCAnLW9tYWUnLCAnPG91dGZpbGUubWFlPic=

>  <r_lp_tautomer_probability>
1

>  <r_epik_Ionization_Penalty>
2.0439

>  <r_epik_Ionization_Penalty_Charging>
0.0000

>  <r_epik_Ionization_Penalty_Neutral>
2.0439

>  <r_epik_State_Penalty>
2.1759

>  <r_epik_Charging_Adjusted_Penalty>
2.17586

>  <i_epik_Tot_Q>
0

>  <i_epik_Tot_abs_Q>
0

>  <s_lp_Force_Field>
OPLS_2005

>  <r_lp_Energy>
43.0104

>  <b_lp_Chiralities_Consistent>
1

>  <s_lp_Variant>
BACE_16.smi:1-2

>  <chiral flag>
1

>  <version>
0

>  <s_i_glide_gridfile>
second_dock_grid_2

>  <i_i_glide_lignum>
29

>  <i_i_glide_rotatable_bonds>
10

>  <r_i_docking_score>
-2.82716

>  <r_i_glide_ligand_efficiency>
-0.0673133

>  <r_i_glide_ligand_efficiency_sa>
-0.233983

>  <r_i_glide_ligand_efficiency_ln>
-0.59674

>  <r_glide_XP_GScore>
-5.00306

>  <r_i_glide_gscore>
-5.00306

>  <r_i_glide_evdw>
-41.975

>  <r_i_glide_ecoul>
-14.1203

>  <r_i_glide_energy>
-56.0953

>  <r_i_glide_einternal>
2.88558

>  <r_i_glide_emodel>
-76.0824

>  <r_glide_XP_HBond>
-1.21463

>  <i_i_glide_confnum>
1

>  <i_i_glide_posenum>
1

>  <r_i_glide_eff_state_penalty>
2.1759

>  <i_glide_XP_PoseRank>
1

$$$$
