BACE_93.smi:1
 OpenBabel09291822493D
Structure written by MMmdl.
 93 96  0  0  1  0  0  0  0  0999 V2000
   20.7606   48.8563   -5.5870 C   0  0  0  0  0  0  0  0  0  0  0  0
   20.0278   48.4248   -6.8720 C   0  0  2  0  0  0  0  0  0  0  0  0
   19.3148   49.6047   -7.5722 C   0  0  0  0  0  0  0  0  0  0  0  0
   20.2771   50.4580   -8.4115 C   0  0  0  0  0  0  0  0  0  0  0  0
   20.8598   51.4048   -7.8858 O   0  0  0  0  0  0  0  0  0  0  0  0
   20.4513   50.1609   -9.7072 N   0  0  0  0  0  0  0  0  0  0  0  0
   19.8686   49.0169  -10.3988 C   0  0  0  0  0  0  0  0  0  0  0  0
   20.5650   48.7384  -11.7378 C   0  0  0  0  0  0  0  0  0  0  0  0
   20.1167   47.4021  -12.3477 C   0  0  0  0  0  0  0  0  0  0  0  0
   18.6689   47.4055  -12.8719 C   0  0  0  0  0  0  0  0  0  0  0  0
   18.2321   46.0808  -13.1359 O   0  0  0  0  0  0  0  0  0  0  0  0
   17.7575   45.3006  -12.0981 C   0  0  0  0  0  0  0  0  0  0  0  0
   17.6312   45.7220  -10.7456 C   0  0  0  0  0  0  0  0  0  0  0  0
   17.0960   44.8514   -9.7685 C   0  0  0  0  0  0  0  0  0  0  0  0
   16.9476   45.2900   -8.3114 C   0  0  0  0  0  0  0  0  0  0  0  0
   18.1905   45.0750   -7.3988 C   0  0  2  0  0  0  0  0  0  0  0  0
   19.0531   46.2576   -7.4600 N   0  0  0  0  0  0  0  0  0  0  0  0
   19.0336   47.2879   -6.5997 C   0  0  0  0  0  0  0  0  0  0  0  0
   18.2701   47.3541   -5.6374 O   0  0  0  0  0  0  0  0  0  0  0  0
   19.0152   43.7989   -7.7044 C   0  0  2  0  0  0  0  0  0  0  0  0
   18.1814   42.6676   -7.6399 O   0  0  0  0  0  0  0  0  0  0  0  0
   20.2689   43.5648   -6.8242 C   0  0  0  0  0  0  0  0  0  0  0  0
   20.0701   42.6198   -5.7092 N   0  0  0  0  0  0  0  0  0  0  0  0
   21.0744   41.5574   -5.4733 C   0  0  0  0  0  0  0  0  0  0  0  0
   20.6058   40.6307   -4.3175 C   0  0  0  0  0  0  0  0  0  0  0  0
   20.4862   41.3487   -2.9648 C   0  0  0  0  0  0  0  0  0  0  0  0
   21.8183   41.9920   -2.5916 C   0  0  0  0  0  0  0  0  0  0  0  0
   22.3045   42.9308   -3.6989 C   0  0  0  0  0  0  0  0  0  0  0  0
   22.4313   42.2157   -5.0564 C   0  0  0  0  0  0  0  0  0  0  0  0
   21.1591   40.7135   -6.7603 C   0  0  0  0  0  0  0  0  0  0  0  0
   19.9808   40.0971   -7.2501 C   0  0  0  0  0  0  0  0  0  0  0  0
   19.9519   39.3711   -8.4610 C   0  0  0  0  0  0  0  0  0  0  0  0
   21.1604   39.2569   -9.1885 C   0  0  0  0  0  0  0  0  0  0  0  0
   22.3461   39.8445   -8.7123 C   0  0  0  0  0  0  0  0  0  0  0  0
   22.3483   40.5718   -7.5084 C   0  0  0  0  0  0  0  0  0  0  0  0
   18.6266   38.7629   -8.9620 C   0  0  0  0  0  0  0  0  0  0  0  0
   17.8473   38.0918   -7.8088 C   0  0  0  0  0  0  0  0  0  0  0  0
   17.7453   39.8587   -9.5877 C   0  0  0  0  0  0  0  0  0  0  0  0
   18.8647   37.6857  -10.0321 C   0  0  0  0  0  0  0  0  0  0  0  0
   16.6832   43.5567  -10.1494 C   0  0  0  0  0  0  0  0  0  0  0  0
   16.8415   43.1172  -11.4716 C   0  0  0  0  0  0  0  0  0  0  0  0
   17.3707   43.9887  -12.4398 C   0  0  0  0  0  0  0  0  0  0  0  0
   20.7883   48.0243   -7.5452 H   0  0  0  0  0  0  0  0  0  0  0  0
   17.8242   44.9766   -6.3768 H   0  0  0  0  0  0  0  0  0  0  0  0
   19.3673   43.8651   -8.7340 H   0  0  0  0  0  0  0  0  0  0  0  0
   21.5255   49.6020   -5.8012 H   0  0  0  0  0  0  0  0  0  0  0  0
   21.2622   48.0097   -5.1166 H   0  0  0  0  0  0  0  0  0  0  0  0
   20.0727   49.2872   -4.8577 H   0  0  0  0  0  0  0  0  0  0  0  0
   18.8462   50.2545   -6.8388 H   0  0  0  0  0  0  0  0  0  0  0  0
   18.4884   49.2599   -8.1955 H   0  0  0  0  0  0  0  0  0  0  0  0
   21.0717   50.7542  -10.2415 H   0  0  0  0  0  0  0  0  0  0  0  0
   18.8063   49.2084  -10.5530 H   0  0  0  0  0  0  0  0  0  0  0  0
   19.9498   48.1281   -9.7736 H   0  0  0  0  0  0  0  0  0  0  0  0
   21.6429   48.6978  -11.5769 H   0  0  0  0  0  0  0  0  0  0  0  0
   20.3870   49.5550  -12.4384 H   0  0  0  0  0  0  0  0  0  0  0  0
   20.7816   47.1440  -13.1716 H   0  0  0  0  0  0  0  0  0  0  0  0
   20.2475   46.6121  -11.6077 H   0  0  0  0  0  0  0  0  0  0  0  0
   18.6333   47.9617  -13.8101 H   0  0  0  0  0  0  0  0  0  0  0  0
   17.9726   47.9225  -12.2122 H   0  0  0  0  0  0  0  0  0  0  0  0
   17.9340   46.7088  -10.4315 H   0  0  0  0  0  0  0  0  0  0  0  0
   16.1204   44.7183   -7.8874 H   0  0  0  0  0  0  0  0  0  0  0  0
   16.6160   46.3294   -8.2738 H   0  0  0  0  0  0  0  0  0  0  0  0
   19.7196   46.2818   -8.2154 H   0  0  0  0  0  0  0  0  0  0  0  0
   18.5276   42.0884   -6.9731 H   0  0  0  0  0  0  0  0  0  0  0  0
   20.6498   44.5106   -6.4315 H   0  0  0  0  0  0  0  0  0  0  0  0
   21.0628   43.1992   -7.4766 H   0  0  0  0  0  0  0  0  0  0  0  0
   19.1165   42.3834   -5.4198 H   0  0  0  0  0  0  0  0  0  0  0  0
   19.6602   40.1496   -4.5402 H   0  0  0  0  0  0  0  0  0  0  0  0
   21.3211   39.8122   -4.2128 H   0  0  0  0  0  0  0  0  0  0  0  0
   20.1846   40.6392   -2.1941 H   0  0  0  0  0  0  0  0  0  0  0  0
   19.7046   42.1072   -3.0070 H   0  0  0  0  0  0  0  0  0  0  0  0
   21.7298   42.5312   -1.6464 H   0  0  0  0  0  0  0  0  0  0  0  0
   22.5492   41.2027   -2.4431 H   0  0  0  0  0  0  0  0  0  0  0  0
   23.2599   43.3578   -3.4154 H   0  0  0  0  0  0  0  0  0  0  0  0
   21.6102   43.7617   -3.7873 H   0  0  0  0  0  0  0  0  0  0  0  0
   22.7606   42.9351   -5.8081 H   0  0  0  0  0  0  0  0  0  0  0  0
   23.2534   41.4904   -4.9697 H   0  0  0  0  0  0  0  0  0  0  0  0
   19.0678   40.2105   -6.6870 H   0  0  0  0  0  0  0  0  0  0  0  0
   21.2094   38.7256  -10.1260 H   0  0  0  0  0  0  0  0  0  0  0  0
   23.2590   39.7503   -9.2812 H   0  0  0  0  0  0  0  0  0  0  0  0
   23.2668   41.0386   -7.1954 H   0  0  0  0  0  0  0  0  0  0  0  0
   18.4595   37.3542   -7.2938 H   0  0  0  0  0  0  0  0  0  0  0  0
   16.9582   37.5762   -8.1695 H   0  0  0  0  0  0  0  0  0  0  0  0
   17.4950   38.7993   -7.0604 H   0  0  0  0  0  0  0  0  0  0  0  0
   18.2765   40.4020  -10.3694 H   0  0  0  0  0  0  0  0  0  0  0  0
   17.4167   40.5785   -8.8423 H   0  0  0  0  0  0  0  0  0  0  0  0
   16.8458   39.4340  -10.0327 H   0  0  0  0  0  0  0  0  0  0  0  0
   19.2740   38.1012  -10.9546 H   0  0  0  0  0  0  0  0  0  0  0  0
   17.9413   37.1740  -10.2990 H   0  0  0  0  0  0  0  0  0  0  0  0
   19.5607   36.9514   -9.6400 H   0  0  0  0  0  0  0  0  0  0  0  0
   16.2687   42.8815   -9.4137 H   0  0  0  0  0  0  0  0  0  0  0  0
   16.5553   42.1097  -11.7385 H   0  0  0  0  0  0  0  0  0  0  0  0
   17.4813   43.6544  -13.4598 H   0  0  0  0  0  0  0  0  0  0  0  0
  1  2  1  0  0  0  0
  1 46  1  0  0  0  0
  1 47  1  0  0  0  0
  1 48  1  0  0  0  0
  2 43  1  6  0  0  0
  2 18  1  0  0  0  0
  2  3  1  0  0  0  0
  3  4  1  0  0  0  0
  3 49  1  0  0  0  0
  3 50  1  0  0  0  0
  4  5  2  0  0  0  0
  4  6  1  0  0  0  0
  6  7  1  0  0  0  0
  6 51  1  0  0  0  0
  7  8  1  0  0  0  0
  7 52  1  0  0  0  0
  7 53  1  0  0  0  0
  8  9  1  0  0  0  0
  8 54  1  0  0  0  0
  8 55  1  0  0  0  0
  9 10  1  0  0  0  0
  9 56  1  0  0  0  0
  9 57  1  0  0  0  0
 10 11  1  0  0  0  0
 10 58  1  0  0  0  0
 10 59  1  0  0  0  0
 11 12  1  0  0  0  0
 12 42  1  0  0  0  0
 12 13  2  0  0  0  0
 13 14  1  0  0  0  0
 13 60  1  0  0  0  0
 14 15  1  0  0  0  0
 14 40  2  0  0  0  0
 15 16  1  0  0  0  0
 15 61  1  0  0  0  0
 15 62  1  0  0  0  0
 16 44  1  1  0  0  0
 16 17  1  0  0  0  0
 16 20  1  0  0  0  0
 17 18  1  0  0  0  0
 17 63  1  0  0  0  0
 18 19  2  0  0  0  0
 20 45  1  6  0  0  0
 20 21  1  0  0  0  0
 20 22  1  0  0  0  0
 21 64  1  0  0  0  0
 22 23  1  0  0  0  0
 22 65  1  0  0  0  0
 22 66  1  0  0  0  0
 23 24  1  0  0  0  0
 23 67  1  0  0  0  0
 24 29  1  0  0  0  0
 24 25  1  0  0  0  0
 24 30  1  0  0  0  0
 25 26  1  0  0  0  0
 25 68  1  0  0  0  0
 25 69  1  0  0  0  0
 26 27  1  0  0  0  0
 26 70  1  0  0  0  0
 26 71  1  0  0  0  0
 27 28  1  0  0  0  0
 27 72  1  0  0  0  0
 27 73  1  0  0  0  0
 28 29  1  0  0  0  0
 28 74  1  0  0  0  0
 28 75  1  0  0  0  0
 29 76  1  0  0  0  0
 29 77  1  0  0  0  0
 30 35  1  0  0  0  0
 30 31  2  0  0  0  0
 31 32  1  0  0  0  0
 31 78  1  0  0  0  0
 32 33  2  0  0  0  0
 32 36  1  0  0  0  0
 33 34  1  0  0  0  0
 33 79  1  0  0  0  0
 34 35  2  0  0  0  0
 34 80  1  0  0  0  0
 35 81  1  0  0  0  0
 36 37  1  0  0  0  0
 36 38  1  0  0  0  0
 36 39  1  0  0  0  0
 37 82  1  0  0  0  0
 37 83  1  0  0  0  0
 37 84  1  0  0  0  0
 38 85  1  0  0  0  0
 38 86  1  0  0  0  0
 38 87  1  0  0  0  0
 39 88  1  0  0  0  0
 39 89  1  0  0  0  0
 39 90  1  0  0  0  0
 40 41  1  0  0  0  0
 40 91  1  0  0  0  0
 41 42  2  0  0  0  0
 41 92  1  0  0  0  0
 42 93  1  0  0  0  0
M  END
>  <s_m_source_file>
BACE_93.smi

>  <i_m_source_file_index>
1

>  <i_lp_mmshare_version>
42013

>  <i_f3d_flags>
0

>  <s_epik_input>
TzFbQ0gyXVtDSDJdW0NIMl1bQ0gyXVtOSF1DKD1PKVtDSDJdW0NAQEhdKFtDSDNdKUMoPU8pW05IXVtDQEBIXShbQ0gyXWMoW2NIXWMxMilbY0hdW2NIXVtjSF0yKVtDQEhdKFtPSF0pW0NIMl1bTkhdQzMoW0NIMl1bQ0gyXVtDSDJdW0NIMl1bQ0gyXTMpYzRbY0hdYyhDKFtDSDNdKShbQ0gzXSlbQ0gzXSlbY0hdW2NIXVtjSF00

>  <s_epik_cmdline>
J2VwaWtfcHl0aG9uJywgJy1waCcsICc3LjAnLCAnLXRuJywgJzgnLCAnLW1hJywgJzIwMCcsICctaW1hZScsICc8aW5maWxlLm1hZT4nLCAnLW9tYWUnLCAnPG91dGZpbGUubWFlPic=

>  <r_lp_tautomer_probability>
1

>  <r_epik_Ionization_Penalty>
2.3184

>  <r_epik_Ionization_Penalty_Charging>
0.0000

>  <r_epik_Ionization_Penalty_Neutral>
2.3184

>  <r_epik_State_Penalty>
2.4704

>  <r_epik_Charging_Adjusted_Penalty>
2.47036

>  <i_epik_Tot_Q>
0

>  <i_epik_Tot_abs_Q>
0

>  <s_lp_Force_Field>
OPLS_2005

>  <r_lp_Energy>
48.7286

>  <b_lp_Chiralities_Consistent>
1

>  <s_lp_Variant>
BACE_93.smi:1-2

>  <chiral flag>
1

>  <version>
0

>  <s_i_glide_gridfile>
second_dock_grid_2

>  <i_i_glide_lignum>
189

>  <i_i_glide_rotatable_bonds>
7

>  <r_i_docking_score>
-2.56985

>  <r_i_glide_ligand_efficiency>
-0.0611869

>  <r_i_glide_ligand_efficiency_sa>
-0.212687

>  <r_i_glide_ligand_efficiency_ln>
-0.542429

>  <r_glide_XP_GScore>
-5.04025

>  <r_i_glide_gscore>
-5.04025

>  <r_i_glide_evdw>
-40.6701

>  <r_i_glide_ecoul>
-11.4165

>  <r_i_glide_energy>
-52.0866

>  <r_i_glide_einternal>
6.04895

>  <r_i_glide_emodel>
-66.0277

>  <r_glide_XP_HBond>
0

>  <i_i_glide_confnum>
1

>  <i_i_glide_posenum>
5

>  <r_i_glide_eff_state_penalty>
2.4704

>  <i_glide_XP_PoseRank>
1

$$$$
