BACE_148.smi:1
 OpenBabel09291822493D
Structure written by MMmdl.
 85 85  0  0  1  0  0  0  0  0999 V2000
   21.5702   42.5446   -2.6538 C   0  0  0  0  0  0  0  0  0  0  0  0
   20.6025   41.5507   -3.3077 C   0  0  0  0  0  0  0  0  0  0  0  0
   21.1559   40.9117   -4.5928 C   0  0  0  0  0  0  0  0  0  0  0  0
   21.1354   41.8545   -5.8075 C   0  0  0  0  0  0  0  0  0  0  0  0
   21.8929   41.2752   -6.9091 N   0  0  0  0  0  0  0  0  0  0  0  0
   22.2705   41.9505   -8.0043 C   0  0  0  0  0  0  0  0  0  0  0  0
   21.9039   43.0992   -8.2505 O   0  0  0  0  0  0  0  0  0  0  0  0
   23.2448   41.2320   -8.9465 C   0  0  2  0  0  0  0  0  0  0  0  0
   24.6132   41.9229   -8.8398 C   0  0  0  0  0  0  0  0  0  0  0  0
   22.7981   41.2020  -10.4266 C   0  0  0  0  0  0  0  0  0  0  0  0
   21.6309   40.2539  -10.7983 C   0  0  2  0  0  0  0  0  0  0  0  0
   21.6597   40.1074  -12.2087 O   0  0  0  0  0  0  0  0  0  0  0  0
   20.2197   40.7616  -10.4114 C   0  0  2  0  0  0  0  0  0  0  0  0
   19.0846   39.7378  -10.6640 C   0  0  0  0  0  0  0  0  0  0  0  0
   18.5294   39.1067   -9.3638 C   0  0  2  0  0  0  0  0  0  0  0  0
   19.5592   38.1825   -8.6919 C   0  0  0  0  0  0  0  0  0  0  0  0
   17.2002   38.3458   -9.5735 C   0  0  0  0  0  0  0  0  0  0  0  0
   16.0398   39.1558  -10.1890 C   0  0  0  0  0  0  0  0  0  0  0  0
   15.7077   40.4661   -9.4552 C   0  0  0  0  0  0  0  0  0  0  0  0
   14.4562   41.1463  -10.0325 C   0  0  0  0  0  0  0  0  0  0  0  0
   14.0603   42.4457   -9.3046 C   0  0  0  0  0  0  0  0  0  0  0  0
   14.8834   43.6997   -9.6702 C   0  0  2  0  0  0  0  0  0  0  0  0
   14.7012   44.7607   -8.5717 C   0  0  0  0  0  0  0  0  0  0  0  0
   14.4951   44.2582  -11.0631 C   0  0  0  0  0  0  0  0  0  0  0  0
   15.4871   45.2789  -11.6606 C   0  0  0  0  0  0  0  0  0  0  0  0
   16.8522   44.6458  -11.9912 C   0  0  0  0  0  0  0  0  0  0  0  0
   16.8600   43.7501  -12.8398 O   0  0  0  0  0  0  0  0  0  0  0  0
   17.9854   45.0546  -11.3575 N   0  0  0  0  0  0  0  0  0  0  0  0
   17.9572   46.1061  -10.3268 C   0  0  0  0  0  0  0  0  0  0  0  0
   19.2387   44.2900  -11.5863 C   0  0  1  0  0  0  0  0  0  0  0  0
   20.5232   45.1205  -11.3586 C   0  0  0  0  0  0  0  0  0  0  0  0
   19.2928   43.0647  -10.6561 C   0  0  0  0  0  0  0  0  0  0  0  0
   18.7507   43.0807   -9.5508 O   0  0  0  0  0  0  0  0  0  0  0  0
   19.9664   42.0073  -11.1267 N   0  0  0  0  0  0  0  0  0  0  0  0
   23.3663   40.2035   -8.6030 H   0  0  0  0  0  0  0  0  0  0  0  0
   21.8168   39.2753  -10.3567 H   0  0  0  0  0  0  0  0  0  0  0  0
   20.2156   40.9857   -9.3469 H   0  0  0  0  0  0  0  0  0  0  0  0
   18.3215   39.9132   -8.6589 H   0  0  0  0  0  0  0  0  0  0  0  0
   15.9353   43.4141   -9.6758 H   0  0  0  0  0  0  0  0  0  0  0  0
   19.2602   43.9470  -12.6215 H   0  0  0  0  0  0  0  0  0  0  0  0
   21.1622   42.9244   -1.7164 H   0  0  0  0  0  0  0  0  0  0  0  0
   21.7601   43.4005   -3.3008 H   0  0  0  0  0  0  0  0  0  0  0  0
   22.5287   42.0727   -2.4403 H   0  0  0  0  0  0  0  0  0  0  0  0
   19.6600   42.0530   -3.5189 H   0  0  0  0  0  0  0  0  0  0  0  0
   20.3749   40.7615   -2.5893 H   0  0  0  0  0  0  0  0  0  0  0  0
   20.5624   40.0278   -4.8313 H   0  0  0  0  0  0  0  0  0  0  0  0
   22.1693   40.5530   -4.4034 H   0  0  0  0  0  0  0  0  0  0  0  0
   21.5723   42.8189   -5.5457 H   0  0  0  0  0  0  0  0  0  0  0  0
   20.1084   42.0402   -6.1242 H   0  0  0  0  0  0  0  0  0  0  0  0
   22.2355   40.3344   -6.7872 H   0  0  0  0  0  0  0  0  0  0  0  0
   25.4022   41.2882   -9.2458 H   0  0  0  0  0  0  0  0  0  0  0  0
   24.8598   42.1501   -7.8029 H   0  0  0  0  0  0  0  0  0  0  0  0
   24.6294   42.8653   -9.3885 H   0  0  0  0  0  0  0  0  0  0  0  0
   23.6737   40.8705  -10.9807 H   0  0  0  0  0  0  0  0  0  0  0  0
   22.6018   42.2144  -10.7827 H   0  0  0  0  0  0  0  0  0  0  0  0
   22.5669   40.1501  -12.5017 H   0  0  0  0  0  0  0  0  0  0  0  0
   18.2762   40.2498  -11.1836 H   0  0  0  0  0  0  0  0  0  0  0  0
   19.4085   38.9538  -11.3492 H   0  0  0  0  0  0  0  0  0  0  0  0
   19.1543   37.7513   -7.7758 H   0  0  0  0  0  0  0  0  0  0  0  0
   20.4657   38.7196   -8.4148 H   0  0  0  0  0  0  0  0  0  0  0  0
   19.8433   37.3591   -9.3472 H   0  0  0  0  0  0  0  0  0  0  0  0
   17.3815   37.4670  -10.1927 H   0  0  0  0  0  0  0  0  0  0  0  0
   16.8650   37.9596   -8.6082 H   0  0  0  0  0  0  0  0  0  0  0  0
   15.1543   38.5191  -10.1930 H   0  0  0  0  0  0  0  0  0  0  0  0
   16.2462   39.3718  -11.2365 H   0  0  0  0  0  0  0  0  0  0  0  0
   15.5517   40.2579   -8.3952 H   0  0  0  0  0  0  0  0  0  0  0  0
   16.5531   41.1528   -9.5169 H   0  0  0  0  0  0  0  0  0  0  0  0
   13.6256   40.4436   -9.9402 H   0  0  0  0  0  0  0  0  0  0  0  0
   14.5801   41.3174  -11.1023 H   0  0  0  0  0  0  0  0  0  0  0  0
   13.0061   42.6485   -9.4951 H   0  0  0  0  0  0  0  0  0  0  0  0
   14.1314   42.2607   -8.2311 H   0  0  0  0  0  0  0  0  0  0  0  0
   15.1802   45.7067   -8.8184 H   0  0  0  0  0  0  0  0  0  0  0  0
   15.1473   44.4196   -7.6401 H   0  0  0  0  0  0  0  0  0  0  0  0
   13.6461   44.9501   -8.3810 H   0  0  0  0  0  0  0  0  0  0  0  0
   14.3857   43.4382  -11.7731 H   0  0  0  0  0  0  0  0  0  0  0  0
   13.5055   44.7112  -11.0049 H   0  0  0  0  0  0  0  0  0  0  0  0
   15.5493   46.1577  -11.0261 H   0  0  0  0  0  0  0  0  0  0  0  0
   15.0787   45.6470  -12.6010 H   0  0  0  0  0  0  0  0  0  0  0  0
   18.9203   46.3469   -9.8850 H   0  0  0  0  0  0  0  0  0  0  0  0
   17.3286   45.7933   -9.4925 H   0  0  0  0  0  0  0  0  0  0  0  0
   17.5646   47.0400  -10.7346 H   0  0  0  0  0  0  0  0  0  0  0  0
   21.3907   44.6004  -11.7657 H   0  0  0  0  0  0  0  0  0  0  0  0
   20.7413   45.2858  -10.3017 H   0  0  0  0  0  0  0  0  0  0  0  0
   20.4669   46.0888  -11.8580 H   0  0  0  0  0  0  0  0  0  0  0  0
   20.3917   42.0658  -12.0393 H   0  0  0  0  0  0  0  0  0  0  0  0
  1  2  1  0  0  0  0
  1 41  1  0  0  0  0
  1 42  1  0  0  0  0
  1 43  1  0  0  0  0
  2  3  1  0  0  0  0
  2 44  1  0  0  0  0
  2 45  1  0  0  0  0
  3  4  1  0  0  0  0
  3 46  1  0  0  0  0
  3 47  1  0  0  0  0
  4  5  1  0  0  0  0
  4 48  1  0  0  0  0
  4 49  1  0  0  0  0
  5  6  1  0  0  0  0
  5 50  1  0  0  0  0
  6  7  2  0  0  0  0
  6  8  1  0  0  0  0
  8 35  1  1  0  0  0
  8  9  1  0  0  0  0
  8 10  1  0  0  0  0
  9 51  1  0  0  0  0
  9 52  1  0  0  0  0
  9 53  1  0  0  0  0
 10 11  1  0  0  0  0
 10 54  1  0  0  0  0
 10 55  1  0  0  0  0
 11 36  1  1  0  0  0
 11 12  1  0  0  0  0
 11 13  1  0  0  0  0
 12 56  1  0  0  0  0
 13 37  1  1  0  0  0
 13 34  1  0  0  0  0
 13 14  1  0  0  0  0
 14 15  1  0  0  0  0
 14 57  1  0  0  0  0
 14 58  1  0  0  0  0
 15 38  1  1  0  0  0
 15 16  1  0  0  0  0
 15 17  1  0  0  0  0
 16 59  1  0  0  0  0
 16 60  1  0  0  0  0
 16 61  1  0  0  0  0
 17 18  1  0  0  0  0
 17 62  1  0  0  0  0
 17 63  1  0  0  0  0
 18 19  1  0  0  0  0
 18 64  1  0  0  0  0
 18 65  1  0  0  0  0
 19 20  1  0  0  0  0
 19 66  1  0  0  0  0
 19 67  1  0  0  0  0
 20 21  1  0  0  0  0
 20 68  1  0  0  0  0
 20 69  1  0  0  0  0
 21 22  1  0  0  0  0
 21 70  1  0  0  0  0
 21 71  1  0  0  0  0
 22 39  1  6  0  0  0
 22 23  1  0  0  0  0
 22 24  1  0  0  0  0
 23 72  1  0  0  0  0
 23 73  1  0  0  0  0
 23 74  1  0  0  0  0
 24 25  1  0  0  0  0
 24 75  1  0  0  0  0
 24 76  1  0  0  0  0
 25 26  1  0  0  0  0
 25 77  1  0  0  0  0
 25 78  1  0  0  0  0
 26 27  2  0  0  0  0
 26 28  1  0  0  0  0
 28 29  1  0  0  0  0
 28 30  1  0  0  0  0
 29 79  1  0  0  0  0
 29 80  1  0  0  0  0
 29 81  1  0  0  0  0
 30 40  1  6  0  0  0
 30 31  1  0  0  0  0
 30 32  1  0  0  0  0
 31 82  1  0  0  0  0
 31 83  1  0  0  0  0
 31 84  1  0  0  0  0
 32 33  2  0  0  0  0
 32 34  1  0  0  0  0
 34 85  1  0  0  0  0
M  END
>  <s_m_source_file>
BACE_148.smi

>  <i_m_source_file_index>
1

>  <i_lp_mmshare_version>
42013

>  <i_f3d_flags>
0

>  <s_epik_input>
W0NIM11bQ0gyXVtDSDJdW0NIMl1bTkhdQyg9TylbQ0BIXShbQ0gzXSlbQ0gyXVtDQEhdKFtPSF0pW0NAQEhdMVtDSDJdW0NASF0oW0NIM10pW0NIMl1bQ0gyXVtDSDJdW0NIMl1bQ0gyXVtDQEhdKFtDSDNdKVtDSDJdW0NIMl1DKD1PKU4oW0NIM10pW0NAQEhdKFtDSDNdKUMoPU8pW05IXTE=

>  <s_epik_cmdline>
J2VwaWtfcHl0aG9uJywgJy1waCcsICc3LjAnLCAnLXRuJywgJzgnLCAnLW1hJywgJzIwMCcsICctaW1hZScsICc8aW5maWxlLm1hZT4nLCAnLW9tYWUnLCAnPG91dGZpbGUubWFlPic=

>  <r_lp_tautomer_probability>
1

>  <r_epik_Ionization_Penalty>
0.0000

>  <r_epik_Ionization_Penalty_Charging>
0.0000

>  <r_epik_Ionization_Penalty_Neutral>
0.0000

>  <r_epik_State_Penalty>
-0.0000

>  <r_epik_Charging_Adjusted_Penalty>
0

>  <i_epik_Tot_Q>
0

>  <i_epik_Tot_abs_Q>
0

>  <s_lp_Force_Field>
OPLS_2005

>  <r_lp_Energy>
35.6686

>  <b_lp_Chiralities_Consistent>
1

>  <s_lp_Variant>
BACE_148.smi:1-1

>  <chiral flag>
1

>  <version>
0

>  <s_i_glide_gridfile>
second_dock_grid_2

>  <i_i_glide_lignum>
301

>  <i_i_glide_rotatable_bonds>
9

>  <r_i_docking_score>
-4.06281

>  <r_i_glide_ligand_efficiency>
-0.119494

>  <r_i_glide_ligand_efficiency_sa>
-0.387116

>  <r_i_glide_ligand_efficiency_ln>
-0.897589

>  <r_glide_XP_GScore>
-4.06281

>  <r_i_glide_gscore>
-4.06281

>  <r_i_glide_evdw>
-33.9618

>  <r_i_glide_ecoul>
-9.73944

>  <r_i_glide_energy>
-43.7012

>  <r_i_glide_einternal>
1.5618

>  <r_i_glide_emodel>
-56.0097

>  <r_glide_XP_HBond>
-1.82121

>  <i_i_glide_confnum>
1

>  <i_i_glide_posenum>
43

>  <r_i_glide_eff_state_penalty>
-0

>  <i_glide_XP_PoseRank>
1

$$$$
