BACE_10.smi:1
 OpenBabel09291822493D
Structure written by MMmdl.
 85 87  0  0  1  0  0  0  0  0999 V2000
   18.2924   47.5894   -6.2800 C   0  0  0  0  0  0  0  0  0  0  0  0
   19.1400   46.6437   -5.6450 O   0  0  0  0  0  0  0  0  0  0  0  0
   20.1339   46.1042   -6.5129 C   0  0  0  0  0  0  0  0  0  0  0  0
   19.6171   45.0495   -7.4815 C   0  0  0  0  0  0  0  0  0  0  0  0
   18.4595   44.3092   -7.1762 C   0  0  0  0  0  0  0  0  0  0  0  0
   18.0027   43.2780   -8.0187 C   0  0  0  0  0  0  0  0  0  0  0  0
   18.7151   43.0034   -9.2073 C   0  0  0  0  0  0  0  0  0  0  0  0
   19.8723   43.7415   -9.5301 C   0  0  0  0  0  0  0  0  0  0  0  0
   20.3201   44.7657   -8.6691 C   0  0  0  0  0  0  0  0  0  0  0  0
   20.5756   43.5029  -10.8295 C   0  0  0  0  0  0  0  0  0  0  0  0
   20.6797   44.4271  -11.6330 O   0  0  0  0  0  0  0  0  0  0  0  0
   21.0644   42.2764  -11.1001 N   0  0  0  0  0  0  0  0  0  0  0  0
   21.3724   41.1733  -10.1807 C   0  0  1  0  0  0  0  0  0  0  0  0
   20.6161   39.8987  -10.6514 C   0  0  0  0  0  0  0  0  0  0  0  0
   19.6504   39.2699   -9.6178 C   0  0  2  0  0  0  0  0  0  0  0  0
   20.4062   38.5776   -8.4690 C   0  0  0  0  0  0  0  0  0  0  0  0
   18.6673   38.3018  -10.3222 C   0  0  0  0  0  0  0  0  0  0  0  0
   17.4951   37.8218   -9.4473 C   0  0  0  0  0  0  0  0  0  0  0  0
   16.8160   38.9604   -8.9498 O   0  0  0  0  0  0  0  0  0  0  0  0
   15.6302   38.6640   -8.2336 C   0  0  0  0  0  0  0  0  0  0  0  0
   15.2816   39.8361   -7.3018 C   0  0  0  0  0  0  0  0  0  0  0  0
   14.8693   41.1342   -8.0269 C   0  0  0  0  0  0  0  0  0  0  0  0
   16.0278   41.9254   -8.6530 C   0  0  0  0  0  0  0  0  0  0  0  0
   16.8575   42.5640   -7.6401 N   0  0  0  0  0  0  0  0  0  0  0  0
   22.9174   40.9556  -10.1172 C   0  0  2  0  0  0  0  0  0  0  0  0
   23.2155   40.1505   -8.9935 O   0  0  0  0  0  0  0  0  0  0  0  0
   23.7662   42.2398   -9.9655 C   0  0  0  0  0  0  0  0  0  0  0  0
   23.9344   42.9503  -11.2389 N   0  0  0  0  0  0  0  0  0  0  0  0
   24.6148   44.2380  -11.1326 C   0  0  0  0  0  0  0  0  0  0  0  0
   26.0184   44.2062  -11.7029 C   0  0  0  0  0  0  0  0  0  0  0  0
   27.0058   43.4131  -11.0905 C   0  0  0  0  0  0  0  0  0  0  0  0
   28.3171   43.3762  -11.6088 C   0  0  0  0  0  0  0  0  0  0  0  0
   28.6342   44.1395  -12.7543 C   0  0  0  0  0  0  0  0  0  0  0  0
   27.6521   44.9448  -13.3605 C   0  0  0  0  0  0  0  0  0  0  0  0
   26.3438   44.9731  -12.8400 C   0  0  0  0  0  0  0  0  0  0  0  0
   29.3520   42.4903  -10.9356 C   0  0  0  0  0  0  0  0  0  0  0  0
   30.6336   43.2557  -10.5700 C   0  0  0  0  0  0  0  0  0  0  0  0
   29.6548   41.2488  -11.7865 C   0  0  0  0  0  0  0  0  0  0  0  0
   21.0388   41.4426   -9.1768 H   0  0  0  0  0  0  0  0  0  0  0  0
   19.0589   40.0778   -9.1871 H   0  0  0  0  0  0  0  0  0  0  0  0
   23.2508   40.4132  -11.0008 H   0  0  0  0  0  0  0  0  0  0  0  0
   17.5731   47.9731   -5.5592 H   0  0  0  0  0  0  0  0  0  0  0  0
   17.7360   47.1456   -7.1062 H   0  0  0  0  0  0  0  0  0  0  0  0
   18.8619   48.4363   -6.6610 H   0  0  0  0  0  0  0  0  0  0  0  0
   20.6463   46.9015   -7.0554 H   0  0  0  0  0  0  0  0  0  0  0  0
   20.8888   45.6277   -5.8879 H   0  0  0  0  0  0  0  0  0  0  0  0
   17.9146   44.5501   -6.2810 H   0  0  0  0  0  0  0  0  0  0  0  0
   18.3870   42.2311   -9.8857 H   0  0  0  0  0  0  0  0  0  0  0  0
   21.2046   45.3301   -8.9250 H   0  0  0  0  0  0  0  0  0  0  0  0
   21.5136   42.1987  -12.0018 H   0  0  0  0  0  0  0  0  0  0  0  0
   20.0451   40.1394  -11.5512 H   0  0  0  0  0  0  0  0  0  0  0  0
   21.3241   39.1353  -10.9777 H   0  0  0  0  0  0  0  0  0  0  0  0
   21.0485   37.7753   -8.8381 H   0  0  0  0  0  0  0  0  0  0  0  0
   19.7205   38.1495   -7.7375 H   0  0  0  0  0  0  0  0  0  0  0  0
   21.0261   39.2851   -7.9204 H   0  0  0  0  0  0  0  0  0  0  0  0
   18.2377   38.7991  -11.1917 H   0  0  0  0  0  0  0  0  0  0  0  0
   19.2128   37.4391  -10.7063 H   0  0  0  0  0  0  0  0  0  0  0  0
   16.8140   37.2105  -10.0395 H   0  0  0  0  0  0  0  0  0  0  0  0
   17.8470   37.1998   -8.6239 H   0  0  0  0  0  0  0  0  0  0  0  0
   14.8138   38.4604   -8.9288 H   0  0  0  0  0  0  0  0  0  0  0  0
   15.7658   37.7613   -7.6400 H   0  0  0  0  0  0  0  0  0  0  0  0
   14.4514   39.5244   -6.6658 H   0  0  0  0  0  0  0  0  0  0  0  0
   16.1107   40.0293   -6.6195 H   0  0  0  0  0  0  0  0  0  0  0  0
   14.1368   40.8949   -8.7999 H   0  0  0  0  0  0  0  0  0  0  0  0
   14.3687   41.7856   -7.3129 H   0  0  0  0  0  0  0  0  0  0  0  0
   16.6186   41.2762   -9.2916 H   0  0  0  0  0  0  0  0  0  0  0  0
   15.6209   42.7078   -9.2940 H   0  0  0  0  0  0  0  0  0  0  0  0
   16.4152   42.7621   -6.7456 H   0  0  0  0  0  0  0  0  0  0  0  0
   23.8781   39.5161   -9.2445 H   0  0  0  0  0  0  0  0  0  0  0  0
   23.3054   42.8868   -9.2192 H   0  0  0  0  0  0  0  0  0  0  0  0
   24.7495   41.9770   -9.5765 H   0  0  0  0  0  0  0  0  0  0  0  0
   24.4262   42.3460  -11.8934 H   0  0  0  0  0  0  0  0  0  0  0  0
   24.0374   44.9882  -11.6731 H   0  0  0  0  0  0  0  0  0  0  0  0
   24.6509   44.5831  -10.0983 H   0  0  0  0  0  0  0  0  0  0  0  0
   26.7563   42.8292  -10.2170 H   0  0  0  0  0  0  0  0  0  0  0  0
   29.6320   44.1113  -13.1701 H   0  0  0  0  0  0  0  0  0  0  0  0
   27.9003   45.5321  -14.2308 H   0  0  0  0  0  0  0  0  0  0  0  0
   25.5934   45.5859  -13.3166 H   0  0  0  0  0  0  0  0  0  0  0  0
   28.9193   42.1478   -9.9946 H   0  0  0  0  0  0  0  0  0  0  0  0
   30.4090   44.1173   -9.9433 H   0  0  0  0  0  0  0  0  0  0  0  0
   31.1623   43.6114  -11.4539 H   0  0  0  0  0  0  0  0  0  0  0  0
   31.3181   42.6182  -10.0130 H   0  0  0  0  0  0  0  0  0  0  0  0
   28.7395   40.7170  -12.0422 H   0  0  0  0  0  0  0  0  0  0  0  0
   30.2903   40.5501  -11.2429 H   0  0  0  0  0  0  0  0  0  0  0  0
   30.1558   41.5097  -12.7194 H   0  0  0  0  0  0  0  0  0  0  0  0
  1  2  1  0  0  0  0
  1 42  1  0  0  0  0
  1 43  1  0  0  0  0
  1 44  1  0  0  0  0
  2  3  1  0  0  0  0
  3  4  1  0  0  0  0
  3 45  1  0  0  0  0
  3 46  1  0  0  0  0
  4  9  1  0  0  0  0
  4  5  2  0  0  0  0
  5  6  1  0  0  0  0
  5 47  1  0  0  0  0
  6 24  1  0  0  0  0
  6  7  2  0  0  0  0
  7  8  1  0  0  0  0
  7 48  1  0  0  0  0
  8  9  2  0  0  0  0
  8 10  1  0  0  0  0
  9 49  1  0  0  0  0
 10 11  2  0  0  0  0
 10 12  1  0  0  0  0
 12 13  1  0  0  0  0
 12 50  1  0  0  0  0
 13 39  1  1  0  0  0
 13 14  1  0  0  0  0
 13 25  1  0  0  0  0
 14 15  1  0  0  0  0
 14 51  1  0  0  0  0
 14 52  1  0  0  0  0
 15 40  1  1  0  0  0
 15 16  1  0  0  0  0
 15 17  1  0  0  0  0
 16 53  1  0  0  0  0
 16 54  1  0  0  0  0
 16 55  1  0  0  0  0
 17 18  1  0  0  0  0
 17 56  1  0  0  0  0
 17 57  1  0  0  0  0
 18 19  1  0  0  0  0
 18 58  1  0  0  0  0
 18 59  1  0  0  0  0
 19 20  1  0  0  0  0
 20 21  1  0  0  0  0
 20 60  1  0  0  0  0
 20 61  1  0  0  0  0
 21 22  1  0  0  0  0
 21 62  1  0  0  0  0
 21 63  1  0  0  0  0
 22 23  1  0  0  0  0
 22 64  1  0  0  0  0
 22 65  1  0  0  0  0
 23 24  1  0  0  0  0
 23 66  1  0  0  0  0
 23 67  1  0  0  0  0
 24 68  1  0  0  0  0
 25 41  1  6  0  0  0
 25 26  1  0  0  0  0
 25 27  1  0  0  0  0
 26 69  1  0  0  0  0
 27 28  1  0  0  0  0
 27 70  1  0  0  0  0
 27 71  1  0  0  0  0
 28 29  1  0  0  0  0
 28 72  1  0  0  0  0
 29 30  1  0  0  0  0
 29 73  1  0  0  0  0
 29 74  1  0  0  0  0
 30 35  1  0  0  0  0
 30 31  2  0  0  0  0
 31 32  1  0  0  0  0
 31 75  1  0  0  0  0
 32 33  2  0  0  0  0
 32 36  1  0  0  0  0
 33 34  1  0  0  0  0
 33 76  1  0  0  0  0
 34 35  2  0  0  0  0
 34 77  1  0  0  0  0
 35 78  1  0  0  0  0
 36 37  1  0  0  0  0
 36 38  1  0  0  0  0
 36 79  1  0  0  0  0
 37 80  1  0  0  0  0
 37 81  1  0  0  0  0
 37 82  1  0  0  0  0
 38 83  1  0  0  0  0
 38 84  1  0  0  0  0
 38 85  1  0  0  0  0
M  END
>  <s_m_source_file>
BACE_10.smi

>  <i_m_source_file_index>
1

>  <i_lp_mmshare_version>
42013

>  <i_f3d_flags>
0

>  <s_epik_input>
W2NIXTFbY0hdW2NIXWMoW0NIXShbQ0gzXSlbQ0gzXSlbY0hdYzFbQ0gyXVtOSF1bQ0gyXVtDQEBIXShbT0hdKVtDQEBIXShbTkhdQyg9TyljKFtjSF0yKVtjSF1jKFtjSF1jMjMpW0NIMl1PW0NIM10pW0NIMl1bQ0BIXShbQ0gzXSlbQ0gyXVtDSDJdT1tDSDJdW0NIMl1bQ0gyXVtDSDJdW05IXTM=

>  <s_epik_cmdline>
J2VwaWtfcHl0aG9uJywgJy1waCcsICc3LjAnLCAnLXRuJywgJzgnLCAnLW1hJywgJzIwMCcsICctaW1hZScsICc8aW5maWxlLm1hZT4nLCAnLW9tYWUnLCAnPG91dGZpbGUubWFlPic=

>  <r_epik_Ionization_Penalty>
2.1223

>  <r_epik_Ionization_Penalty_Charging>
0.0000

>  <r_epik_Ionization_Penalty_Neutral>
2.1223

>  <r_epik_State_Penalty>
2.2595

>  <r_epik_Charging_Adjusted_Penalty>
2.2595

>  <i_epik_Tot_Q>
0

>  <i_epik_Tot_abs_Q>
0

>  <s_lp_Force_Field>
OPLS_2005

>  <r_lp_Energy>
41.2261

>  <b_lp_Chiralities_Consistent>
1

>  <s_lp_Variant>
BACE_10.smi:1-2

>  <chiral flag>
1

>  <version>
0

>  <s_i_glide_gridfile>
second_dock_grid_2

>  <i_i_glide_lignum>
17

>  <i_i_glide_rotatable_bonds>
9

>  <r_i_docking_score>
-1.10455

>  <r_i_glide_ligand_efficiency>
-0.0290672

>  <r_i_glide_ligand_efficiency_sa>
-0.0977231

>  <r_i_glide_ligand_efficiency_ln>
-0.238174

>  <r_glide_XP_GScore>
-3.36405

>  <r_i_glide_gscore>
-3.36405

>  <r_i_glide_evdw>
-37.261

>  <r_i_glide_ecoul>
-9.53406

>  <r_i_glide_energy>
-46.795

>  <r_i_glide_einternal>
2.36729

>  <r_i_glide_emodel>
-65.7739

>  <r_glide_XP_HBond>
-1.33

>  <i_i_glide_confnum>
1

>  <i_i_glide_posenum>
7

>  <r_i_glide_eff_state_penalty>
2.2595

>  <i_glide_XP_PoseRank>
1

$$$$
