BACE_132.smi:1
 OpenBabel09291822493D
Structure written by MMmdl.
 81 85  0  0  1  0  0  0  0  0999 V2000
   29.4698   41.3504  -13.6055 C   0  0  0  0  0  0  0  0  0  0  0  0
   29.8632   42.3545  -12.5143 C   0  0  0  0  0  0  0  0  0  0  0  0
   30.8432   41.7409  -11.5076 C   0  0  0  0  0  0  0  0  0  0  0  0
   28.6622   42.9616  -11.8024 C   0  0  0  0  0  0  0  0  0  0  0  0
   27.6596   42.1477  -11.2254 C   0  0  0  0  0  0  0  0  0  0  0  0
   26.6016   42.7264  -10.4906 C   0  0  0  0  0  0  0  0  0  0  0  0
   25.5554   41.8484   -9.8187 C   0  0  0  0  0  0  0  0  0  0  0  0
   24.3092   41.6820  -10.5964 N   0  3  0  0  0  0  0  0  0  0  0  0
   23.5872   42.9191  -10.9680 C   0  0  0  0  0  0  0  0  0  0  0  0
   22.0618   42.7076  -11.0684 C   0  0  1  0  0  0  0  0  0  0  0  0
   21.7709   41.4457  -11.6393 O   0  0  0  0  0  0  0  0  0  0  0  0
   21.3113   42.9174   -9.7233 C   0  0  2  0  0  0  0  0  0  0  0  0
   21.6604   41.9356   -8.5718 C   0  0  0  0  0  0  0  0  0  0  0  0
   20.9332   40.6015   -8.6139 C   0  0  0  0  0  0  0  0  0  0  0  0
   19.6409   40.4945   -8.0620 C   0  0  0  0  0  0  0  0  0  0  0  0
   18.9416   39.2732   -8.1138 C   0  0  0  0  0  0  0  0  0  0  0  0
   17.5560   39.1795   -7.5130 C   0  0  0  0  0  0  0  0  0  0  0  0
   16.4324   39.2021   -8.5602 C   0  0  0  0  0  0  0  0  0  0  0  0
   15.1426   39.8060   -7.9828 C   0  0  0  0  0  0  0  0  0  0  0  0
   15.1788   41.3438   -7.9439 C   0  0  0  0  0  0  0  0  0  0  0  0
   14.8088   41.8422   -9.2267 O   0  0  0  0  0  0  0  0  0  0  0  0
   15.5708   42.8163   -9.8259 C   0  0  0  0  0  0  0  0  0  0  0  0
   16.9757   42.9235   -9.6953 C   0  0  0  0  0  0  0  0  0  0  0  0
   17.6851   43.9425  -10.3760 C   0  0  0  0  0  0  0  0  0  0  0  0
   16.9702   44.8629  -11.1734 C   0  0  0  0  0  0  0  0  0  0  0  0
   15.5699   44.7635  -11.3135 C   0  0  0  0  0  0  0  0  0  0  0  0
   14.8840   43.7283  -10.6489 C   0  0  0  0  0  0  0  0  0  0  0  0
   14.8324   45.7154  -12.1399 C   0  0  0  0  0  0  0  0  0  0  0  0
   13.5152   45.8045  -12.3386 N   0  0  0  0  0  0  0  0  0  0  0  0
   13.3465   46.8450  -13.2405 C   0  0  0  0  0  0  0  0  0  0  0  0
   14.5804   47.3639  -13.5185 C   0  0  0  0  0  0  0  0  0  0  0  0
   15.5309   46.6534  -12.8383 O   0  0  0  0  0  0  0  0  0  0  0  0
   19.1727   44.0988  -10.2211 C   0  0  0  0  0  0  0  0  0  0  0  0
   19.7082   45.1968  -10.3801 O   0  0  0  0  0  0  0  0  0  0  0  0
   19.8666   42.9817   -9.9542 N   0  0  0  0  0  0  0  0  0  0  0  0
   19.5430   38.1500   -8.7094 C   0  0  0  0  0  0  0  0  0  0  0  0
   20.8498   38.2398   -9.2238 C   0  0  0  0  0  0  0  0  0  0  0  0
   21.5455   39.4621   -9.1773 C   0  0  0  0  0  0  0  0  0  0  0  0
   26.5581   44.1297  -10.3292 C   0  0  0  0  0  0  0  0  0  0  0  0
   27.5358   44.9448  -10.9242 C   0  0  0  0  0  0  0  0  0  0  0  0
   28.5847   44.3635  -11.6587 C   0  0  0  0  0  0  0  0  0  0  0  0
   21.6892   43.4617  -11.7635 H   0  0  0  0  0  0  0  0  0  0  0  0
   21.6288   43.8960   -9.3587 H   0  0  0  0  0  0  0  0  0  0  0  0
   28.8602   41.8183  -14.3763 H   0  0  0  0  0  0  0  0  0  0  0  0
   28.9174   40.4988  -13.2057 H   0  0  0  0  0  0  0  0  0  0  0  0
   30.3556   40.9500  -14.0987 H   0  0  0  0  0  0  0  0  0  0  0  0
   30.3925   43.1632  -13.0194 H   0  0  0  0  0  0  0  0  0  0  0  0
   31.1783   42.4804  -10.7800 H   0  0  0  0  0  0  0  0  0  0  0  0
   31.7247   41.3514  -12.0170 H   0  0  0  0  0  0  0  0  0  0  0  0
   30.3829   40.9153  -10.9631 H   0  0  0  0  0  0  0  0  0  0  0  0
   27.7206   41.0723  -11.3168 H   0  0  0  0  0  0  0  0  0  0  0  0
   25.9764   40.8572   -9.6403 H   0  0  0  0  0  0  0  0  0  0  0  0
   25.2965   42.2674   -8.8452 H   0  0  0  0  0  0  0  0  0  0  0  0
   24.4947   41.1723  -11.4538 H   0  0  0  0  0  0  0  0  0  0  0  0
   23.7783   43.7152  -10.2506 H   0  0  0  0  0  0  0  0  0  0  0  0
   23.9869   43.2548  -11.9267 H   0  0  0  0  0  0  0  0  0  0  0  0
   22.2403   41.3512  -12.4589 H   0  0  0  0  0  0  0  0  0  0  0  0
   22.7309   41.7716   -8.4877 H   0  0  0  0  0  0  0  0  0  0  0  0
   21.3848   42.4087   -7.6278 H   0  0  0  0  0  0  0  0  0  0  0  0
   19.1811   41.3535   -7.5947 H   0  0  0  0  0  0  0  0  0  0  0  0
   17.4760   38.2877   -6.8892 H   0  0  0  0  0  0  0  0  0  0  0  0
   17.4399   40.0246   -6.8396 H   0  0  0  0  0  0  0  0  0  0  0  0
   16.7310   39.7826   -9.4334 H   0  0  0  0  0  0  0  0  0  0  0  0
   16.2553   38.1867   -8.9173 H   0  0  0  0  0  0  0  0  0  0  0  0
   14.2807   39.4815   -8.5660 H   0  0  0  0  0  0  0  0  0  0  0  0
   14.9838   39.4160   -6.9763 H   0  0  0  0  0  0  0  0  0  0  0  0
   14.4332   41.7013   -7.2400 H   0  0  0  0  0  0  0  0  0  0  0  0
   16.1198   41.7227   -7.5521 H   0  0  0  0  0  0  0  0  0  0  0  0
   17.5109   42.2152   -9.0844 H   0  0  0  0  0  0  0  0  0  0  0  0
   17.5035   45.6560  -11.6788 H   0  0  0  0  0  0  0  0  0  0  0  0
   13.8139   43.6339  -10.7528 H   0  0  0  0  0  0  0  0  0  0  0  0
   12.3730   47.1364  -13.6042 H   0  0  0  0  0  0  0  0  0  0  0  0
   14.9332   48.1684  -14.1477 H   0  0  0  0  0  0  0  0  0  0  0  0
   19.3649   42.1062   -9.8902 H   0  0  0  0  0  0  0  0  0  0  0  0
   19.0093   37.2116   -8.7473 H   0  0  0  0  0  0  0  0  0  0  0  0
   21.3245   37.3665   -9.6403 H   0  0  0  0  0  0  0  0  0  0  0  0
   22.5430   39.5113   -9.5818 H   0  0  0  0  0  0  0  0  0  0  0  0
   25.7836   44.5947   -9.7386 H   0  0  0  0  0  0  0  0  0  0  0  0
   27.4949   46.0180  -10.7982 H   0  0  0  0  0  0  0  0  0  0  0  0
   29.3443   44.9995  -12.0875 H   0  0  0  0  0  0  0  0  0  0  0  0
   23.6743   41.1140  -10.0539 H   0  0  0  0  0  0  0  0  0  0  0  0
  1  2  1  0  0  0  0
  1 44  1  0  0  0  0
  1 45  1  0  0  0  0
  1 46  1  0  0  0  0
  2  3  1  0  0  0  0
  2  4  1  0  0  0  0
  2 47  1  0  0  0  0
  3 48  1  0  0  0  0
  3 49  1  0  0  0  0
  3 50  1  0  0  0  0
  4 41  1  0  0  0  0
  4  5  2  0  0  0  0
  5  6  1  0  0  0  0
  5 51  1  0  0  0  0
  6  7  1  0  0  0  0
  6 39  2  0  0  0  0
  7  8  1  0  0  0  0
  7 52  1  0  0  0  0
  7 53  1  0  0  0  0
  8  9  1  0  0  0  0
  8 54  1  0  0  0  0
  8 81  1  0  0  0  0
  9 10  1  0  0  0  0
  9 55  1  0  0  0  0
  9 56  1  0  0  0  0
 10 42  1  6  0  0  0
 10 11  1  0  0  0  0
 10 12  1  0  0  0  0
 11 57  1  0  0  0  0
 12 43  1  1  0  0  0
 12 35  1  0  0  0  0
 12 13  1  0  0  0  0
 13 14  1  0  0  0  0
 13 58  1  0  0  0  0
 13 59  1  0  0  0  0
 14 38  1  0  0  0  0
 14 15  2  0  0  0  0
 15 16  1  0  0  0  0
 15 60  1  0  0  0  0
 16 17  1  0  0  0  0
 16 36  2  0  0  0  0
 17 18  1  0  0  0  0
 17 61  1  0  0  0  0
 17 62  1  0  0  0  0
 18 19  1  0  0  0  0
 18 63  1  0  0  0  0
 18 64  1  0  0  0  0
 19 20  1  0  0  0  0
 19 65  1  0  0  0  0
 19 66  1  0  0  0  0
 20 21  1  0  0  0  0
 20 67  1  0  0  0  0
 20 68  1  0  0  0  0
 21 22  1  0  0  0  0
 22 27  1  0  0  0  0
 22 23  2  0  0  0  0
 23 24  1  0  0  0  0
 23 69  1  0  0  0  0
 24 25  2  0  0  0  0
 24 33  1  0  0  0  0
 25 26  1  0  0  0  0
 25 70  1  0  0  0  0
 26 27  2  0  0  0  0
 26 28  1  0  0  0  0
 27 71  1  0  0  0  0
 28 32  1  0  0  0  0
 28 29  2  0  0  0  0
 29 30  1  0  0  0  0
 30 31  2  0  0  0  0
 30 72  1  0  0  0  0
 31 32  1  0  0  0  0
 31 73  1  0  0  0  0
 33 34  2  0  0  0  0
 33 35  1  0  0  0  0
 35 74  1  0  0  0  0
 36 37  1  0  0  0  0
 36 75  1  0  0  0  0
 37 38  2  0  0  0  0
 37 76  1  0  0  0  0
 38 77  1  0  0  0  0
 39 40  1  0  0  0  0
 39 78  1  0  0  0  0
 40 41  2  0  0  0  0
 40 79  1  0  0  0  0
 41 80  1  0  0  0  0
M  CHG  1   8   1
M  END
>  <s_m_source_file>
BACE_132.smi

>  <i_m_source_file_index>
1

>  <i_lp_mmshare_version>
42013

>  <i_f3d_flags>
0

>  <s_epik_input>
W0NIM11bQ0hdKFtDSDNdKWMxW2NIXWMoW2NIXVtjSF1bY0hdMSlbQ0gyXVtOSF1bQ0gyXVtDQEBIXShbT0hdKVtDQEhdKFtDSDJdMilbTkhdQyg9TyljKFtjSF1jKFtjSF0zKS1jNG5bY0hdW2NIXW80KVtjSF1jM09bQ0gyXVtDSDJdW0NIMl1bQ0gyXWMoW2NIXWMyNSlbY0hdW2NIXVtjSF01

>  <s_epik_cmdline>
J2VwaWtfcHl0aG9uJywgJy1waCcsICc3LjAnLCAnLXRuJywgJzgnLCAnLW1hJywgJzIwMCcsICctaW1hZScsICc8aW5maWxlLm1hZT4nLCAnLW9tYWUnLCAnPG91dGZpbGUubWFlPic=

>  <r_lp_tautomer_probability>
1

>  <r_epik_Ionization_Penalty>
0.0191

>  <r_epik_Ionization_Penalty_Charging>
0.0191

>  <r_epik_Ionization_Penalty_Neutral>
0.0000

>  <r_epik_State_Penalty>
0.0153

>  <r_epik_Charging_Adjusted_Penalty>
0.0343718

>  <i_epik_Tot_Q>
1

>  <i_epik_Tot_abs_Q>
1

>  <s_lp_Force_Field>
OPLS_2005

>  <r_lp_Energy>
30.5153

>  <b_lp_Chiralities_Consistent>
1

>  <s_lp_Variant>
BACE_132.smi:1-1

>  <chiral flag>
1

>  <version>
0

>  <s_i_glide_gridfile>
second_dock_grid_2

>  <i_i_glide_lignum>
270

>  <i_i_glide_rotatable_bonds>
8

>  <r_i_docking_score>
-3.86472

>  <r_i_glide_ligand_efficiency>
-0.0942615

>  <r_i_glide_ligand_efficiency_sa>
-0.325034

>  <r_i_glide_ligand_efficiency_ln>
-0.819913

>  <r_glide_XP_GScore>
-3.88002

>  <r_i_glide_gscore>
-3.88002

>  <r_i_glide_evdw>
-40.6107

>  <r_i_glide_ecoul>
-11.5151

>  <r_i_glide_energy>
-52.1258

>  <r_i_glide_einternal>
11.8782

>  <r_i_glide_emodel>
-71.3773

>  <r_glide_XP_HBond>
-0.591654

>  <i_i_glide_confnum>
1

>  <i_i_glide_posenum>
9

>  <r_i_glide_eff_state_penalty>
0.0153

>  <i_glide_XP_PoseRank>
1

$$$$
