BACE_95.smi:1
 OpenBabel09291822493D
Structure written by MMmdl.
 71 74  0  0  1  0  0  0  0  0999 V2000
   17.3182   44.6225  -10.2653 C   0  0  0  0  0  0  0  0  0  0  0  0
   16.7861   43.7389  -11.4177 C   0  0  2  0  0  0  0  0  0  0  0  0
   15.9034   42.5220  -11.0298 C   0  0  0  0  0  0  0  0  0  0  0  0
   14.3585   42.9234  -10.0612 S   0  0  0  0  0  0  0  0  0  0  0  0
   14.0844   44.3667  -10.1407 O   0  0  0  0  0  0  0  0  0  0  0  0
   13.3158   41.9692  -10.4709 O   0  0  0  0  0  0  0  0  0  0  0  0
   14.8466   42.5131   -8.3173 C   0  0  0  0  0  0  0  0  0  0  0  0
   14.9891   40.9915   -8.0938 C   0  0  0  0  0  0  0  0  0  0  0  0
   16.1810   40.6019   -7.1988 C   0  0  0  0  0  0  0  0  0  0  0  0
   16.5158   39.0947   -7.2824 C   0  0  0  0  0  0  0  0  0  0  0  0
   17.8414   38.7950   -6.8435 O   0  0  0  0  0  0  0  0  0  0  0  0
   18.9082   39.0012   -7.7015 C   0  0  0  0  0  0  0  0  0  0  0  0
   20.1753   38.5536   -7.2723 C   0  0  0  0  0  0  0  0  0  0  0  0
   21.3177   38.7404   -8.0756 C   0  0  0  0  0  0  0  0  0  0  0  0
   21.2127   39.4028   -9.3139 C   0  0  0  0  0  0  0  0  0  0  0  0
   19.9594   39.8768   -9.7544 C   0  0  0  0  0  0  0  0  0  0  0  0
   19.8218   40.6334  -11.0714 C   0  0  0  0  0  0  0  0  0  0  0  0
   19.5136   42.1538  -10.9171 C   0  0  2  0  0  0  0  0  0  0  0  0
   18.9843   42.6748  -12.1836 N   0  0  0  0  0  0  0  0  0  0  0  0
   17.8590   43.3677  -12.4750 C   0  0  0  0  0  0  0  0  0  0  0  0
   17.6593   43.7147  -13.6387 O   0  0  0  0  0  0  0  0  0  0  0  0
   20.6904   43.0692  -10.4520 C   0  0  2  0  0  0  0  0  0  0  0  0
   20.4440   44.4142  -10.8194 O   0  0  0  0  0  0  0  0  0  0  0  0
   22.0694   42.6692  -11.0236 C   0  0  0  0  0  0  0  0  0  0  0  0
   22.5334   41.4015  -10.4486 N   0  0  0  0  0  0  0  0  0  0  0  0
   23.4088   41.4182   -9.2666 C   0  0  0  0  0  0  0  0  0  0  0  0
   23.4754   40.1643   -8.4278 C   0  0  0  0  0  0  0  0  0  0  0  0
   22.7504   41.3828   -7.9081 C   0  0  0  0  0  0  0  0  0  0  0  0
   24.6830   42.2380   -9.4110 C   0  0  0  0  0  0  0  0  0  0  0  0
   24.9187   43.3512   -8.5732 C   0  0  0  0  0  0  0  0  0  0  0  0
   26.1030   44.1043   -8.6963 C   0  0  0  0  0  0  0  0  0  0  0  0
   27.0681   43.7481   -9.6569 C   0  0  0  0  0  0  0  0  0  0  0  0
   26.8481   42.6360  -10.4916 C   0  0  0  0  0  0  0  0  0  0  0  0
   28.1533   42.1463  -11.7878 Br  0  0  0  0  0  0  0  0  0  0  0  0
   25.6626   41.8844  -10.3665 C   0  0  0  0  0  0  0  0  0  0  0  0
   18.8144   39.6430   -8.9638 C   0  0  0  0  0  0  0  0  0  0  0  0
   16.1175   44.4034  -11.9679 H   0  0  0  0  0  0  0  0  0  0  0  0
   18.7213   42.2314  -10.1803 H   0  0  0  0  0  0  0  0  0  0  0  0
   20.7500   43.0291   -9.3630 H   0  0  0  0  0  0  0  0  0  0  0  0
   17.6643   44.0412   -9.4125 H   0  0  0  0  0  0  0  0  0  0  0  0
   16.5468   45.2957   -9.8932 H   0  0  0  0  0  0  0  0  0  0  0  0
   18.1409   45.2598  -10.5917 H   0  0  0  0  0  0  0  0  0  0  0  0
   16.4735   41.7835  -10.4717 H   0  0  0  0  0  0  0  0  0  0  0  0
   15.5714   42.0186  -11.9391 H   0  0  0  0  0  0  0  0  0  0  0  0
   14.0902   42.9192   -7.6452 H   0  0  0  0  0  0  0  0  0  0  0  0
   15.7733   43.0441   -8.1029 H   0  0  0  0  0  0  0  0  0  0  0  0
   14.0625   40.5874   -7.6842 H   0  0  0  0  0  0  0  0  0  0  0  0
   15.1160   40.4994   -9.0570 H   0  0  0  0  0  0  0  0  0  0  0  0
   15.9858   40.8834   -6.1634 H   0  0  0  0  0  0  0  0  0  0  0  0
   17.0484   41.1879   -7.4985 H   0  0  0  0  0  0  0  0  0  0  0  0
   15.8239   38.5469   -6.6419 H   0  0  0  0  0  0  0  0  0  0  0  0
   16.3533   38.6878   -8.2814 H   0  0  0  0  0  0  0  0  0  0  0  0
   20.2733   38.0589   -6.3169 H   0  0  0  0  0  0  0  0  0  0  0  0
   22.2794   38.3863   -7.7345 H   0  0  0  0  0  0  0  0  0  0  0  0
   22.0986   39.5563   -9.9128 H   0  0  0  0  0  0  0  0  0  0  0  0
   19.0000   40.1594  -11.6109 H   0  0  0  0  0  0  0  0  0  0  0  0
   20.6980   40.4619  -11.6975 H   0  0  0  0  0  0  0  0  0  0  0  0
   19.5831   42.4940  -12.9765 H   0  0  0  0  0  0  0  0  0  0  0  0
   21.1681   44.7190  -11.3446 H   0  0  0  0  0  0  0  0  0  0  0  0
   22.7931   43.4616  -10.8342 H   0  0  0  0  0  0  0  0  0  0  0  0
   21.9927   42.5632  -12.1053 H   0  0  0  0  0  0  0  0  0  0  0  0
   22.8972   40.7774  -11.1616 H   0  0  0  0  0  0  0  0  0  0  0  0
   22.8711   39.3136   -8.7429 H   0  0  0  0  0  0  0  0  0  0  0  0
   24.4323   39.9131   -7.9705 H   0  0  0  0  0  0  0  0  0  0  0  0
   23.2226   41.9461   -7.1034 H   0  0  0  0  0  0  0  0  0  0  0  0
   21.6614   41.3466   -7.8758 H   0  0  0  0  0  0  0  0  0  0  0  0
   24.1889   43.6332   -7.8281 H   0  0  0  0  0  0  0  0  0  0  0  0
   26.2713   44.9548   -8.0520 H   0  0  0  0  0  0  0  0  0  0  0  0
   27.9761   44.3256   -9.7504 H   0  0  0  0  0  0  0  0  0  0  0  0
   25.5076   41.0302  -11.0096 H   0  0  0  0  0  0  0  0  0  0  0  0
   17.8695   39.9965   -9.3435 H   0  0  0  0  0  0  0  0  0  0  0  0
  1  2  1  0  0  0  0
  1 40  1  0  0  0  0
  1 41  1  0  0  0  0
  1 42  1  0  0  0  0
  2 37  1  6  0  0  0
  2 20  1  0  0  0  0
  2  3  1  0  0  0  0
  3  4  1  0  0  0  0
  3 43  1  0  0  0  0
  3 44  1  0  0  0  0
  4  5  2  0  0  0  0
  4  6  2  0  0  0  0
  4  7  1  0  0  0  0
  7  8  1  0  0  0  0
  7 45  1  0  0  0  0
  7 46  1  0  0  0  0
  8  9  1  0  0  0  0
  8 47  1  0  0  0  0
  8 48  1  0  0  0  0
  9 10  1  0  0  0  0
  9 49  1  0  0  0  0
  9 50  1  0  0  0  0
 10 11  1  0  0  0  0
 10 51  1  0  0  0  0
 10 52  1  0  0  0  0
 11 12  1  0  0  0  0
 12 36  1  0  0  0  0
 12 13  2  0  0  0  0
 13 14  1  0  0  0  0
 13 53  1  0  0  0  0
 14 15  2  0  0  0  0
 14 54  1  0  0  0  0
 15 16  1  0  0  0  0
 15 55  1  0  0  0  0
 16 17  1  0  0  0  0
 16 36  2  0  0  0  0
 17 18  1  0  0  0  0
 17 56  1  0  0  0  0
 17 57  1  0  0  0  0
 18 38  1  1  0  0  0
 18 19  1  0  0  0  0
 18 22  1  0  0  0  0
 19 20  1  0  0  0  0
 19 58  1  0  0  0  0
 20 21  2  0  0  0  0
 22 39  1  1  0  0  0
 22 23  1  0  0  0  0
 22 24  1  0  0  0  0
 23 59  1  0  0  0  0
 24 25  1  0  0  0  0
 24 60  1  0  0  0  0
 24 61  1  0  0  0  0
 25 26  1  0  0  0  0
 25 62  1  0  0  0  0
 26 28  1  0  0  0  0
 26 27  1  0  0  0  0
 26 29  1  0  0  0  0
 27 28  1  0  0  0  0
 27 63  1  0  0  0  0
 27 64  1  0  0  0  0
 28 65  1  0  0  0  0
 28 66  1  0  0  0  0
 29 35  1  0  0  0  0
 29 30  2  0  0  0  0
 30 31  1  0  0  0  0
 30 67  1  0  0  0  0
 31 32  2  0  0  0  0
 31 68  1  0  0  0  0
 32 33  1  0  0  0  0
 32 69  1  0  0  0  0
 33 34  1  0  0  0  0
 33 35  2  0  0  0  0
 35 70  1  0  0  0  0
 36 71  1  0  0  0  0
M  END
>  <s_m_source_file>
BACE_95.smi

>  <i_m_source_file_index>
1

>  <i_lp_mmshare_version>
42013

>  <i_f3d_flags>
0

>  <s_epik_input>
TzFbQ0gyXVtDSDJdW0NIMl1bQ0gyXVMoPU8pKD1PKVtDSDJdW0NAQEhdKFtDSDNdKUMoPU8pW05IXVtDQEBIXShbQ0gyXWMoW2NIXTIpW2NIXVtjSF1bY0hdYzEyKVtDQEhdKFtPSF0pW0NIMl1bTkhdQzMoW0NIMl1bQ0gyXTMpYzRbY0hdW2NIXVtjSF1jKEJyKVtjSF00

>  <s_epik_cmdline>
J2VwaWtfcHl0aG9uJywgJy1waCcsICc3LjAnLCAnLXRuJywgJzgnLCAnLW1hJywgJzIwMCcsICctaW1hZScsICc8aW5maWxlLm1hZT4nLCAnLW9tYWUnLCAnPG91dGZpbGUubWFlPic=

>  <r_lp_tautomer_probability>
1

>  <r_epik_Ionization_Penalty>
0.2562

>  <r_epik_Ionization_Penalty_Charging>
0.0000

>  <r_epik_Ionization_Penalty_Neutral>
0.2562

>  <r_epik_State_Penalty>
0.2477

>  <r_epik_Charging_Adjusted_Penalty>
0.247703

>  <i_epik_Tot_Q>
0

>  <i_epik_Tot_abs_Q>
0

>  <s_lp_Force_Field>
OPLS_2005

>  <r_lp_Energy>
51.0082

>  <b_lp_Chiralities_Consistent>
1

>  <s_lp_Variant>
BACE_95.smi:1-1

>  <chiral flag>
1

>  <version>
0

>  <s_i_glide_gridfile>
second_dock_grid_2

>  <i_i_glide_lignum>
192

>  <i_i_glide_rotatable_bonds>
6

>  <r_i_docking_score>
-2.63894

>  <r_i_glide_ligand_efficiency>
-0.0733038

>  <r_i_glide_ligand_efficiency_sa>
-0.242044

>  <r_i_glide_ligand_efficiency_ln>
-0.575745

>  <r_glide_XP_GScore>
-2.88664

>  <r_i_glide_gscore>
-2.88664

>  <r_i_glide_evdw>
-37.564

>  <r_i_glide_ecoul>
-4.74722

>  <r_i_glide_energy>
-42.3112

>  <r_i_glide_einternal>
2.64318

>  <r_i_glide_emodel>
-61.0935

>  <r_glide_XP_HBond>
-1.51888

>  <i_i_glide_confnum>
1

>  <i_i_glide_posenum>
5

>  <r_i_glide_eff_state_penalty>
0.2477

>  <i_glide_XP_PoseRank>
1

$$$$
