BACE_38.smi:1
 OpenBabel09291822493D
Structure written by MMmdl.
 91 93  0  0  1  0  0  0  0  0999 V2000
   23.6454   45.7380   -8.7853 C   0  0  0  0  0  0  0  0  0  0  0  0
   24.1627   45.5775   -7.3448 C   0  0  2  0  0  0  0  0  0  0  0  0
   25.5931   44.9783   -7.3827 C   0  0  0  0  0  0  0  0  0  0  0  0
   26.3917   45.0129   -6.0623 C   0  0  0  0  0  0  0  0  0  0  0  0
   26.8974   46.4125   -5.6665 C   0  0  0  0  0  0  0  0  0  0  0  0
   27.7080   46.4034   -4.3547 C   0  0  0  0  0  0  0  0  0  0  0  0
   27.9203   47.7959   -3.7268 C   0  0  0  0  0  0  0  0  0  0  0  0
   26.6282   48.4255   -3.1634 C   0  0  0  0  0  0  0  0  0  0  0  0
   26.1161   49.6442   -3.9590 C   0  0  0  0  0  0  0  0  0  0  0  0
   24.6058   49.9075   -3.8009 C   0  0  0  0  0  0  0  0  0  0  0  0
   23.6369   48.8226   -4.9308 S   0  0  0  0  0  0  0  0  0  0  0  0
   23.8304   47.4292   -4.5039 O   0  0  0  0  0  0  0  0  0  0  0  0
   23.9394   49.2160   -6.3140 O   0  0  0  0  0  0  0  0  0  0  0  0
   21.8800   49.2356   -4.5548 C   0  0  0  0  0  0  0  0  0  0  0  0
   20.8308   48.8949   -5.6546 C   0  0  1  0  0  0  0  0  0  0  0  0
   20.9452   49.7674   -6.9156 C   0  0  0  0  0  0  0  0  0  0  0  0
   20.6358   47.4098   -6.0403 C   0  0  0  0  0  0  0  0  0  0  0  0
   19.5702   47.0716   -6.5588 O   0  0  0  0  0  0  0  0  0  0  0  0
   21.6270   46.5288   -5.8323 N   0  0  0  0  0  0  0  0  0  0  0  0
   21.7169   45.1817   -6.3979 C   0  0  1  0  0  0  0  0  0  0  0  0
   23.2029   44.7198   -6.4787 C   0  0  0  0  0  0  0  0  0  0  0  0
   20.7905   44.1656   -5.6641 C   0  0  2  0  0  0  0  0  0  0  0  0
   21.3806   43.7499   -4.4400 O   0  0  0  0  0  0  0  0  0  0  0  0
   20.5067   42.9193   -6.5423 C   0  0  0  0  0  0  0  0  0  0  0  0
   20.4600   41.6800   -5.7395 N   0  3  0  0  0  0  0  0  0  0  0  0
   21.1363   40.5270   -6.3595 C   0  0  0  0  0  0  0  0  0  0  0  0
   22.6288   40.5714   -6.1412 C   0  0  0  0  0  0  0  0  0  0  0  0
   21.7845   39.5919   -5.3628 C   0  0  0  0  0  0  0  0  0  0  0  0
   20.4886   40.0283   -7.6207 C   0  0  0  0  0  0  0  0  0  0  0  0
   19.1584   39.5594   -7.5740 C   0  0  0  0  0  0  0  0  0  0  0  0
   18.4915   39.1019   -8.7383 C   0  0  0  0  0  0  0  0  0  0  0  0
   19.2134   39.0857   -9.9565 C   0  0  0  0  0  0  0  0  0  0  0  0
   20.5425   39.5504  -10.0150 C   0  0  0  0  0  0  0  0  0  0  0  0
   21.1758   40.0312   -8.8534 C   0  0  0  0  0  0  0  0  0  0  0  0
   17.0380   38.5921   -8.6990 C   0  0  0  0  0  0  0  0  0  0  0  0
   17.0541   37.0615   -8.8430 C   0  0  0  0  0  0  0  0  0  0  0  0
   16.3046   38.9635   -7.3845 C   0  0  0  0  0  0  0  0  0  0  0  0
   16.2107   39.2132   -9.8472 C   0  0  0  0  0  0  0  0  0  0  0  0
   24.2288   46.5780   -6.9220 H   0  0  0  0  0  0  0  0  0  0  0  0
   19.8770   49.1723   -5.2054 H   0  0  0  0  0  0  0  0  0  0  0  0
   21.3322   45.2517   -7.4170 H   0  0  0  0  0  0  0  0  0  0  0  0
   19.8344   44.6256   -5.4132 H   0  0  0  0  0  0  0  0  0  0  0  0
   22.7135   46.3023   -8.8193 H   0  0  0  0  0  0  0  0  0  0  0  0
   24.3604   46.2854   -9.4001 H   0  0  0  0  0  0  0  0  0  0  0  0
   23.4755   44.7692   -9.2551 H   0  0  0  0  0  0  0  0  0  0  0  0
   25.5249   43.9420   -7.7170 H   0  0  0  0  0  0  0  0  0  0  0  0
   26.1853   45.4879   -8.1441 H   0  0  0  0  0  0  0  0  0  0  0  0
   27.2554   44.3549   -6.1682 H   0  0  0  0  0  0  0  0  0  0  0  0
   25.8047   44.5869   -5.2515 H   0  0  0  0  0  0  0  0  0  0  0  0
   27.5135   46.8253   -6.4653 H   0  0  0  0  0  0  0  0  0  0  0  0
   26.0501   47.0832   -5.5699 H   0  0  0  0  0  0  0  0  0  0  0  0
   28.6798   45.9489   -4.5505 H   0  0  0  0  0  0  0  0  0  0  0  0
   27.2268   45.7561   -3.6219 H   0  0  0  0  0  0  0  0  0  0  0  0
   28.6297   47.6827   -2.9045 H   0  0  0  0  0  0  0  0  0  0  0  0
   28.4095   48.4639   -4.4359 H   0  0  0  0  0  0  0  0  0  0  0  0
   25.8579   47.6600   -3.0951 H   0  0  0  0  0  0  0  0  0  0  0  0
   26.8011   48.7393   -2.1335 H   0  0  0  0  0  0  0  0  0  0  0  0
   26.6747   50.5231   -3.6337 H   0  0  0  0  0  0  0  0  0  0  0  0
   26.3452   49.5274   -5.0184 H   0  0  0  0  0  0  0  0  0  0  0  0
   24.3778   50.9395   -4.0601 H   0  0  0  0  0  0  0  0  0  0  0  0
   24.2779   49.7411   -2.7750 H   0  0  0  0  0  0  0  0  0  0  0  0
   21.8249   50.2949   -4.3122 H   0  0  0  0  0  0  0  0  0  0  0  0
   21.6555   48.7030   -3.6400 H   0  0  0  0  0  0  0  0  0  0  0  0
   21.7782   49.4660   -7.5505 H   0  0  0  0  0  0  0  0  0  0  0  0
   21.0743   50.8183   -6.6607 H   0  0  0  0  0  0  0  0  0  0  0  0
   20.0414   49.6929   -7.5231 H   0  0  0  0  0  0  0  0  0  0  0  0
   22.4712   46.8606   -5.3748 H   0  0  0  0  0  0  0  0  0  0  0  0
   23.5989   44.6719   -5.4655 H   0  0  0  0  0  0  0  0  0  0  0  0
   23.2472   43.6967   -6.8495 H   0  0  0  0  0  0  0  0  0  0  0  0
   21.2629   44.4390   -3.7955 H   0  0  0  0  0  0  0  0  0  0  0  0
   21.2692   42.8179   -7.3187 H   0  0  0  0  0  0  0  0  0  0  0  0
   19.5636   43.0357   -7.0785 H   0  0  0  0  0  0  0  0  0  0  0  0
   19.4943   41.4542   -5.5189 H   0  0  0  0  0  0  0  0  0  0  0  0
   23.2809   40.1478   -6.9018 H   0  0  0  0  0  0  0  0  0  0  0  0
   23.0361   41.4123   -5.5820 H   0  0  0  0  0  0  0  0  0  0  0  0
   21.6675   39.7796   -4.2990 H   0  0  0  0  0  0  0  0  0  0  0  0
   21.9161   38.5505   -5.6476 H   0  0  0  0  0  0  0  0  0  0  0  0
   18.6556   39.5704   -6.6156 H   0  0  0  0  0  0  0  0  0  0  0  0
   18.7588   38.7143  -10.8648 H   0  0  0  0  0  0  0  0  0  0  0  0
   21.0760   39.5397  -10.9554 H   0  0  0  0  0  0  0  0  0  0  0  0
   22.1908   40.3925   -8.9217 H   0  0  0  0  0  0  0  0  0  0  0  0
   17.4906   36.7505   -9.7926 H   0  0  0  0  0  0  0  0  0  0  0  0
   16.0484   36.6437   -8.7959 H   0  0  0  0  0  0  0  0  0  0  0  0
   17.6306   36.5936   -8.0428 H   0  0  0  0  0  0  0  0  0  0  0  0
   16.2506   40.0440   -7.2468 H   0  0  0  0  0  0  0  0  0  0  0  0
   16.7808   38.5463   -6.4983 H   0  0  0  0  0  0  0  0  0  0  0  0
   15.2794   38.5856   -7.3799 H   0  0  0  0  0  0  0  0  0  0  0  0
   16.2089   40.3014   -9.7909 H   0  0  0  0  0  0  0  0  0  0  0  0
   15.1690   38.8884   -9.8050 H   0  0  0  0  0  0  0  0  0  0  0  0
   16.5806   38.9404  -10.8362 H   0  0  0  0  0  0  0  0  0  0  0  0
   20.9359   41.9223   -4.8764 H   0  0  0  0  0  0  0  0  0  0  0  0
  1  2  1  0  0  0  0
  1 43  1  0  0  0  0
  1 44  1  0  0  0  0
  1 45  1  0  0  0  0
  2 39  1  1  0  0  0
  2 21  1  0  0  0  0
  2  3  1  0  0  0  0
  3  4  1  0  0  0  0
  3 46  1  0  0  0  0
  3 47  1  0  0  0  0
  4  5  1  0  0  0  0
  4 48  1  0  0  0  0
  4 49  1  0  0  0  0
  5  6  1  0  0  0  0
  5 50  1  0  0  0  0
  5 51  1  0  0  0  0
  6  7  1  0  0  0  0
  6 52  1  0  0  0  0
  6 53  1  0  0  0  0
  7  8  1  0  0  0  0
  7 54  1  0  0  0  0
  7 55  1  0  0  0  0
  8  9  1  0  0  0  0
  8 56  1  0  0  0  0
  8 57  1  0  0  0  0
  9 10  1  0  0  0  0
  9 58  1  0  0  0  0
  9 59  1  0  0  0  0
 10 11  1  0  0  0  0
 10 60  1  0  0  0  0
 10 61  1  0  0  0  0
 11 12  2  0  0  0  0
 11 13  2  0  0  0  0
 11 14  1  0  0  0  0
 14 15  1  0  0  0  0
 14 62  1  0  0  0  0
 14 63  1  0  0  0  0
 15 40  1  1  0  0  0
 15 16  1  0  0  0  0
 15 17  1  0  0  0  0
 16 64  1  0  0  0  0
 16 65  1  0  0  0  0
 16 66  1  0  0  0  0
 17 18  2  0  0  0  0
 17 19  1  0  0  0  0
 19 20  1  0  0  0  0
 19 67  1  0  0  0  0
 20 41  1  6  0  0  0
 20 21  1  0  0  0  0
 20 22  1  0  0  0  0
 21 68  1  0  0  0  0
 21 69  1  0  0  0  0
 22 42  1  1  0  0  0
 22 23  1  0  0  0  0
 22 24  1  0  0  0  0
 23 70  1  0  0  0  0
 24 25  1  0  0  0  0
 24 71  1  0  0  0  0
 24 72  1  0  0  0  0
 25 26  1  0  0  0  0
 25 73  1  0  0  0  0
 25 91  1  0  0  0  0
 26 28  1  0  0  0  0
 26 27  1  0  0  0  0
 26 29  1  0  0  0  0
 27 28  1  0  0  0  0
 27 74  1  0  0  0  0
 27 75  1  0  0  0  0
 28 76  1  0  0  0  0
 28 77  1  0  0  0  0
 29 34  1  0  0  0  0
 29 30  2  0  0  0  0
 30 31  1  0  0  0  0
 30 78  1  0  0  0  0
 31 32  2  0  0  0  0
 31 35  1  0  0  0  0
 32 33  1  0  0  0  0
 32 79  1  0  0  0  0
 33 34  2  0  0  0  0
 33 80  1  0  0  0  0
 34 81  1  0  0  0  0
 35 36  1  0  0  0  0
 35 37  1  0  0  0  0
 35 38  1  0  0  0  0
 36 82  1  0  0  0  0
 36 83  1  0  0  0  0
 36 84  1  0  0  0  0
 37 85  1  0  0  0  0
 37 86  1  0  0  0  0
 37 87  1  0  0  0  0
 38 88  1  0  0  0  0
 38 89  1  0  0  0  0
 38 90  1  0  0  0  0
M  CHG  1  25   1
M  END
>  <s_m_source_file>
BACE_38.smi

>  <i_m_source_file_index>
1

>  <i_lp_mmshare_version>
42013

>  <i_f3d_flags>
0

>  <s_epik_input>
Tz1TMSg9TylbQ0gyXVtDSDJdW0NIMl1bQ0gyXVtDSDJdW0NIMl1bQ0gyXVtDSDJdW0NAQEhdKFtDSDNdKVtDSDJdW0NASF0oW05IXUMoPU8pW0NAQEhdKFtDSDJdMSlbQ0gzXSlbQ0BIXShbT0hdKVtDSDJdW05IXUMyKFtDSDJdW0NIMl0yKWMzW2NIXWMoQyhbQ0gzXSkoW0NIM10pW0NIM10pW2NIXVtjSF1bY0hdMw==

>  <s_epik_cmdline>
J2VwaWtfcHl0aG9uJywgJy1waCcsICc3LjAnLCAnLXRuJywgJzgnLCAnLW1hJywgJzIwMCcsICctaW1hZScsICc8aW5maWxlLm1hZT4nLCAnLW9tYWUnLCAnPG91dGZpbGUubWFlPic=

>  <r_epik_Ionization_Penalty>
0.4877

>  <r_epik_Ionization_Penalty_Charging>
0.4877

>  <r_epik_Ionization_Penalty_Neutral>
0.0000

>  <r_epik_State_Penalty>
0.4931

>  <r_epik_Charging_Adjusted_Penalty>
0.980792

>  <i_epik_Tot_Q>
1

>  <i_epik_Tot_abs_Q>
1

>  <s_lp_Force_Field>
OPLS_2005

>  <r_lp_Energy>
33.0412

>  <b_lp_Chiralities_Consistent>
1

>  <s_lp_Variant>
BACE_38.smi:1-2

>  <chiral flag>
1

>  <version>
0

>  <s_i_glide_gridfile>
second_dock_grid_2

>  <i_i_glide_lignum>
68

>  <i_i_glide_rotatable_bonds>
7

>  <r_i_docking_score>
-2.69538

>  <r_i_glide_ligand_efficiency>
-0.070931

>  <r_i_glide_ligand_efficiency_sa>
-0.238468

>  <r_i_glide_ligand_efficiency_ln>
-0.581202

>  <r_glide_XP_GScore>
-3.18848

>  <r_i_glide_gscore>
-3.18848

>  <r_i_glide_evdw>
-35.2263

>  <r_i_glide_ecoul>
-8.85169

>  <r_i_glide_energy>
-44.078

>  <r_i_glide_einternal>
5.71242

>  <r_i_glide_emodel>
-59.9436

>  <r_glide_XP_HBond>
-0.7

>  <i_i_glide_confnum>
1

>  <i_i_glide_posenum>
7

>  <r_i_glide_eff_state_penalty>
0.4931

>  <i_glide_XP_PoseRank>
1

$$$$
