BACE_28.smi:1
 OpenBabel09291822493D
Structure written by MMmdl.
 81 82  0  0  1  0  0  0  0  0999 V2000
   23.4008   42.7707   -4.4334 C   0  0  0  0  0  0  0  0  0  0  0  0
   22.7804   42.6279   -5.8310 C   0  0  2  0  0  0  0  0  0  0  0  0
   23.6011   43.3589   -6.9219 C   0  0  0  0  0  0  0  0  0  0  0  0
   23.7361   44.8944   -6.7910 C   0  0  0  0  0  0  0  0  0  0  0  0
   22.8493   45.6901   -7.7645 C   0  0  0  0  0  0  0  0  0  0  0  0
   23.1036   47.2071   -7.6651 C   0  0  0  0  0  0  0  0  0  0  0  0
   22.3318   48.0493   -8.7008 C   0  0  0  0  0  0  0  0  0  0  0  0
   20.7970   47.9941   -8.5796 C   0  0  0  0  0  0  0  0  0  0  0  0
   20.2402   48.6513   -7.3009 C   0  0  0  0  0  0  0  0  0  0  0  0
   18.7156   48.4857   -7.1420 C   0  0  0  0  0  0  0  0  0  0  0  0
   18.3319   47.0269   -6.8396 C   0  0  0  0  0  0  0  0  0  0  0  0
   18.6747   46.5831   -5.7409 O   0  0  0  0  0  0  0  0  0  0  0  0
   17.6609   46.2717   -7.7553 N   0  0  0  0  0  0  0  0  0  0  0  0
   17.1977   46.8492   -9.0295 C   0  0  0  0  0  0  0  0  0  0  0  0
   17.4959   44.8140   -7.4957 C   0  0  1  0  0  0  0  0  0  0  0  0
   16.3732   44.1330   -8.3070 C   0  0  0  0  0  0  0  0  0  0  0  0
   18.8110   44.0774   -7.7984 C   0  0  0  0  0  0  0  0  0  0  0  0
   19.4876   44.3733   -8.7861 O   0  0  0  0  0  0  0  0  0  0  0  0
   19.1558   43.1233   -6.9238 N   0  0  0  0  0  0  0  0  0  0  0  0
   20.4156   42.3867   -6.8969 C   0  0  1  0  0  0  0  0  0  0  0  0
   21.2905   43.0263   -5.7928 C   0  0  0  0  0  0  0  0  0  0  0  0
   20.0769   40.8719   -6.7382 C   0  0  2  0  0  0  0  0  0  0  0  0
   20.4603   40.3643   -5.4735 O   0  0  0  0  0  0  0  0  0  0  0  0
   20.7143   39.9603   -7.7954 C   0  0  0  0  0  0  0  0  0  0  0  0
   19.8987   38.7685   -8.1071 N   0  0  0  0  0  0  0  0  0  0  0  0
   18.7624   38.8854   -9.0554 C   0  0  0  0  0  0  0  0  0  0  0  0
   18.3982   37.4475   -9.4651 C   0  0  0  0  0  0  0  0  0  0  0  0
   17.4908   39.4551   -8.3744 C   0  0  0  0  0  0  0  0  0  0  0  0
   19.1838   39.6624  -10.3125 C   0  0  0  0  0  0  0  0  0  0  0  0
   20.3741   39.2875  -10.9791 C   0  0  0  0  0  0  0  0  0  0  0  0
   20.8641   40.0315  -12.0629 C   0  0  0  0  0  0  0  0  0  0  0  0
   20.1643   41.1684  -12.4940 C   0  0  0  0  0  0  0  0  0  0  0  0
   18.9672   41.5472  -11.8624 C   0  0  0  0  0  0  0  0  0  0  0  0
   18.0273   43.0992  -12.4405 Br  0  0  0  0  0  0  0  0  0  0  0  0
   18.4720   40.7913  -10.7852 C   0  0  0  0  0  0  0  0  0  0  0  0
   22.8402   41.5631   -6.0629 H   0  0  0  0  0  0  0  0  0  0  0  0
   17.2557   44.6635   -6.4442 H   0  0  0  0  0  0  0  0  0  0  0  0
   20.9212   42.5386   -7.8511 H   0  0  0  0  0  0  0  0  0  0  0  0
   19.0060   40.7550   -6.8195 H   0  0  0  0  0  0  0  0  0  0  0  0
   24.4622   42.5514   -4.4399 H   0  0  0  0  0  0  0  0  0  0  0  0
   22.9354   42.0808   -3.7276 H   0  0  0  0  0  0  0  0  0  0  0  0
   23.2619   43.7781   -4.0425 H   0  0  0  0  0  0  0  0  0  0  0  0
   24.6129   42.9499   -6.9047 H   0  0  0  0  0  0  0  0  0  0  0  0
   23.2146   43.1047   -7.9072 H   0  0  0  0  0  0  0  0  0  0  0  0
   24.7758   45.1512   -7.0009 H   0  0  0  0  0  0  0  0  0  0  0  0
   23.5568   45.2189   -5.7658 H   0  0  0  0  0  0  0  0  0  0  0  0
   23.0403   45.3619   -8.7849 H   0  0  0  0  0  0  0  0  0  0  0  0
   21.8005   45.4749   -7.5610 H   0  0  0  0  0  0  0  0  0  0  0  0
   24.1669   47.3916   -7.8048 H   0  0  0  0  0  0  0  0  0  0  0  0
   22.8771   47.5509   -6.6544 H   0  0  0  0  0  0  0  0  0  0  0  0
   22.6576   49.0889   -8.6298 H   0  0  0  0  0  0  0  0  0  0  0  0
   22.6182   47.7200   -9.7000 H   0  0  0  0  0  0  0  0  0  0  0  0
   20.4697   46.9587   -8.6577 H   0  0  0  0  0  0  0  0  0  0  0  0
   20.3615   48.4990   -9.4423 H   0  0  0  0  0  0  0  0  0  0  0  0
   20.7353   48.2350   -6.4219 H   0  0  0  0  0  0  0  0  0  0  0  0
   20.4922   49.7113   -7.3040 H   0  0  0  0  0  0  0  0  0  0  0  0
   18.2005   48.9114   -8.0021 H   0  0  0  0  0  0  0  0  0  0  0  0
   18.3934   49.0829   -6.2883 H   0  0  0  0  0  0  0  0  0  0  0  0
   16.6683   46.1615   -9.6867 H   0  0  0  0  0  0  0  0  0  0  0  0
   18.0458   47.2226   -9.6086 H   0  0  0  0  0  0  0  0  0  0  0  0
   16.5167   47.6828   -8.8458 H   0  0  0  0  0  0  0  0  0  0  0  0
   16.1910   43.1268   -7.9262 H   0  0  0  0  0  0  0  0  0  0  0  0
   16.6150   44.0294   -9.3648 H   0  0  0  0  0  0  0  0  0  0  0  0
   15.4309   44.6732   -8.2155 H   0  0  0  0  0  0  0  0  0  0  0  0
   18.5000   42.8979   -6.1874 H   0  0  0  0  0  0  0  0  0  0  0  0
   21.2215   44.1118   -5.8425 H   0  0  0  0  0  0  0  0  0  0  0  0
   20.8606   42.7834   -4.8197 H   0  0  0  0  0  0  0  0  0  0  0  0
   19.8255   40.6883   -4.8456 H   0  0  0  0  0  0  0  0  0  0  0  0
   20.9218   40.5270   -8.7009 H   0  0  0  0  0  0  0  0  0  0  0  0
   21.6914   39.6382   -7.4374 H   0  0  0  0  0  0  0  0  0  0  0  0
   19.5420   38.4103   -7.2270 H   0  0  0  0  0  0  0  0  0  0  0  0
   18.0936   36.8513   -8.6045 H   0  0  0  0  0  0  0  0  0  0  0  0
   19.2447   36.9501   -9.9302 H   0  0  0  0  0  0  0  0  0  0  0  0
   17.5762   37.4335  -10.1804 H   0  0  0  0  0  0  0  0  0  0  0  0
   17.2939   38.9677   -7.4176 H   0  0  0  0  0  0  0  0  0  0  0  0
   16.6104   39.2913   -8.9983 H   0  0  0  0  0  0  0  0  0  0  0  0
   17.5241   40.5271   -8.1996 H   0  0  0  0  0  0  0  0  0  0  0  0
   20.9427   38.4428  -10.6186 H   0  0  0  0  0  0  0  0  0  0  0  0
   21.7931   39.7499  -12.5395 H   0  0  0  0  0  0  0  0  0  0  0  0
   20.5642   41.7487  -13.3056 H   0  0  0  0  0  0  0  0  0  0  0  0
   17.5599   41.1231  -10.3161 H   0  0  0  0  0  0  0  0  0  0  0  0
  1  2  1  0  0  0  0
  1 40  1  0  0  0  0
  1 41  1  0  0  0  0
  1 42  1  0  0  0  0
  2 36  1  6  0  0  0
  2 21  1  0  0  0  0
  2  3  1  0  0  0  0
  3  4  1  0  0  0  0
  3 43  1  0  0  0  0
  3 44  1  0  0  0  0
  4  5  1  0  0  0  0
  4 45  1  0  0  0  0
  4 46  1  0  0  0  0
  5  6  1  0  0  0  0
  5 47  1  0  0  0  0
  5 48  1  0  0  0  0
  6  7  1  0  0  0  0
  6 49  1  0  0  0  0
  6 50  1  0  0  0  0
  7  8  1  0  0  0  0
  7 51  1  0  0  0  0
  7 52  1  0  0  0  0
  8  9  1  0  0  0  0
  8 53  1  0  0  0  0
  8 54  1  0  0  0  0
  9 10  1  0  0  0  0
  9 55  1  0  0  0  0
  9 56  1  0  0  0  0
 10 11  1  0  0  0  0
 10 57  1  0  0  0  0
 10 58  1  0  0  0  0
 11 12  2  0  0  0  0
 11 13  1  0  0  0  0
 13 14  1  0  0  0  0
 13 15  1  0  0  0  0
 14 59  1  0  0  0  0
 14 60  1  0  0  0  0
 14 61  1  0  0  0  0
 15 37  1  1  0  0  0
 15 16  1  0  0  0  0
 15 17  1  0  0  0  0
 16 62  1  0  0  0  0
 16 63  1  0  0  0  0
 16 64  1  0  0  0  0
 17 18  2  0  0  0  0
 17 19  1  0  0  0  0
 19 20  1  0  0  0  0
 19 65  1  0  0  0  0
 20 38  1  6  0  0  0
 20 21  1  0  0  0  0
 20 22  1  0  0  0  0
 21 66  1  0  0  0  0
 21 67  1  0  0  0  0
 22 39  1  6  0  0  0
 22 23  1  0  0  0  0
 22 24  1  0  0  0  0
 23 68  1  0  0  0  0
 24 25  1  0  0  0  0
 24 69  1  0  0  0  0
 24 70  1  0  0  0  0
 25 26  1  0  0  0  0
 25 71  1  0  0  0  0
 26 27  1  0  0  0  0
 26 28  1  0  0  0  0
 26 29  1  0  0  0  0
 27 72  1  0  0  0  0
 27 73  1  0  0  0  0
 27 74  1  0  0  0  0
 28 75  1  0  0  0  0
 28 76  1  0  0  0  0
 28 77  1  0  0  0  0
 29 35  1  0  0  0  0
 29 30  2  0  0  0  0
 30 31  1  0  0  0  0
 30 78  1  0  0  0  0
 31 32  2  0  0  0  0
 31 79  1  0  0  0  0
 32 33  1  0  0  0  0
 32 80  1  0  0  0  0
 33 34  1  0  0  0  0
 33 35  2  0  0  0  0
 35 81  1  0  0  0  0
M  END
>  <s_m_source_file>
BACE_28.smi

>  <i_m_source_file_index>
1

>  <i_lp_mmshare_version>
42013

>  <i_f3d_flags>
0

>  <s_epik_input>
W0NIM11bQ0BASF0xW0NIMl1bQ0gyXVtDSDJdW0NIMl1bQ0gyXVtDSDJdW0NIMl1bQ0gyXUMoPU8pTihbQ0gzXSlbQ0BASF0oW0NIM10pQyg9TylbTkhdW0NAQEhdKFtDSDJdMSlbQ0BIXShbT0hdKVtDSDJdW05IXUMoW0NIM10pKFtDSDNdKWMyW2NIXVtjSF1bY0hdYyhCcilbY0hdMg==

>  <s_epik_cmdline>
J2VwaWtfcHl0aG9uJywgJy1waCcsICc3LjAnLCAnLXRuJywgJzgnLCAnLW1hJywgJzIwMCcsICctaW1hZScsICc8aW5maWxlLm1hZT4nLCAnLW9tYWUnLCAnPG91dGZpbGUubWFlPic=

>  <r_epik_Ionization_Penalty>
1.9526

>  <r_epik_Ionization_Penalty_Charging>
0.0000

>  <r_epik_Ionization_Penalty_Neutral>
1.9526

>  <r_epik_State_Penalty>
2.0778

>  <r_epik_Charging_Adjusted_Penalty>
2.07781

>  <i_epik_Tot_Q>
0

>  <i_epik_Tot_abs_Q>
0

>  <s_lp_Force_Field>
OPLS_2005

>  <r_lp_Energy>
47.2978

>  <b_lp_Chiralities_Consistent>
1

>  <s_lp_Variant>
BACE_28.smi:1-2

>  <chiral flag>
1

>  <version>
0

>  <s_i_glide_gridfile>
second_dock_grid_2

>  <i_i_glide_lignum>
48

>  <i_i_glide_rotatable_bonds>
6

>  <r_i_docking_score>
-2.42054

>  <r_i_glide_ligand_efficiency>
-0.0691584

>  <r_i_glide_ligand_efficiency_sa>
-0.226222

>  <r_i_glide_ligand_efficiency_ln>
-0.531363

>  <r_glide_XP_GScore>
-4.49834

>  <r_i_glide_gscore>
-4.49834

>  <r_i_glide_evdw>
-37.101

>  <r_i_glide_ecoul>
-9.10127

>  <r_i_glide_energy>
-46.2023

>  <r_i_glide_einternal>
6.23754

>  <r_i_glide_emodel>
-58.7781

>  <r_glide_XP_HBond>
-1.1278

>  <i_i_glide_confnum>
1

>  <i_i_glide_posenum>
3

>  <r_i_glide_eff_state_penalty>
2.0778

>  <i_glide_XP_PoseRank>
1

$$$$
