BACE_108.smi:1
 OpenBabel09291822493D
Structure written by MMmdl.
 86 89  0  0  1  0  0  0  0  0999 V2000
   21.2057   40.3461  -13.1856 C   0  0  0  0  0  0  0  0  0  0  0  0
   19.9987   40.6895  -12.3469 C   0  0  0  0  0  0  0  0  0  0  0  0
   19.6988   39.9356  -11.1961 C   0  0  0  0  0  0  0  0  0  0  0  0
   18.5685   40.2969  -10.4409 C   0  0  0  0  0  0  0  0  0  0  0  0
   17.7480   41.3477  -10.8999 C   0  0  0  0  0  0  0  0  0  0  0  0
   18.1520   42.0611  -12.0402 C   0  0  0  0  0  0  0  0  0  0  0  0
   19.2597   41.7451  -12.7563 N   0  0  0  0  0  0  0  0  0  0  0  0
   17.4077   43.1513  -12.4327 O   0  0  0  0  0  0  0  0  0  0  0  0
   18.1365   44.3076  -12.8322 C   0  0  0  0  0  0  0  0  0  0  0  0
   17.5530   45.5344  -12.1155 C   0  0  0  0  0  0  0  0  0  0  0  0
   18.5500   46.7033  -11.9756 C   0  0  0  0  0  0  0  0  0  0  0  0
   19.7330   46.4494  -11.0123 C   0  0  0  0  0  0  0  0  0  0  0  0
   19.3010   46.0995   -9.5920 C   0  0  0  0  0  0  0  0  0  0  0  0
   19.1100   44.7417   -9.2471 C   0  0  0  0  0  0  0  0  0  0  0  0
   18.6682   44.3766   -7.9550 C   0  0  0  0  0  0  0  0  0  0  0  0
   18.3669   42.9315   -7.5537 C   0  0  0  0  0  0  0  0  0  0  0  0
   19.3232   41.8346   -8.0892 C   0  0  2  0  0  0  0  0  0  0  0  0
   18.6432   40.5279   -8.0366 N   0  0  0  0  0  0  0  0  0  0  0  0
   18.3539   39.7203   -9.0768 C   0  0  0  0  0  0  0  0  0  0  0  0
   17.9507   38.5705   -8.9331 O   0  0  0  0  0  0  0  0  0  0  0  0
   20.7393   41.7973   -7.4351 C   0  0  2  0  0  0  0  0  0  0  0  0
   21.6886   41.6858   -8.4771 O   0  0  0  0  0  0  0  0  0  0  0  0
   21.0788   40.6759   -6.4076 C   0  0  0  0  0  0  0  0  0  0  0  0
   20.4601   40.8186   -5.0620 N   0  3  0  0  0  0  0  0  0  0  0  0
   21.1652   41.6116   -4.0134 C   0  0  0  0  0  0  0  0  0  0  0  0
   20.3292   41.5746   -2.7145 C   0  0  0  0  0  0  0  0  0  0  0  0
   22.5339   40.9895   -3.6689 C   0  0  0  0  0  0  0  0  0  0  0  0
   21.3188   43.0445   -4.4732 C   0  0  0  0  0  0  0  0  0  0  0  0
   22.4937   43.7662   -4.8389 C   0  0  0  0  0  0  0  0  0  0  0  0
   22.0192   44.9483   -5.3360 C   0  0  0  0  0  0  0  0  0  0  0  0
   22.6293   46.1379   -6.0212 C   0  0  0  0  0  0  0  0  0  0  0  0
   23.8771   46.8025   -5.3788 C   0  0  0  0  0  0  0  0  0  0  0  0
   24.0600   48.1989   -6.0081 C   0  0  0  0  0  0  0  0  0  0  0  0
   25.1459   45.9757   -5.6720 C   0  0  0  0  0  0  0  0  0  0  0  0
   23.7113   46.9819   -3.8572 C   0  0  0  0  0  0  0  0  0  0  0  0
   20.6669   44.9669   -5.2401 O   0  0  0  0  0  0  0  0  0  0  0  0
   20.2276   43.7500   -4.7175 N   0  0  0  0  0  0  0  0  0  0  0  0
   18.4204   45.3971   -7.0189 C   0  0  0  0  0  0  0  0  0  0  0  0
   18.6369   46.7494   -7.3320 C   0  0  0  0  0  0  0  0  0  0  0  0
   18.3538   47.9462   -6.1168 Cl  0  0  0  0  0  0  0  0  0  0  0  0
   19.0700   47.1085   -8.6252 C   0  0  0  0  0  0  0  0  0  0  0  0
   19.2480   48.4280   -8.9365 O   0  0  0  0  0  0  0  0  0  0  0  0
   19.4933   42.1088   -9.1225 H   0  0  0  0  0  0  0  0  0  0  0  0
   20.9518   42.7791   -7.0301 H   0  0  0  0  0  0  0  0  0  0  0  0
   21.9288   39.7667  -12.6109 H   0  0  0  0  0  0  0  0  0  0  0  0
   21.7010   41.2485  -13.5428 H   0  0  0  0  0  0  0  0  0  0  0  0
   20.8908   39.7510  -14.0400 H   0  0  0  0  0  0  0  0  0  0  0  0
   20.3438   39.1306  -10.8741 H   0  0  0  0  0  0  0  0  0  0  0  0
   16.8834   41.6645  -10.3350 H   0  0  0  0  0  0  0  0  0  0  0  0
   19.1967   44.2255  -12.5974 H   0  0  0  0  0  0  0  0  0  0  0  0
   18.0601   44.4320  -13.9088 H   0  0  0  0  0  0  0  0  0  0  0  0
   16.6699   45.8694  -12.6605 H   0  0  0  0  0  0  0  0  0  0  0  0
   17.1855   45.2499  -11.1297 H   0  0  0  0  0  0  0  0  0  0  0  0
   18.9346   46.9685  -12.9607 H   0  0  0  0  0  0  0  0  0  0  0  0
   18.0030   47.5783  -11.6243 H   0  0  0  0  0  0  0  0  0  0  0  0
   20.3697   45.6506  -11.3926 H   0  0  0  0  0  0  0  0  0  0  0  0
   20.3797   47.3272  -10.9916 H   0  0  0  0  0  0  0  0  0  0  0  0
   19.2714   43.9927  -10.0068 H   0  0  0  0  0  0  0  0  0  0  0  0
   18.3245   42.8860   -6.4672 H   0  0  0  0  0  0  0  0  0  0  0  0
   17.3509   42.7280   -7.8957 H   0  0  0  0  0  0  0  0  0  0  0  0
   18.3784   40.1802   -7.1256 H   0  0  0  0  0  0  0  0  0  0  0  0
   21.5112   40.9068   -8.9813 H   0  0  0  0  0  0  0  0  0  0  0  0
   20.7802   39.7064   -6.8063 H   0  0  0  0  0  0  0  0  0  0  0  0
   22.1592   40.5985   -6.3027 H   0  0  0  0  0  0  0  0  0  0  0  0
   19.5220   41.2034   -5.1697 H   0  0  0  0  0  0  0  0  0  0  0  0
   20.8190   42.1350   -1.9160 H   0  0  0  0  0  0  0  0  0  0  0  0
   20.1892   40.5543   -2.3552 H   0  0  0  0  0  0  0  0  0  0  0  0
   19.3383   42.0158   -2.8395 H   0  0  0  0  0  0  0  0  0  0  0  0
   22.9805   41.5383   -2.8410 H   0  0  0  0  0  0  0  0  0  0  0  0
   23.2501   41.0270   -4.4884 H   0  0  0  0  0  0  0  0  0  0  0  0
   22.4412   39.9493   -3.3553 H   0  0  0  0  0  0  0  0  0  0  0  0
   23.5212   43.4392   -4.7982 H   0  0  0  0  0  0  0  0  0  0  0  0
   22.8520   45.8663   -7.0541 H   0  0  0  0  0  0  0  0  0  0  0  0
   21.8488   46.8966   -6.0996 H   0  0  0  0  0  0  0  0  0  0  0  0
   24.9459   48.7010   -5.6162 H   0  0  0  0  0  0  0  0  0  0  0  0
   23.2054   48.8451   -5.8083 H   0  0  0  0  0  0  0  0  0  0  0  0
   24.1774   48.1359   -7.0909 H   0  0  0  0  0  0  0  0  0  0  0  0
   25.3050   45.8589   -6.7444 H   0  0  0  0  0  0  0  0  0  0  0  0
   25.0958   44.9781   -5.2399 H   0  0  0  0  0  0  0  0  0  0  0  0
   26.0341   46.4558   -5.2616 H   0  0  0  0  0  0  0  0  0  0  0  0
   24.5583   47.5231   -3.4325 H   0  0  0  0  0  0  0  0  0  0  0  0
   23.6570   46.0302   -3.3377 H   0  0  0  0  0  0  0  0  0  0  0  0
   22.8106   47.5503   -3.6250 H   0  0  0  0  0  0  0  0  0  0  0  0
   18.0609   45.1399   -6.0387 H   0  0  0  0  0  0  0  0  0  0  0  0
   19.5363   48.5607   -9.8259 H   0  0  0  0  0  0  0  0  0  0  0  0
   20.3531   39.8873   -4.6892 H   0  0  0  0  0  0  0  0  0  0  0  0
  1  2  1  0  0  0  0
  1 45  1  0  0  0  0
  1 46  1  0  0  0  0
  1 47  1  0  0  0  0
  2  7  1  0  0  0  0
  2  3  2  0  0  0  0
  3  4  1  0  0  0  0
  3 48  1  0  0  0  0
  4 19  1  0  0  0  0
  4  5  2  0  0  0  0
  5  6  1  0  0  0  0
  5 49  1  0  0  0  0
  6  7  2  0  0  0  0
  6  8  1  0  0  0  0
  8  9  1  0  0  0  0
  9 10  1  0  0  0  0
  9 50  1  0  0  0  0
  9 51  1  0  0  0  0
 10 11  1  0  0  0  0
 10 52  1  0  0  0  0
 10 53  1  0  0  0  0
 11 12  1  0  0  0  0
 11 54  1  0  0  0  0
 11 55  1  0  0  0  0
 12 13  1  0  0  0  0
 12 56  1  0  0  0  0
 12 57  1  0  0  0  0
 13 41  1  0  0  0  0
 13 14  2  0  0  0  0
 14 15  1  0  0  0  0
 14 58  1  0  0  0  0
 15 16  1  0  0  0  0
 15 38  2  0  0  0  0
 16 17  1  0  0  0  0
 16 59  1  0  0  0  0
 16 60  1  0  0  0  0
 17 43  1  6  0  0  0
 17 18  1  0  0  0  0
 17 21  1  0  0  0  0
 18 19  1  0  0  0  0
 18 61  1  0  0  0  0
 19 20  2  0  0  0  0
 21 44  1  1  0  0  0
 21 22  1  0  0  0  0
 21 23  1  0  0  0  0
 22 62  1  0  0  0  0
 23 24  1  0  0  0  0
 23 63  1  0  0  0  0
 23 64  1  0  0  0  0
 24 25  1  0  0  0  0
 24 65  1  0  0  0  0
 24 86  1  0  0  0  0
 25 26  1  0  0  0  0
 25 27  1  0  0  0  0
 25 28  1  0  0  0  0
 26 66  1  0  0  0  0
 26 67  1  0  0  0  0
 26 68  1  0  0  0  0
 27 69  1  0  0  0  0
 27 70  1  0  0  0  0
 27 71  1  0  0  0  0
 28 37  2  0  0  0  0
 28 29  1  0  0  0  0
 29 30  2  0  0  0  0
 29 72  1  0  0  0  0
 30 31  1  0  0  0  0
 30 36  1  0  0  0  0
 31 32  1  0  0  0  0
 31 73  1  0  0  0  0
 31 74  1  0  0  0  0
 32 33  1  0  0  0  0
 32 34  1  0  0  0  0
 32 35  1  0  0  0  0
 33 75  1  0  0  0  0
 33 76  1  0  0  0  0
 33 77  1  0  0  0  0
 34 78  1  0  0  0  0
 34 79  1  0  0  0  0
 34 80  1  0  0  0  0
 35 81  1  0  0  0  0
 35 82  1  0  0  0  0
 35 83  1  0  0  0  0
 36 37  1  0  0  0  0
 38 39  1  0  0  0  0
 38 84  1  0  0  0  0
 39 40  1  0  0  0  0
 39 41  2  0  0  0  0
 41 42  1  0  0  0  0
 42 85  1  0  0  0  0
M  CHG  1  24   1
M  END
>  <s_m_source_file>
BACE_108.smi

>  <i_m_source_file_index>
1

>  <i_lp_mmshare_version>
42013

>  <i_f3d_flags>
0

>  <s_epik_input>
YzEyW2NIXWMoW0NIM10pbmMoW2NIXTEpT1tDSDJdW0NIMl1bQ0gyXVtDSDJdYzNbY0hdYyhbY0hdYyhDbCljM1tPSF0pW0NIMl1bQ0BIXShbTkhdQzI9TylbQ0BIXShbT0hdKVtDSDJdW05IXUMoW0NIM10pKFtDSDNdKWM0W2NIXWMob240KVtDSDJdQyhbQ0gzXSkoW0NIM10pW0NIM10=

>  <s_epik_cmdline>
J2VwaWtfcHl0aG9uJywgJy1waCcsICc3LjAnLCAnLXRuJywgJzgnLCAnLW1hJywgJzIwMCcsICctaW1hZScsICc8aW5maWxlLm1hZT4nLCAnLW9tYWUnLCAnPG91dGZpbGUubWFlPic=

>  <r_lp_tautomer_probability>
1

>  <r_epik_Ionization_Penalty>
0.2413

>  <r_epik_Ionization_Penalty_Charging>
0.2389

>  <r_epik_Ionization_Penalty_Neutral>
0.0024

>  <r_epik_State_Penalty>
0.2392

>  <r_epik_Charging_Adjusted_Penalty>
0.478089

>  <i_epik_Tot_Q>
1

>  <i_epik_Tot_abs_Q>
1

>  <s_lp_Force_Field>
OPLS_2005

>  <r_lp_Energy>
32.6213

>  <b_lp_Chiralities_Consistent>
1

>  <s_lp_Variant>
BACE_108.smi:1-1

>  <chiral flag>
1

>  <version>
0

>  <s_i_glide_gridfile>
second_dock_grid_2

>  <i_i_glide_lignum>
220

>  <i_i_glide_rotatable_bonds>
9

>  <r_i_docking_score>
-5.55155

>  <r_i_glide_ligand_efficiency>
-0.13218

>  <r_i_glide_ligand_efficiency_sa>
-0.459461

>  <r_i_glide_ligand_efficiency_ln>
-1.17179

>  <r_glide_XP_GScore>
-5.79075

>  <r_i_glide_gscore>
-5.79075

>  <r_i_glide_evdw>
-43.4648

>  <r_i_glide_ecoul>
-11.7485

>  <r_i_glide_energy>
-55.2133

>  <r_i_glide_einternal>
15.0104

>  <r_i_glide_emodel>
-70.423

>  <r_glide_XP_HBond>
-0.929459

>  <i_i_glide_confnum>
1

>  <i_i_glide_posenum>
2

>  <r_i_glide_eff_state_penalty>
0.2392

>  <i_glide_XP_PoseRank>
1

$$$$
