BACE_46.smi:1
 OpenBabel09291822493D
Structure written by MMmdl.
 77 79  0  0  1  0  0  0  0  0999 V2000
   24.6209   50.5799   -0.4757 C   0  0  0  0  0  0  0  0  0  0  0  0
   25.1266   49.7736   -1.6854 C   0  0  0  0  0  0  0  0  0  0  0  0
   26.3967   50.4010   -2.2750 C   0  0  0  0  0  0  0  0  0  0  0  0
   24.0790   49.5553   -2.7743 C   0  0  0  0  0  0  0  0  0  0  0  0
   23.0161   50.4638   -2.9851 C   0  0  0  0  0  0  0  0  0  0  0  0
   22.0791   50.2332   -4.0112 C   0  0  0  0  0  0  0  0  0  0  0  0
   22.2064   49.1085   -4.8481 C   0  0  0  0  0  0  0  0  0  0  0  0
   23.2629   48.1948   -4.6506 C   0  0  0  0  0  0  0  0  0  0  0  0
   23.4143   46.9755   -5.5468 C   0  0  0  0  0  0  0  0  0  0  0  0
   22.4410   45.9292   -5.2404 N   0  0  0  0  0  0  0  0  0  0  0  0
   21.2378   45.9490   -6.0794 C   0  0  0  0  0  0  0  0  0  0  0  0
   20.0925   45.0770   -5.5065 C   0  0  1  0  0  0  0  0  0  0  0  0
   18.8692   45.6167   -5.9765 O   0  0  0  0  0  0  0  0  0  0  0  0
   20.1164   43.5300   -5.7258 C   0  0  2  0  0  0  0  0  0  0  0  0
   21.4924   42.8311   -5.5543 C   0  0  0  0  0  0  0  0  0  0  0  0
   21.4490   41.3426   -5.0939 C   0  0  2  0  0  0  0  0  0  0  0  0
   22.3966   41.1304   -3.8976 C   0  0  0  0  0  0  0  0  0  0  0  0
   21.7799   40.3102   -6.1996 C   0  0  0  0  0  0  0  0  0  0  0  0
   20.6213   40.0173   -7.1301 C   0  0  0  0  0  0  0  0  0  0  0  0
   19.8135   38.9500   -7.0186 C   0  0  0  0  0  0  0  0  0  0  0  0
   18.6106   38.6783   -7.8980 C   0  0  0  0  0  0  0  0  0  0  0  0
   17.3098   38.8214   -7.0887 C   0  0  0  0  0  0  0  0  0  0  0  0
   16.0069   38.6879   -7.8991 C   0  0  0  0  0  0  0  0  0  0  0  0
   15.4544   40.0095   -8.4703 C   0  0  0  0  0  0  0  0  0  0  0  0
   15.9967   40.3446   -9.7833 N   0  0  0  0  0  0  0  0  0  0  0  0
   16.8714   41.4232   -9.9535 C   0  0  0  0  0  0  0  0  0  0  0  0
   17.7397   41.8635   -8.9316 C   0  0  0  0  0  0  0  0  0  0  0  0
   18.6564   42.9005   -9.2075 C   0  0  0  0  0  0  0  0  0  0  0  0
   18.6246   43.4835  -10.4890 C   0  0  0  0  0  0  0  0  0  0  0  0
   17.7007   43.0035  -11.4319 C   0  0  0  0  0  0  0  0  0  0  0  0
   17.6602   43.7490  -12.9831 Cl  0  0  0  0  0  0  0  0  0  0  0  0
   16.8465   41.9914  -11.1768 N   0  0  0  0  0  0  0  0  0  0  0  0
   19.6751   43.3506   -8.1998 C   0  0  0  0  0  0  0  0  0  0  0  0
   20.6757   43.9685   -8.5588 O   0  0  0  0  0  0  0  0  0  0  0  0
   19.3805   43.0978   -6.9148 N   0  0  0  0  0  0  0  0  0  0  0  0
   24.1890   48.4221   -3.6107 C   0  0  0  0  0  0  0  0  0  0  0  0
   20.0607   45.2454   -4.4400 H   0  0  0  0  0  0  0  0  0  0  0  0
   19.4997   43.1504   -4.9120 H   0  0  0  0  0  0  0  0  0  0  0  0
   20.4501   41.1136   -4.7208 H   0  0  0  0  0  0  0  0  0  0  0  0
   23.7114   50.1474   -0.0602 H   0  0  0  0  0  0  0  0  0  0  0  0
   24.4162   51.6179   -0.7361 H   0  0  0  0  0  0  0  0  0  0  0  0
   25.3676   50.5960    0.3200 H   0  0  0  0  0  0  0  0  0  0  0  0
   25.3950   48.7863   -1.3082 H   0  0  0  0  0  0  0  0  0  0  0  0
   26.8309   49.7656   -3.0470 H   0  0  0  0  0  0  0  0  0  0  0  0
   27.1595   50.5491   -1.5078 H   0  0  0  0  0  0  0  0  0  0  0  0
   26.1839   51.3697   -2.7258 H   0  0  0  0  0  0  0  0  0  0  0  0
   22.9039   51.3426   -2.3681 H   0  0  0  0  0  0  0  0  0  0  0  0
   21.2598   50.9238   -4.1520 H   0  0  0  0  0  0  0  0  0  0  0  0
   21.4889   48.9458   -5.6366 H   0  0  0  0  0  0  0  0  0  0  0  0
   23.3599   47.2763   -6.5953 H   0  0  0  0  0  0  0  0  0  0  0  0
   24.4212   46.5786   -5.4045 H   0  0  0  0  0  0  0  0  0  0  0  0
   22.8872   45.0174   -5.2894 H   0  0  0  0  0  0  0  0  0  0  0  0
   20.8738   46.9749   -6.1344 H   0  0  0  0  0  0  0  0  0  0  0  0
   21.4816   45.6756   -7.1037 H   0  0  0  0  0  0  0  0  0  0  0  0
   18.7847   45.3797   -6.8885 H   0  0  0  0  0  0  0  0  0  0  0  0
   22.1014   42.9433   -6.4511 H   0  0  0  0  0  0  0  0  0  0  0  0
   22.0260   43.3875   -4.7849 H   0  0  0  0  0  0  0  0  0  0  0  0
   23.4333   41.3243   -4.1700 H   0  0  0  0  0  0  0  0  0  0  0  0
   22.3403   40.1102   -3.5191 H   0  0  0  0  0  0  0  0  0  0  0  0
   22.1437   41.7910   -3.0679 H   0  0  0  0  0  0  0  0  0  0  0  0
   22.6459   40.6213   -6.7839 H   0  0  0  0  0  0  0  0  0  0  0  0
   22.0611   39.3625   -5.7376 H   0  0  0  0  0  0  0  0  0  0  0  0
   20.4406   40.7341   -7.9121 H   0  0  0  0  0  0  0  0  0  0  0  0
   19.9810   38.2400   -6.2251 H   0  0  0  0  0  0  0  0  0  0  0  0
   18.6215   39.3459   -8.7574 H   0  0  0  0  0  0  0  0  0  0  0  0
   18.6905   37.6658   -8.2965 H   0  0  0  0  0  0  0  0  0  0  0  0
   17.3242   38.0639   -6.3134 H   0  0  0  0  0  0  0  0  0  0  0  0
   17.2958   39.7509   -6.5292 H   0  0  0  0  0  0  0  0  0  0  0  0
   16.0972   37.9233   -8.6706 H   0  0  0  0  0  0  0  0  0  0  0  0
   15.2492   38.3082   -7.2116 H   0  0  0  0  0  0  0  0  0  0  0  0
   14.3778   39.8990   -8.6065 H   0  0  0  0  0  0  0  0  0  0  0  0
   15.5666   40.8264   -7.7565 H   0  0  0  0  0  0  0  0  0  0  0  0
   15.4072   40.1202  -10.5699 H   0  0  0  0  0  0  0  0  0  0  0  0
   17.7352   41.3822   -7.9678 H   0  0  0  0  0  0  0  0  0  0  0  0
   19.3037   44.2812  -10.7529 H   0  0  0  0  0  0  0  0  0  0  0  0
   18.5415   42.5616   -6.7303 H   0  0  0  0  0  0  0  0  0  0  0  0
   25.0009   47.7254   -3.4628 H   0  0  0  0  0  0  0  0  0  0  0  0
  1  2  1  0  0  0  0
  1 40  1  0  0  0  0
  1 41  1  0  0  0  0
  1 42  1  0  0  0  0
  2  3  1  0  0  0  0
  2  4  1  0  0  0  0
  2 43  1  0  0  0  0
  3 44  1  0  0  0  0
  3 45  1  0  0  0  0
  3 46  1  0  0  0  0
  4 36  1  0  0  0  0
  4  5  2  0  0  0  0
  5  6  1  0  0  0  0
  5 47  1  0  0  0  0
  6  7  2  0  0  0  0
  6 48  1  0  0  0  0
  7  8  1  0  0  0  0
  7 49  1  0  0  0  0
  8  9  1  0  0  0  0
  8 36  2  0  0  0  0
  9 10  1  0  0  0  0
  9 50  1  0  0  0  0
  9 51  1  0  0  0  0
 10 11  1  0  0  0  0
 10 52  1  0  0  0  0
 11 12  1  0  0  0  0
 11 53  1  0  0  0  0
 11 54  1  0  0  0  0
 12 37  1  1  0  0  0
 12 13  1  0  0  0  0
 12 14  1  0  0  0  0
 13 55  1  0  0  0  0
 14 38  1  1  0  0  0
 14 35  1  0  0  0  0
 14 15  1  0  0  0  0
 15 16  1  0  0  0  0
 15 56  1  0  0  0  0
 15 57  1  0  0  0  0
 16 39  1  1  0  0  0
 16 17  1  0  0  0  0
 16 18  1  0  0  0  0
 17 58  1  0  0  0  0
 17 59  1  0  0  0  0
 17 60  1  0  0  0  0
 18 19  1  0  0  0  0
 18 61  1  0  0  0  0
 18 62  1  0  0  0  0
 19 20  2  0  0  0  0
 19 63  1  0  0  0  0
 20 21  1  0  0  0  0
 20 64  1  0  0  0  0
 21 22  1  0  0  0  0
 21 65  1  0  0  0  0
 21 66  1  0  0  0  0
 22 23  1  0  0  0  0
 22 67  1  0  0  0  0
 22 68  1  0  0  0  0
 23 24  1  0  0  0  0
 23 69  1  0  0  0  0
 23 70  1  0  0  0  0
 24 25  1  0  0  0  0
 24 71  1  0  0  0  0
 24 72  1  0  0  0  0
 25 26  1  0  0  0  0
 25 73  1  0  0  0  0
 26 32  1  0  0  0  0
 26 27  2  0  0  0  0
 27 28  1  0  0  0  0
 27 74  1  0  0  0  0
 28 29  2  0  0  0  0
 28 33  1  0  0  0  0
 29 30  1  0  0  0  0
 29 75  1  0  0  0  0
 30 31  1  0  0  0  0
 30 32  2  0  0  0  0
 33 34  2  0  0  0  0
 33 35  1  0  0  0  0
 35 76  1  0  0  0  0
 36 77  1  0  0  0  0
M  END
>  <s_m_source_file>
BACE_46.smi

>  <i_m_source_file_index>
1

>  <i_lp_mmshare_version>
42013

>  <i_f3d_flags>
0

>  <s_epik_input>
W0NIM11bQ0hdKFtDSDNdKWMxW2NIXVtjSF1bY0hdYyhbY0hdMSlbQ0gyXVtOSF1bQ0gyXVtDQEBIXShbT0hdKVtDQEBIXShbTkhdQyg9TyljKFtjSF1jMjMpW2NIXWMoQ2wpbjMpW0NIMl1bQ0BIXShbQ0gzXSlbQ0gyXS9bQ0hdPVtDSF0vW0NIMl1bQ0gyXVtDSDJdW0NIMl1bTkhdMg==

>  <s_epik_cmdline>
J2VwaWtfcHl0aG9uJywgJy1waCcsICc3LjAnLCAnLXRuJywgJzgnLCAnLW1hJywgJzIwMCcsICctaW1hZScsICc8aW5maWxlLm1hZT4nLCAnLW9tYWUnLCAnPG91dGZpbGUubWFlPic=

>  <r_lp_tautomer_probability>
1

>  <r_epik_Ionization_Penalty>
2.0960

>  <r_epik_Ionization_Penalty_Charging>
0.0000

>  <r_epik_Ionization_Penalty_Neutral>
2.0960

>  <r_epik_State_Penalty>
2.2318

>  <r_epik_Charging_Adjusted_Penalty>
2.2318

>  <i_epik_Tot_Q>
0

>  <i_epik_Tot_abs_Q>
0

>  <s_lp_Force_Field>
OPLS_2005

>  <r_lp_Energy>
33.4355

>  <b_lp_Chiralities_Consistent>
1

>  <s_lp_Variant>
BACE_46.smi:1-2

>  <chiral flag>
1

>  <version>
0

>  <s_i_glide_gridfile>
second_dock_grid_2

>  <i_i_glide_lignum>
87

>  <i_i_glide_rotatable_bonds>
7

>  <r_i_docking_score>
-2.263

>  <r_i_glide_ligand_efficiency>
-0.0628612

>  <r_i_glide_ligand_efficiency_sa>
-0.207563

>  <r_i_glide_ligand_efficiency_ln>
-0.493726

>  <r_glide_XP_GScore>
-4.4948

>  <r_i_glide_gscore>
-4.4948

>  <r_i_glide_evdw>
-41.7134

>  <r_i_glide_ecoul>
-11.0458

>  <r_i_glide_energy>
-52.7591

>  <r_i_glide_einternal>
2.43409

>  <r_i_glide_emodel>
-71.6543

>  <r_glide_XP_HBond>
-0.987354

>  <i_i_glide_confnum>
1

>  <i_i_glide_posenum>
24

>  <r_i_glide_eff_state_penalty>
2.2318

>  <i_glide_XP_PoseRank>
1

$$$$
