BACE_114.smi:1
 OpenBabel09291822493D
Structure written by MMmdl.
 82 85  0  0  1  0  0  0  0  0999 V2000
   20.3312   46.1181  -11.5292 C   0  0  0  0  0  0  0  0  0  0  0  0
   21.4851   46.0378  -10.5181 C   0  0  0  0  0  0  0  0  0  0  0  0
   21.9510   47.4368  -10.0847 C   0  0  0  0  0  0  0  0  0  0  0  0
   22.6436   45.2041  -11.0541 C   0  0  0  0  0  0  0  0  0  0  0  0
   23.0333   44.0248  -10.3842 C   0  0  0  0  0  0  0  0  0  0  0  0
   24.1028   43.2211  -10.8583 C   0  0  0  0  0  0  0  0  0  0  0  0
   24.7717   43.6320  -12.0382 C   0  0  0  0  0  0  0  0  0  0  0  0
   24.3971   44.8135  -12.7048 C   0  0  0  0  0  0  0  0  0  0  0  0
   23.3391   45.6012  -12.2143 C   0  0  0  0  0  0  0  0  0  0  0  0
   24.5144   41.9435  -10.0977 C   0  0  0  0  0  0  0  0  0  0  0  0
   25.9372   41.4593  -10.4624 C   0  0  0  0  0  0  0  0  0  0  0  0
   24.5484   42.2065   -8.5708 C   0  0  0  0  0  0  0  0  0  0  0  0
   23.5953   40.8231  -10.4396 N   0  3  0  0  0  0  0  0  0  0  0  0
   22.2097   40.8982   -9.9139 C   0  0  0  0  0  0  0  0  0  0  0  0
   21.4061   39.5820  -10.0299 C   0  0  1  0  0  0  0  0  0  0  0  0
   22.0605   38.5744   -9.2743 O   0  0  0  0  0  0  0  0  0  0  0  0
   19.9351   39.6648   -9.4843 C   0  0  2  0  0  0  0  0  0  0  0  0
   18.9210   38.9998  -10.4432 C   0  0  0  0  0  0  0  0  0  0  0  0
   17.4657   39.2005  -10.0400 C   0  0  0  0  0  0  0  0  0  0  0  0
   16.6653   40.1495  -10.7140 C   0  0  0  0  0  0  0  0  0  0  0  0
   15.3159   40.3447  -10.3559 C   0  0  0  0  0  0  0  0  0  0  0  0
   14.7615   39.5518   -9.3211 C   0  0  0  0  0  0  0  0  0  0  0  0
   15.5595   38.6126   -8.6390 C   0  0  0  0  0  0  0  0  0  0  0  0
   16.9090   38.4398   -8.9921 C   0  0  0  0  0  0  0  0  0  0  0  0
   14.5968   41.2914  -11.0534 O   0  0  0  0  0  0  0  0  0  0  0  0
   13.6836   42.0920  -10.3040 C   0  0  0  0  0  0  0  0  0  0  0  0
   14.0629   43.5733  -10.4492 C   0  0  0  0  0  0  0  0  0  0  0  0
   15.5155   43.8494  -10.0351 C   0  0  0  0  0  0  0  0  0  0  0  0
   15.8244   45.3434   -9.8447 C   0  0  0  0  0  0  0  0  0  0  0  0
   17.2454   45.6601   -9.7145 N   0  0  0  0  0  0  0  0  0  0  0  0
   17.9456   44.9938   -8.6972 C   0  0  0  0  0  0  0  0  0  0  0  0
   18.4483   43.6882   -8.8905 C   0  0  0  0  0  0  0  0  0  0  0  0
   19.1449   43.0476   -7.8406 C   0  0  0  0  0  0  0  0  0  0  0  0
   19.3139   43.7701   -6.6365 C   0  0  0  0  0  0  0  0  0  0  0  0
   18.8611   45.0285   -6.4482 N   0  0  0  0  0  0  0  0  0  0  0  0
   18.1886   45.6169   -7.4558 C   0  0  0  0  0  0  0  0  0  0  0  0
   19.7070   41.6589   -7.9781 C   0  0  0  0  0  0  0  0  0  0  0  0
   20.3663   41.1560   -7.0705 O   0  0  0  0  0  0  0  0  0  0  0  0
   19.4930   41.0259   -9.1497 N   0  0  0  0  0  0  0  0  0  0  0  0
   21.3954   39.2647  -11.0751 H   0  0  0  0  0  0  0  0  0  0  0  0
   19.8711   39.0969   -8.5512 H   0  0  0  0  0  0  0  0  0  0  0  0
   19.9710   45.1242  -11.7947 H   0  0  0  0  0  0  0  0  0  0  0  0
   20.6334   46.6237  -12.4459 H   0  0  0  0  0  0  0  0  0  0  0  0
   19.4915   46.6741  -11.1139 H   0  0  0  0  0  0  0  0  0  0  0  0
   21.0942   45.5415   -9.6285 H   0  0  0  0  0  0  0  0  0  0  0  0
   22.7335   47.3672   -9.3270 H   0  0  0  0  0  0  0  0  0  0  0  0
   21.1263   48.0091   -9.6570 H   0  0  0  0  0  0  0  0  0  0  0  0
   22.3487   48.0032  -10.9270 H   0  0  0  0  0  0  0  0  0  0  0  0
   22.4810   43.7412   -9.5011 H   0  0  0  0  0  0  0  0  0  0  0  0
   25.5817   43.0603  -12.4561 H   0  0  0  0  0  0  0  0  0  0  0  0
   24.9209   45.1115  -13.6008 H   0  0  0  0  0  0  0  0  0  0  0  0
   23.0580   46.5015  -12.7372 H   0  0  0  0  0  0  0  0  0  0  0  0
   26.6847   42.2335  -10.2746 H   0  0  0  0  0  0  0  0  0  0  0  0
   26.0267   41.1661  -11.5094 H   0  0  0  0  0  0  0  0  0  0  0  0
   26.2246   40.5806   -9.8814 H   0  0  0  0  0  0  0  0  0  0  0  0
   25.3016   42.9543   -8.3263 H   0  0  0  0  0  0  0  0  0  0  0  0
   24.8001   41.2938   -8.0400 H   0  0  0  0  0  0  0  0  0  0  0  0
   23.6228   42.5744   -8.1373 H   0  0  0  0  0  0  0  0  0  0  0  0
   23.5849   40.7287  -11.4520 H   0  0  0  0  0  0  0  0  0  0  0  0
   22.2321   41.1645   -8.8601 H   0  0  0  0  0  0  0  0  0  0  0  0
   21.6839   41.6891  -10.4494 H   0  0  0  0  0  0  0  0  0  0  0  0
   22.9097   38.3550   -9.6406 H   0  0  0  0  0  0  0  0  0  0  0  0
   19.0544   39.3915  -11.4535 H   0  0  0  0  0  0  0  0  0  0  0  0
   19.1213   37.9286  -10.5079 H   0  0  0  0  0  0  0  0  0  0  0  0
   17.0878   40.7354  -11.5179 H   0  0  0  0  0  0  0  0  0  0  0  0
   13.7220   39.6518   -9.0428 H   0  0  0  0  0  0  0  0  0  0  0  0
   15.1346   38.0237   -7.8357 H   0  0  0  0  0  0  0  0  0  0  0  0
   17.5108   37.7185   -8.4580 H   0  0  0  0  0  0  0  0  0  0  0  0
   12.6737   41.9210  -10.6779 H   0  0  0  0  0  0  0  0  0  0  0  0
   13.6629   41.8573   -9.2442 H   0  0  0  0  0  0  0  0  0  0  0  0
   13.9055   43.8995  -11.4764 H   0  0  0  0  0  0  0  0  0  0  0  0
   13.3866   44.1646   -9.8295 H   0  0  0  0  0  0  0  0  0  0  0  0
   15.7205   43.3190   -9.1038 H   0  0  0  0  0  0  0  0  0  0  0  0
   16.1771   43.4264  -10.7914 H   0  0  0  0  0  0  0  0  0  0  0  0
   15.4517   45.9034  -10.7044 H   0  0  0  0  0  0  0  0  0  0  0  0
   15.2951   45.7258   -8.9719 H   0  0  0  0  0  0  0  0  0  0  0  0
   17.3774   46.6615   -9.6787 H   0  0  0  0  0  0  0  0  0  0  0  0
   18.2953   43.1984   -9.8416 H   0  0  0  0  0  0  0  0  0  0  0  0
   19.8298   43.3371   -5.7952 H   0  0  0  0  0  0  0  0  0  0  0  0
   17.8314   46.6183   -7.2697 H   0  0  0  0  0  0  0  0  0  0  0  0
   18.9090   41.4855   -9.8316 H   0  0  0  0  0  0  0  0  0  0  0  0
   24.0179   39.9866  -10.0510 H   0  0  0  0  0  0  0  0  0  0  0  0
  1  2  1  0  0  0  0
  1 42  1  0  0  0  0
  1 43  1  0  0  0  0
  1 44  1  0  0  0  0
  2  3  1  0  0  0  0
  2  4  1  0  0  0  0
  2 45  1  0  0  0  0
  3 46  1  0  0  0  0
  3 47  1  0  0  0  0
  3 48  1  0  0  0  0
  4  9  1  0  0  0  0
  4  5  2  0  0  0  0
  5  6  1  0  0  0  0
  5 49  1  0  0  0  0
  6  7  2  0  0  0  0
  6 10  1  0  0  0  0
  7  8  1  0  0  0  0
  7 50  1  0  0  0  0
  8  9  2  0  0  0  0
  8 51  1  0  0  0  0
  9 52  1  0  0  0  0
 10 11  1  0  0  0  0
 10 12  1  0  0  0  0
 10 13  1  0  0  0  0
 11 53  1  0  0  0  0
 11 54  1  0  0  0  0
 11 55  1  0  0  0  0
 12 56  1  0  0  0  0
 12 57  1  0  0  0  0
 12 58  1  0  0  0  0
 13 14  1  0  0  0  0
 13 59  1  0  0  0  0
 13 82  1  0  0  0  0
 14 15  1  0  0  0  0
 14 60  1  0  0  0  0
 14 61  1  0  0  0  0
 15 40  1  6  0  0  0
 15 16  1  0  0  0  0
 15 17  1  0  0  0  0
 16 62  1  0  0  0  0
 17 41  1  1  0  0  0
 17 39  1  0  0  0  0
 17 18  1  0  0  0  0
 18 19  1  0  0  0  0
 18 63  1  0  0  0  0
 18 64  1  0  0  0  0
 19 24  1  0  0  0  0
 19 20  2  0  0  0  0
 20 21  1  0  0  0  0
 20 65  1  0  0  0  0
 21 22  2  0  0  0  0
 21 25  1  0  0  0  0
 22 23  1  0  0  0  0
 22 66  1  0  0  0  0
 23 24  2  0  0  0  0
 23 67  1  0  0  0  0
 24 68  1  0  0  0  0
 25 26  1  0  0  0  0
 26 27  1  0  0  0  0
 26 69  1  0  0  0  0
 26 70  1  0  0  0  0
 27 28  1  0  0  0  0
 27 71  1  0  0  0  0
 27 72  1  0  0  0  0
 28 29  1  0  0  0  0
 28 73  1  0  0  0  0
 28 74  1  0  0  0  0
 29 30  1  0  0  0  0
 29 75  1  0  0  0  0
 29 76  1  0  0  0  0
 30 31  1  0  0  0  0
 30 77  1  0  0  0  0
 31 36  1  0  0  0  0
 31 32  2  0  0  0  0
 32 33  1  0  0  0  0
 32 78  1  0  0  0  0
 33 34  2  0  0  0  0
 33 37  1  0  0  0  0
 34 35  1  0  0  0  0
 34 79  1  0  0  0  0
 35 36  2  0  0  0  0
 36 80  1  0  0  0  0
 37 38  2  0  0  0  0
 37 39  1  0  0  0  0
 39 81  1  0  0  0  0
M  CHG  1  13   1
M  END
>  <s_m_source_file>
BACE_114.smi

>  <i_m_source_file_index>
1

>  <i_lp_mmshare_version>
42013

>  <i_f3d_flags>
0

>  <s_epik_input>
W0NIM11bQ0hdKFtDSDNdKWMxW2NIXWMoW2NIXVtjSF1bY0hdMSlDKFtDSDNdKShbQ0gzXSlbTkhdW0NIMl1bQ0BASF0oW09IXSlbQ0BIXShbQ0gyXTIpW05IXUMoPU8pYyhbY0hdbltjSF0zKVtjSF1jM1tOSF1bQ0gyXVtDSDJdW0NIMl1bQ0gyXU9jKFtjSF1jMjQpW2NIXVtjSF1bY0hdNA==

>  <s_epik_cmdline>
J2VwaWtfcHl0aG9uJywgJy1waCcsICc3LjAnLCAnLXRuJywgJzgnLCAnLW1hJywgJzIwMCcsICctaW1hZScsICc8aW5maWxlLm1hZT4nLCAnLW9tYWUnLCAnPG91dGZpbGUubWFlPic=

>  <r_lp_tautomer_probability>
1

>  <r_epik_Ionization_Penalty>
0.0215

>  <r_epik_Ionization_Penalty_Charging>
0.0201

>  <r_epik_Ionization_Penalty_Neutral>
0.0015

>  <r_epik_State_Penalty>
0.0161

>  <r_epik_Charging_Adjusted_Penalty>
0.0361071

>  <i_epik_Tot_Q>
1

>  <i_epik_Tot_abs_Q>
1

>  <s_lp_Force_Field>
OPLS_2005

>  <r_lp_Energy>
40.1949

>  <b_lp_Chiralities_Consistent>
1

>  <s_lp_Variant>
BACE_114.smi:1-1

>  <chiral flag>
1

>  <version>
0

>  <s_i_glide_gridfile>
second_dock_grid_2

>  <i_i_glide_lignum>
232

>  <i_i_glide_rotatable_bonds>
7

>  <r_i_docking_score>
-3.94748

>  <r_i_glide_ligand_efficiency>
-0.101217

>  <r_i_glide_ligand_efficiency_sa>
-0.343249

>  <r_i_glide_ligand_efficiency_ln>
-0.846451

>  <r_glide_XP_GScore>
-3.96358

>  <r_i_glide_gscore>
-3.96358

>  <r_i_glide_evdw>
-38.0244

>  <r_i_glide_ecoul>
-13.3272

>  <r_i_glide_energy>
-51.3516

>  <r_i_glide_einternal>
6.67829

>  <r_i_glide_emodel>
-68.521

>  <r_glide_XP_HBond>
-0.710266

>  <i_i_glide_confnum>
1

>  <i_i_glide_posenum>
10

>  <r_i_glide_eff_state_penalty>
0.0161

>  <i_glide_XP_PoseRank>
1

$$$$
