BACE_70.smi:1
 OpenBabel09291822493D
Structure written by MMmdl.
 87 89  0  0  1  0  0  0  0  0999 V2000
   31.4878   45.2174  -10.9791 C   0  0  0  0  0  0  0  0  0  0  0  0
   30.4352   44.8183   -9.9334 C   0  0  0  0  0  0  0  0  0  0  0  0
   31.0834   44.2483   -8.6631 C   0  0  0  0  0  0  0  0  0  0  0  0
   29.3967   43.8670  -10.5182 C   0  0  0  0  0  0  0  0  0  0  0  0
   28.0432   44.2640  -10.5789 C   0  0  0  0  0  0  0  0  0  0  0  0
   27.0541   43.4155  -11.1377 C   0  0  0  0  0  0  0  0  0  0  0  0
   27.4610   42.1506  -11.6313 C   0  0  0  0  0  0  0  0  0  0  0  0
   28.8085   41.7514  -11.5793 C   0  0  0  0  0  0  0  0  0  0  0  0
   29.7759   42.6055  -11.0203 C   0  0  0  0  0  0  0  0  0  0  0  0
   25.5878   43.8723  -11.2683 C   0  0  0  0  0  0  0  0  0  0  0  0
   25.2143   44.9906  -10.2596 C   0  0  0  0  0  0  0  0  0  0  0  0
   25.3926   44.4584  -12.6784 C   0  0  0  0  0  0  0  0  0  0  0  0
   24.6452   42.7284  -11.0963 N   0  3  0  0  0  0  0  0  0  0  0  0
   24.6524   42.0663   -9.7691 C   0  0  0  0  0  0  0  0  0  0  0  0
   23.6605   40.8927   -9.6707 C   0  0  1  0  0  0  0  0  0  0  0  0
   23.9743   40.2792   -8.4397 O   0  0  0  0  0  0  0  0  0  0  0  0
   22.1597   41.3024   -9.7581 C   0  0  2  0  0  0  0  0  0  0  0  0
   21.2444   40.7036   -8.6400 C   0  0  0  0  0  0  0  0  0  0  0  0
   21.0702   39.1651   -8.5024 C   0  0  2  0  0  0  0  0  0  0  0  0
   20.7486   38.4169   -9.8059 C   0  0  0  0  0  0  0  0  0  0  0  0
   20.0590   38.8233   -7.3855 C   0  0  0  0  0  0  0  0  0  0  0  0
   18.6115   39.2647   -7.6640 C   0  0  0  0  0  0  0  0  0  0  0  0
   17.6147   38.7184   -6.6391 C   0  0  0  0  0  0  0  0  0  0  0  0
   16.1684   39.1568   -6.9286 C   0  0  0  0  0  0  0  0  0  0  0  0
   15.5203   38.3942   -8.1000 C   0  0  0  0  0  0  0  0  0  0  0  0
   14.8548   39.2528   -9.1905 C   0  0  0  0  0  0  0  0  0  0  0  0
   15.8429   40.0374  -10.0702 C   0  0  0  0  0  0  0  0  0  0  0  0
   16.1737   41.3211   -9.4707 N   0  0  0  0  0  0  0  0  0  0  0  0
   17.3390   42.0286   -9.7952 C   0  0  0  0  0  0  0  0  0  0  0  0
   17.5610   43.3096   -9.2503 C   0  0  0  0  0  0  0  0  0  0  0  0
   18.7442   44.0044   -9.5679 C   0  0  0  0  0  0  0  0  0  0  0  0
   19.6990   43.3952  -10.4025 C   0  0  0  0  0  0  0  0  0  0  0  0
   19.4527   42.0986  -10.9028 C   0  0  0  0  0  0  0  0  0  0  0  0
   18.2760   41.4908  -10.6136 N   0  3  0  0  0  0  0  0  0  0  0  0
   20.4774   41.3446  -11.7008 C   0  0  0  0  0  0  0  0  0  0  0  0
   20.2063   40.9652  -12.8363 O   0  0  0  0  0  0  0  0  0  0  0  0
   21.6666   41.0649  -11.1291 N   0  0  0  0  0  0  0  0  0  0  0  0
   23.8835   40.1506  -10.4405 H   0  0  0  0  0  0  0  0  0  0  0  0
   22.1217   42.3781   -9.6020 H   0  0  0  0  0  0  0  0  0  0  0  0
   22.0166   38.7494   -8.1593 H   0  0  0  0  0  0  0  0  0  0  0  0
   31.0161   45.6692  -11.8525 H   0  0  0  0  0  0  0  0  0  0  0  0
   32.0636   44.3574  -11.3226 H   0  0  0  0  0  0  0  0  0  0  0  0
   32.1936   45.9461  -10.5718 H   0  0  0  0  0  0  0  0  0  0  0  0
   29.9229   45.7365   -9.6379 H   0  0  0  0  0  0  0  0  0  0  0  0
   30.3297   44.0076   -7.9115 H   0  0  0  0  0  0  0  0  0  0  0  0
   31.7651   44.9713   -8.2121 H   0  0  0  0  0  0  0  0  0  0  0  0
   31.6538   43.3417   -8.8727 H   0  0  0  0  0  0  0  0  0  0  0  0
   27.7860   45.2444  -10.2129 H   0  0  0  0  0  0  0  0  0  0  0  0
   26.7425   41.4686  -12.0580 H   0  0  0  0  0  0  0  0  0  0  0  0
   29.0999   40.7876  -11.9752 H   0  0  0  0  0  0  0  0  0  0  0  0
   30.8107   42.2962  -10.9878 H   0  0  0  0  0  0  0  0  0  0  0  0
   25.7216   45.9284  -10.4809 H   0  0  0  0  0  0  0  0  0  0  0  0
   25.4717   44.7288   -9.2326 H   0  0  0  0  0  0  0  0  0  0  0  0
   24.1464   45.2131  -10.2868 H   0  0  0  0  0  0  0  0  0  0  0  0
   26.0129   45.3432  -12.8258 H   0  0  0  0  0  0  0  0  0  0  0  0
   24.3578   44.7522  -12.8568 H   0  0  0  0  0  0  0  0  0  0  0  0
   25.6753   43.7503  -13.4526 H   0  0  0  0  0  0  0  0  0  0  0  0
   23.7115   43.0695  -11.2692 H   0  0  0  0  0  0  0  0  0  0  0  0
   25.6615   41.6964   -9.5682 H   0  0  0  0  0  0  0  0  0  0  0  0
   24.4193   42.7806   -8.9785 H   0  0  0  0  0  0  0  0  0  0  0  0
   24.3131   39.4139   -8.6363 H   0  0  0  0  0  0  0  0  0  0  0  0
   21.6169   41.0699   -7.6841 H   0  0  0  0  0  0  0  0  0  0  0  0
   20.2683   41.1640   -8.6973 H   0  0  0  0  0  0  0  0  0  0  0  0
   19.8661   38.8143  -10.3072 H   0  0  0  0  0  0  0  0  0  0  0  0
   20.5772   37.3578   -9.6147 H   0  0  0  0  0  0  0  0  0  0  0  0
   21.5924   38.4821  -10.4935 H   0  0  0  0  0  0  0  0  0  0  0  0
   20.0728   37.7498   -7.2262 H   0  0  0  0  0  0  0  0  0  0  0  0
   20.3928   39.2585   -6.4421 H   0  0  0  0  0  0  0  0  0  0  0  0
   18.5415   40.3493   -7.6587 H   0  0  0  0  0  0  0  0  0  0  0  0
   18.3094   38.9341   -8.6547 H   0  0  0  0  0  0  0  0  0  0  0  0
   17.6650   37.6316   -6.6211 H   0  0  0  0  0  0  0  0  0  0  0  0
   17.9043   39.0406   -5.6411 H   0  0  0  0  0  0  0  0  0  0  0  0
   15.5704   38.9557   -6.0404 H   0  0  0  0  0  0  0  0  0  0  0  0
   16.1217   40.2359   -7.0550 H   0  0  0  0  0  0  0  0  0  0  0  0
   16.2347   37.7119   -8.5611 H   0  0  0  0  0  0  0  0  0  0  0  0
   14.7543   37.7513   -7.6682 H   0  0  0  0  0  0  0  0  0  0  0  0
   14.3096   38.5694   -9.8402 H   0  0  0  0  0  0  0  0  0  0  0  0
   14.0953   39.9084   -8.7635 H   0  0  0  0  0  0  0  0  0  0  0  0
   16.7326   39.4381  -10.2636 H   0  0  0  0  0  0  0  0  0  0  0  0
   15.3849   40.2392  -11.0377 H   0  0  0  0  0  0  0  0  0  0  0  0
   15.5537   41.6777   -8.7552 H   0  0  0  0  0  0  0  0  0  0  0  0
   16.8358   43.7586   -8.5888 H   0  0  0  0  0  0  0  0  0  0  0  0
   18.9269   44.9865   -9.1589 H   0  0  0  0  0  0  0  0  0  0  0  0
   20.6203   43.9064  -10.6362 H   0  0  0  0  0  0  0  0  0  0  0  0
   22.2955   40.5482  -11.7308 H   0  0  0  0  0  0  0  0  0  0  0  0
   24.8560   42.0323  -11.7988 H   0  0  0  0  0  0  0  0  0  0  0  0
   18.1249   40.5535  -10.9876 H   0  0  0  0  0  0  0  0  0  0  0  0
  1  2  1  0  0  0  0
  1 41  1  0  0  0  0
  1 42  1  0  0  0  0
  1 43  1  0  0  0  0
  2  3  1  0  0  0  0
  2  4  1  0  0  0  0
  2 44  1  0  0  0  0
  3 45  1  0  0  0  0
  3 46  1  0  0  0  0
  3 47  1  0  0  0  0
  4  9  1  0  0  0  0
  4  5  2  0  0  0  0
  5  6  1  0  0  0  0
  5 48  1  0  0  0  0
  6  7  2  0  0  0  0
  6 10  1  0  0  0  0
  7  8  1  0  0  0  0
  7 49  1  0  0  0  0
  8  9  2  0  0  0  0
  8 50  1  0  0  0  0
  9 51  1  0  0  0  0
 10 11  1  0  0  0  0
 10 12  1  0  0  0  0
 10 13  1  0  0  0  0
 11 52  1  0  0  0  0
 11 53  1  0  0  0  0
 11 54  1  0  0  0  0
 12 55  1  0  0  0  0
 12 56  1  0  0  0  0
 12 57  1  0  0  0  0
 13 14  1  0  0  0  0
 13 58  1  0  0  0  0
 13 86  1  0  0  0  0
 14 15  1  0  0  0  0
 14 59  1  0  0  0  0
 14 60  1  0  0  0  0
 15 38  1  6  0  0  0
 15 16  1  0  0  0  0
 15 17  1  0  0  0  0
 16 61  1  0  0  0  0
 17 39  1  1  0  0  0
 17 37  1  0  0  0  0
 17 18  1  0  0  0  0
 18 19  1  0  0  0  0
 18 62  1  0  0  0  0
 18 63  1  0  0  0  0
 19 40  1  1  0  0  0
 19 20  1  0  0  0  0
 19 21  1  0  0  0  0
 20 64  1  0  0  0  0
 20 65  1  0  0  0  0
 20 66  1  0  0  0  0
 21 22  1  0  0  0  0
 21 67  1  0  0  0  0
 21 68  1  0  0  0  0
 22 23  1  0  0  0  0
 22 69  1  0  0  0  0
 22 70  1  0  0  0  0
 23 24  1  0  0  0  0
 23 71  1  0  0  0  0
 23 72  1  0  0  0  0
 24 25  1  0  0  0  0
 24 73  1  0  0  0  0
 24 74  1  0  0  0  0
 25 26  1  0  0  0  0
 25 75  1  0  0  0  0
 25 76  1  0  0  0  0
 26 27  1  0  0  0  0
 26 77  1  0  0  0  0
 26 78  1  0  0  0  0
 27 28  1  0  0  0  0
 27 79  1  0  0  0  0
 27 80  1  0  0  0  0
 28 29  1  0  0  0  0
 28 81  1  0  0  0  0
 29 34  1  0  0  0  0
 29 30  2  0  0  0  0
 30 31  1  0  0  0  0
 30 82  1  0  0  0  0
 31 32  2  0  0  0  0
 31 83  1  0  0  0  0
 32 33  1  0  0  0  0
 32 84  1  0  0  0  0
 33 34  2  0  0  0  0
 33 35  1  0  0  0  0
 34 87  1  0  0  0  0
 35 36  2  0  0  0  0
 35 37  1  0  0  0  0
 37 85  1  0  0  0  0
M  CHG  2  13   1  34   1
M  END
>  <s_m_source_file>
BACE_70.smi

>  <i_m_source_file_index>
1

>  <i_lp_mmshare_version>
42013

>  <i_f3d_flags>
0

>  <s_epik_input>
W0NIM11bQ0hdKFtDSDNdKWMxW2NIXWMoW2NIXVtjSF1bY0hdMSlDKFtDSDNdKShbQ0gzXSlbTkhdW0NIMl1bQ0BASF0oW09IXSlbQ0BASF0oW05IXUMoPU8pYyhuMilbY0hdW2NIXVtjSF1jMjMpW0NIMl1bQ0BIXShbQ0gzXSlbQ0gyXVtDSDJdW0NIMl1bQ0gyXVtDSDJdW0NIMl1bQ0gyXVtOSF0z

>  <s_epik_cmdline>
J2VwaWtfcHl0aG9uJywgJy1waCcsICc3LjAnLCAnLXRuJywgJzgnLCAnLW1hJywgJzIwMCcsICctaW1hZScsICc8aW5maWxlLm1hZT4nLCAnLW9tYWUnLCAnPG91dGZpbGUubWFlPic=

>  <r_lp_tautomer_probability>
0.999994

>  <r_epik_Ionization_Penalty>
2.2448

>  <r_epik_Ionization_Penalty_Charging>
2.2445

>  <r_epik_Ionization_Penalty_Neutral>
0.0004

>  <r_epik_State_Penalty>
2.3843

>  <r_epik_Charging_Adjusted_Penalty>
4.62869

>  <i_epik_Tot_Q>
2

>  <i_epik_Tot_abs_Q>
2

>  <s_lp_Force_Field>
OPLS_2005

>  <r_lp_Energy>
49.2874

>  <b_lp_Chiralities_Consistent>
1

>  <s_lp_Variant>
BACE_70.smi:1-3

>  <chiral flag>
1

>  <version>
0

>  <s_i_glide_gridfile>
second_dock_grid_2

>  <i_i_glide_lignum>
141

>  <i_i_glide_rotatable_bonds>
7

>  <r_i_docking_score>
-1.74905

>  <r_i_glide_ligand_efficiency>
-0.0472717

>  <r_i_glide_ligand_efficiency_sa>
-0.15752

>  <r_i_glide_ligand_efficiency_ln>
-0.379328

>  <r_glide_XP_GScore>
-4.13335

>  <r_i_glide_gscore>
-4.13335

>  <r_i_glide_evdw>
-35.4411

>  <r_i_glide_ecoul>
-13.3897

>  <r_i_glide_energy>
-48.8308

>  <r_i_glide_einternal>
1.79349

>  <r_i_glide_emodel>
-69.0767

>  <r_glide_XP_HBond>
-1.03171

>  <i_i_glide_confnum>
1

>  <i_i_glide_posenum>
9

>  <r_i_glide_eff_state_penalty>
2.3843

>  <i_glide_XP_PoseRank>
1

$$$$
