BACE_55.smi:1
 OpenBabel09291822493D
Structure written by MMmdl.
 87 89  0  0  1  0  0  0  0  0999 V2000
   21.0227   40.9098   -7.8647 C   0  0  0  0  0  0  0  0  0  0  0  0
   20.5047   39.6521   -7.1618 C   0  0  0  0  0  0  0  0  0  0  0  0
   21.6472   38.6515   -6.9390 C   0  0  0  0  0  0  0  0  0  0  0  0
   19.3220   39.0675   -7.9251 C   0  0  0  0  0  0  0  0  0  0  0  0
   18.0246   39.5259   -7.6243 C   0  0  0  0  0  0  0  0  0  0  0  0
   16.8910   39.1082   -8.3614 C   0  0  0  0  0  0  0  0  0  0  0  0
   17.0753   38.1219   -9.3555 C   0  0  0  0  0  0  0  0  0  0  0  0
   18.3610   37.6297   -9.6401 C   0  0  0  0  0  0  0  0  0  0  0  0
   19.4865   38.1204   -8.9559 C   0  0  0  0  0  0  0  0  0  0  0  0
   15.5116   39.7377   -8.0860 C   0  0  0  0  0  0  0  0  0  0  0  0
   14.5830   39.6654   -9.3233 C   0  0  0  0  0  0  0  0  0  0  0  0
   14.8432   38.9840   -6.9330 C   0  0  0  0  0  0  0  0  0  0  0  0
   15.6738   41.1592   -7.6700 N   0  3  0  0  0  0  0  0  0  0  0  0
   16.2689   42.0721   -8.6814 C   0  0  0  0  0  0  0  0  0  0  0  0
   16.8774   43.3456   -8.0537 C   0  0  1  0  0  0  0  0  0  0  0  0
   17.9610   42.9496   -7.2399 O   0  0  0  0  0  0  0  0  0  0  0  0
   17.4940   44.4068   -9.0180 C   0  0  2  0  0  0  0  0  0  0  0  0
   17.4141   45.8085   -8.3485 C   0  0  0  0  0  0  0  0  0  0  0  0
   18.4186   46.9141   -8.7657 C   0  0  2  0  0  0  0  0  0  0  0  0
   18.5036   47.1745  -10.2780 C   0  0  0  0  0  0  0  0  0  0  0  0
   19.7978   46.8488   -8.0588 C   0  0  0  0  0  0  0  0  0  0  0  0
   20.7135   45.6656   -8.4191 C   0  0  0  0  0  0  0  0  0  0  0  0
   22.0978   45.7447   -7.7507 C   0  0  0  0  0  0  0  0  0  0  0  0
   23.0263   44.5940   -8.1806 C   0  0  0  0  0  0  0  0  0  0  0  0
   23.7015   44.8417   -9.5443 C   0  0  0  0  0  0  0  0  0  0  0  0
   24.2405   43.5733  -10.2405 C   0  0  0  0  0  0  0  0  0  0  0  0
   23.1619   42.5458  -10.6310 C   0  0  0  0  0  0  0  0  0  0  0  0
   22.0776   43.1750  -11.3683 N   0  0  0  0  0  0  0  0  0  0  0  0
   20.8269   42.5493  -11.4032 C   0  0  0  0  0  0  0  0  0  0  0  0
   19.6798   43.3655  -11.3541 C   0  0  0  0  0  0  0  0  0  0  0  0
   18.3864   42.8124  -11.4443 C   0  0  0  0  0  0  0  0  0  0  0  0
   18.2510   41.4184  -11.6238 C   0  0  0  0  0  0  0  0  0  0  0  0
   19.3916   40.5912  -11.6567 C   0  0  0  0  0  0  0  0  0  0  0  0
   20.6791   41.1526  -11.5420 C   0  0  0  0  0  0  0  0  0  0  0  0
   17.1743   43.7013  -11.4429 C   0  0  0  0  0  0  0  0  0  0  0  0
   16.4598   43.7492  -12.4400 O   0  0  0  0  0  0  0  0  0  0  0  0
   16.8648   44.4187  -10.3428 N   0  0  0  0  0  0  0  0  0  0  0  0
   16.1123   43.8234   -7.4433 H   0  0  0  0  0  0  0  0  0  0  0  0
   18.5392   44.1587   -9.1698 H   0  0  0  0  0  0  0  0  0  0  0  0
   17.9764   47.8276   -8.3658 H   0  0  0  0  0  0  0  0  0  0  0  0
   20.2410   41.6607   -7.9752 H   0  0  0  0  0  0  0  0  0  0  0  0
   21.3851   40.6561   -8.8582 H   0  0  0  0  0  0  0  0  0  0  0  0
   21.8450   41.3633   -7.3107 H   0  0  0  0  0  0  0  0  0  0  0  0
   20.1385   39.9446   -6.1760 H   0  0  0  0  0  0  0  0  0  0  0  0
   21.2764   37.7501   -6.4587 H   0  0  0  0  0  0  0  0  0  0  0  0
   22.4155   39.0774   -6.2937 H   0  0  0  0  0  0  0  0  0  0  0  0
   22.1283   38.3654   -7.8732 H   0  0  0  0  0  0  0  0  0  0  0  0
   17.9218   40.2514   -6.8401 H   0  0  0  0  0  0  0  0  0  0  0  0
   16.2477   37.7354   -9.9287 H   0  0  0  0  0  0  0  0  0  0  0  0
   18.4785   36.8951  -10.4206 H   0  0  0  0  0  0  0  0  0  0  0  0
   20.4644   37.7530   -9.2262 H   0  0  0  0  0  0  0  0  0  0  0  0
   14.2812   38.6415   -9.5430 H   0  0  0  0  0  0  0  0  0  0  0  0
   15.0606   40.0655  -10.2182 H   0  0  0  0  0  0  0  0  0  0  0  0
   13.6604   40.2219   -9.1760 H   0  0  0  0  0  0  0  0  0  0  0  0
   14.6823   37.9365   -7.1880 H   0  0  0  0  0  0  0  0  0  0  0  0
   13.8748   39.4117   -6.6731 H   0  0  0  0  0  0  0  0  0  0  0  0
   15.4650   39.0131   -6.0401 H   0  0  0  0  0  0  0  0  0  0  0  0
   14.7816   41.5168   -7.3585 H   0  0  0  0  0  0  0  0  0  0  0  0
   17.0462   41.5597   -9.2420 H   0  0  0  0  0  0  0  0  0  0  0  0
   15.4830   42.3348   -9.3903 H   0  0  0  0  0  0  0  0  0  0  0  0
   17.6578   42.5861   -6.4145 H   0  0  0  0  0  0  0  0  0  0  0  0
   16.4008   46.1926   -8.4799 H   0  0  0  0  0  0  0  0  0  0  0  0
   17.5218   45.6894   -7.2692 H   0  0  0  0  0  0  0  0  0  0  0  0
   18.9617   46.3475  -10.8125 H   0  0  0  0  0  0  0  0  0  0  0  0
   19.0977   48.0654  -10.4870 H   0  0  0  0  0  0  0  0  0  0  0  0
   17.5138   47.3366  -10.7039 H   0  0  0  0  0  0  0  0  0  0  0  0
   20.3336   47.7738   -8.2754 H   0  0  0  0  0  0  0  0  0  0  0  0
   19.6435   46.8527   -6.9793 H   0  0  0  0  0  0  0  0  0  0  0  0
   20.2556   44.7328   -8.0968 H   0  0  0  0  0  0  0  0  0  0  0  0
   20.8295   45.6104   -9.5001 H   0  0  0  0  0  0  0  0  0  0  0  0
   22.5749   46.7034   -7.9594 H   0  0  0  0  0  0  0  0  0  0  0  0
   21.9631   45.7022   -6.6693 H   0  0  0  0  0  0  0  0  0  0  0  0
   23.8049   44.4495   -7.4301 H   0  0  0  0  0  0  0  0  0  0  0  0
   22.4524   43.6680   -8.1903 H   0  0  0  0  0  0  0  0  0  0  0  0
   23.0135   45.3566  -10.2146 H   0  0  0  0  0  0  0  0  0  0  0  0
   24.5252   45.5421   -9.3991 H   0  0  0  0  0  0  0  0  0  0  0  0
   24.7722   43.8758  -11.1448 H   0  0  0  0  0  0  0  0  0  0  0  0
   24.9820   43.0905   -9.6039 H   0  0  0  0  0  0  0  0  0  0  0  0
   23.6040   41.7575  -11.2409 H   0  0  0  0  0  0  0  0  0  0  0  0
   22.7727   42.0675   -9.7351 H   0  0  0  0  0  0  0  0  0  0  0  0
   22.0787   44.1840  -11.3261 H   0  0  0  0  0  0  0  0  0  0  0  0
   19.8009   44.4329  -11.2753 H   0  0  0  0  0  0  0  0  0  0  0  0
   17.2722   40.9727  -11.7301 H   0  0  0  0  0  0  0  0  0  0  0  0
   19.2788   39.5240  -11.7816 H   0  0  0  0  0  0  0  0  0  0  0  0
   21.5470   40.5109  -11.5937 H   0  0  0  0  0  0  0  0  0  0  0  0
   16.0608   45.0207  -10.4363 H   0  0  0  0  0  0  0  0  0  0  0  0
   16.2803   41.1456   -6.8622 H   0  0  0  0  0  0  0  0  0  0  0  0
  1  2  1  0  0  0  0
  1 41  1  0  0  0  0
  1 42  1  0  0  0  0
  1 43  1  0  0  0  0
  2  3  1  0  0  0  0
  2  4  1  0  0  0  0
  2 44  1  0  0  0  0
  3 45  1  0  0  0  0
  3 46  1  0  0  0  0
  3 47  1  0  0  0  0
  4  9  1  0  0  0  0
  4  5  2  0  0  0  0
  5  6  1  0  0  0  0
  5 48  1  0  0  0  0
  6  7  2  0  0  0  0
  6 10  1  0  0  0  0
  7  8  1  0  0  0  0
  7 49  1  0  0  0  0
  8  9  2  0  0  0  0
  8 50  1  0  0  0  0
  9 51  1  0  0  0  0
 10 11  1  0  0  0  0
 10 12  1  0  0  0  0
 10 13  1  0  0  0  0
 11 52  1  0  0  0  0
 11 53  1  0  0  0  0
 11 54  1  0  0  0  0
 12 55  1  0  0  0  0
 12 56  1  0  0  0  0
 12 57  1  0  0  0  0
 13 14  1  0  0  0  0
 13 58  1  0  0  0  0
 13 87  1  0  0  0  0
 14 15  1  0  0  0  0
 14 59  1  0  0  0  0
 14 60  1  0  0  0  0
 15 38  1  1  0  0  0
 15 16  1  0  0  0  0
 15 17  1  0  0  0  0
 16 61  1  0  0  0  0
 17 39  1  6  0  0  0
 17 37  1  0  0  0  0
 17 18  1  0  0  0  0
 18 19  1  0  0  0  0
 18 62  1  0  0  0  0
 18 63  1  0  0  0  0
 19 40  1  1  0  0  0
 19 20  1  0  0  0  0
 19 21  1  0  0  0  0
 20 64  1  0  0  0  0
 20 65  1  0  0  0  0
 20 66  1  0  0  0  0
 21 22  1  0  0  0  0
 21 67  1  0  0  0  0
 21 68  1  0  0  0  0
 22 23  1  0  0  0  0
 22 69  1  0  0  0  0
 22 70  1  0  0  0  0
 23 24  1  0  0  0  0
 23 71  1  0  0  0  0
 23 72  1  0  0  0  0
 24 25  1  0  0  0  0
 24 73  1  0  0  0  0
 24 74  1  0  0  0  0
 25 26  1  0  0  0  0
 25 75  1  0  0  0  0
 25 76  1  0  0  0  0
 26 27  1  0  0  0  0
 26 77  1  0  0  0  0
 26 78  1  0  0  0  0
 27 28  1  0  0  0  0
 27 79  1  0  0  0  0
 27 80  1  0  0  0  0
 28 29  1  0  0  0  0
 28 81  1  0  0  0  0
 29 34  1  0  0  0  0
 29 30  2  0  0  0  0
 30 31  1  0  0  0  0
 30 82  1  0  0  0  0
 31 32  2  0  0  0  0
 31 35  1  0  0  0  0
 32 33  1  0  0  0  0
 32 83  1  0  0  0  0
 33 34  2  0  0  0  0
 33 84  1  0  0  0  0
 34 85  1  0  0  0  0
 35 36  2  0  0  0  0
 35 37  1  0  0  0  0
 37 86  1  0  0  0  0
M  CHG  1  13   1
M  END
>  <s_m_source_file>
BACE_55.smi

>  <i_m_source_file_index>
1

>  <i_lp_mmshare_version>
42013

>  <i_f3d_flags>
0

>  <s_epik_input>
W0NIM11bQ0hdKFtDSDNdKWMxW2NIXWMoW2NIXVtjSF1bY0hdMSlDKFtDSDNdKShbQ0gzXSlbTkhdW0NIMl1bQ0BASF0oW09IXSlbQ0BASF0oW05IXUMoPU8pYyhbY0hdYzIzKVtjSF1bY0hdW2NIXTMpW0NIMl1bQ0BIXShbQ0gzXSlbQ0gyXVtDSDJdW0NIMl1bQ0gyXVtDSDJdW0NIMl1bQ0gyXVtOSF0y

>  <s_epik_cmdline>
J2VwaWtfcHl0aG9uJywgJy1waCcsICc3LjAnLCAnLXRuJywgJzgnLCAnLW1hJywgJzIwMCcsICctaW1hZScsICc8aW5maWxlLm1hZT4nLCAnLW9tYWUnLCAnPG91dGZpbGUubWFlPic=

>  <r_epik_Ionization_Penalty>
0.0172

>  <r_epik_Ionization_Penalty_Charging>
0.0165

>  <r_epik_Ionization_Penalty_Neutral>
0.0007

>  <r_epik_State_Penalty>
0.0130

>  <r_epik_Charging_Adjusted_Penalty>
0.0295552

>  <i_epik_Tot_Q>
1

>  <i_epik_Tot_abs_Q>
1

>  <s_lp_Force_Field>
OPLS_2005

>  <r_lp_Energy>
44.7108

>  <b_lp_Chiralities_Consistent>
1

>  <s_lp_Variant>
BACE_55.smi:1-1

>  <chiral flag>
1

>  <version>
0

>  <s_i_glide_gridfile>
second_dock_grid_2

>  <i_i_glide_lignum>
106

>  <i_i_glide_rotatable_bonds>
7

>  <r_i_docking_score>
-6.02101

>  <r_i_glide_ligand_efficiency>
-0.16273

>  <r_i_glide_ligand_efficiency_sa>
-0.542252

>  <r_i_glide_ligand_efficiency_ln>
-1.30582

>  <r_glide_XP_GScore>
-6.03401

>  <r_i_glide_gscore>
-6.03401

>  <r_i_glide_evdw>
-33.8848

>  <r_i_glide_ecoul>
-17.3266

>  <r_i_glide_energy>
-51.2114

>  <r_i_glide_einternal>
2.55925

>  <r_i_glide_emodel>
-73.7801

>  <r_glide_XP_HBond>
-1.70411

>  <i_i_glide_confnum>
1

>  <i_i_glide_posenum>
7

>  <r_i_glide_eff_state_penalty>
0.013

>  <i_glide_XP_PoseRank>
1

$$$$
