BACE_121.smi:1
 OpenBabel09291822493D
Structure written by MMmdl.
 86 90  0  0  1  0  0  0  0  0999 V2000
   15.6805   37.5973   -9.2916 C   0  0  0  0  0  0  0  0  0  0  0  0
   16.1026   38.6769   -8.2729 C   0  0  0  0  0  0  0  0  0  0  0  0
   14.9633   38.8087   -7.2350 C   0  0  0  0  0  0  0  0  0  0  0  0
   17.3148   38.0746   -7.6397 N   0  3  0  0  0  0  0  0  0  0  0  0
   18.3629   38.8949   -6.9870 C   0  0  0  0  0  0  0  0  0  0  0  0
   19.5951   39.2325   -7.8943 C   0  0  1  0  0  0  0  0  0  0  0  0
   19.2396   40.0295   -9.0109 O   0  0  0  0  0  0  0  0  0  0  0  0
   20.7509   39.9748   -7.1532 C   0  0  2  0  0  0  0  0  0  0  0  0
   20.1873   40.9913   -6.1312 C   0  0  0  0  0  0  0  0  0  0  0  0
   21.0834   42.1358   -5.7206 C   0  0  0  0  0  0  0  0  0  0  0  0
   20.8516   43.4337   -6.2241 C   0  0  0  0  0  0  0  0  0  0  0  0
   21.6314   44.5212   -5.7839 C   0  0  0  0  0  0  0  0  0  0  0  0
   21.3313   45.9266   -6.2807 C   0  0  0  0  0  0  0  0  0  0  0  0
   22.5390   46.6812   -6.8698 C   0  0  0  0  0  0  0  0  0  0  0  0
   23.2709   45.9536   -8.0095 C   0  0  0  0  0  0  0  0  0  0  0  0
   22.4084   45.7525   -9.2713 C   0  0  0  0  0  0  0  0  0  0  0  0
   23.1483   45.1122  -10.3531 N   0  0  0  0  0  0  0  0  0  0  0  0
   23.6260   43.8019  -10.1959 C   0  0  0  0  0  0  0  0  0  0  0  0
   23.0246   42.8735   -9.3155 C   0  0  0  0  0  0  0  0  0  0  0  0
   23.5844   41.5862   -9.1576 C   0  0  0  0  0  0  0  0  0  0  0  0
   24.7669   41.2824   -9.8658 C   0  0  0  0  0  0  0  0  0  0  0  0
   25.3000   42.1643  -10.7450 N   0  3  0  0  0  0  0  0  0  0  0  0
   26.4639   41.7645  -11.5635 C   0  0  0  0  0  0  0  0  0  0  0  0
   27.8292   42.2393  -11.0787 C   0  0  0  0  0  0  0  0  0  0  0  0
   28.9723   41.7486  -11.7459 C   0  0  0  0  0  0  0  0  0  0  0  0
   30.2636   42.1517  -11.3561 C   0  0  0  0  0  0  0  0  0  0  0  0
   30.4233   43.0681  -10.3010 C   0  0  0  0  0  0  0  0  0  0  0  0
   29.2879   43.5745   -9.6396 C   0  0  0  0  0  0  0  0  0  0  0  0
   27.9964   43.1580  -10.0176 C   0  0  0  0  0  0  0  0  0  0  0  0
   24.7609   43.3952  -10.9270 C   0  0  0  0  0  0  0  0  0  0  0  0
   22.9650   40.5830   -8.2249 C   0  0  0  0  0  0  0  0  0  0  0  0
   23.6525   39.7501   -7.6411 O   0  0  0  0  0  0  0  0  0  0  0  0
   21.6305   40.6589   -8.1114 N   0  0  0  0  0  0  0  0  0  0  0  0
   22.6528   44.2926   -4.8398 C   0  0  0  0  0  0  0  0  0  0  0  0
   22.8737   42.9975   -4.3359 C   0  0  0  0  0  0  0  0  0  0  0  0
   22.0991   41.9153   -4.7764 C   0  0  0  0  0  0  0  0  0  0  0  0
   16.3468   40.0520   -8.9465 C   0  0  0  0  0  0  0  0  0  0  0  0
   16.4980   41.2265   -8.1628 C   0  0  0  0  0  0  0  0  0  0  0  0
   16.8620   42.4544   -8.7532 C   0  0  0  0  0  0  0  0  0  0  0  0
   17.2622   43.9697   -7.6719 Br  0  0  0  0  0  0  0  0  0  0  0  0
   16.9855   42.5540  -10.1489 C   0  0  0  0  0  0  0  0  0  0  0  0
   16.7606   41.4235  -10.9514 C   0  0  0  0  0  0  0  0  0  0  0  0
   16.4519   40.1861  -10.3569 C   0  0  0  0  0  0  0  0  0  0  0  0
   19.9964   38.3016   -8.2957 H   0  0  0  0  0  0  0  0  0  0  0  0
   21.3393   39.2431   -6.5957 H   0  0  0  0  0  0  0  0  0  0  0  0
   14.7042   37.8027   -9.7301 H   0  0  0  0  0  0  0  0  0  0  0  0
   15.6604   36.6149   -8.8197 H   0  0  0  0  0  0  0  0  0  0  0  0
   16.4067   37.4755  -10.0923 H   0  0  0  0  0  0  0  0  0  0  0  0
   14.0911   39.3006   -7.6707 H   0  0  0  0  0  0  0  0  0  0  0  0
   15.2578   39.3855   -6.3575 H   0  0  0  0  0  0  0  0  0  0  0  0
   14.6109   37.8404   -6.8744 H   0  0  0  0  0  0  0  0  0  0  0  0
   16.9232   37.4535   -6.9256 H   0  0  0  0  0  0  0  0  0  0  0  0
   17.9052   39.7497   -6.5043 H   0  0  0  0  0  0  0  0  0  0  0  0
   18.7340   38.2855   -6.1621 H   0  0  0  0  0  0  0  0  0  0  0  0
   18.4202   39.7328   -9.3800 H   0  0  0  0  0  0  0  0  0  0  0  0
   19.2924   41.4551   -6.5444 H   0  0  0  0  0  0  0  0  0  0  0  0
   19.8911   40.4568   -5.2278 H   0  0  0  0  0  0  0  0  0  0  0  0
   20.0576   43.5949   -6.9364 H   0  0  0  0  0  0  0  0  0  0  0  0
   20.5343   45.8835   -7.0214 H   0  0  0  0  0  0  0  0  0  0  0  0
   20.9279   46.4943   -5.4418 H   0  0  0  0  0  0  0  0  0  0  0  0
   22.2114   47.6597   -7.2184 H   0  0  0  0  0  0  0  0  0  0  0  0
   23.2566   46.8779   -6.0739 H   0  0  0  0  0  0  0  0  0  0  0  0
   24.1552   46.5316   -8.2805 H   0  0  0  0  0  0  0  0  0  0  0  0
   23.6455   44.9991   -7.6412 H   0  0  0  0  0  0  0  0  0  0  0  0
   21.5062   45.1811   -9.0483 H   0  0  0  0  0  0  0  0  0  0  0  0
   22.0668   46.7239   -9.6319 H   0  0  0  0  0  0  0  0  0  0  0  0
   23.6410   45.7253  -10.9889 H   0  0  0  0  0  0  0  0  0  0  0  0
   22.1444   43.1437   -8.7534 H   0  0  0  0  0  0  0  0  0  0  0  0
   25.2835   40.3398   -9.7752 H   0  0  0  0  0  0  0  0  0  0  0  0
   26.4662   40.6759  -11.6315 H   0  0  0  0  0  0  0  0  0  0  0  0
   26.2936   42.1502  -12.5701 H   0  0  0  0  0  0  0  0  0  0  0  0
   28.8649   41.0429  -12.5587 H   0  0  0  0  0  0  0  0  0  0  0  0
   31.1285   41.7606  -11.8743 H   0  0  0  0  0  0  0  0  0  0  0  0
   31.4117   43.3864  -10.0005 H   0  0  0  0  0  0  0  0  0  0  0  0
   29.4081   44.2827   -8.8331 H   0  0  0  0  0  0  0  0  0  0  0  0
   27.1531   43.5656   -9.4803 H   0  0  0  0  0  0  0  0  0  0  0  0
   25.2685   44.0349  -11.6361 H   0  0  0  0  0  0  0  0  0  0  0  0
   21.1509   41.3030   -8.7209 H   0  0  0  0  0  0  0  0  0  0  0  0
   23.2632   45.1076   -4.4789 H   0  0  0  0  0  0  0  0  0  0  0  0
   23.6563   42.8344   -3.6114 H   0  0  0  0  0  0  0  0  0  0  0  0
   22.2737   40.9254   -4.3797 H   0  0  0  0  0  0  0  0  0  0  0  0
   16.4008   41.1945   -7.0880 H   0  0  0  0  0  0  0  0  0  0  0  0
   17.2645   43.4933  -10.6014 H   0  0  0  0  0  0  0  0  0  0  0  0
   16.8637   41.4907  -12.0235 H   0  0  0  0  0  0  0  0  0  0  0  0
   16.3196   39.3513  -11.0252 H   0  0  0  0  0  0  0  0  0  0  0  0
   17.7671   37.4838   -8.3194 H   0  0  0  0  0  0  0  0  0  0  0  0
  1  2  1  0  0  0  0
  1 46  1  0  0  0  0
  1 47  1  0  0  0  0
  1 48  1  0  0  0  0
  2  3  1  0  0  0  0
  2  4  1  0  0  0  0
  2 37  1  0  0  0  0
  3 49  1  0  0  0  0
  3 50  1  0  0  0  0
  3 51  1  0  0  0  0
  4  5  1  0  0  0  0
  4 52  1  0  0  0  0
  4 86  1  0  0  0  0
  5  6  1  0  0  0  0
  5 53  1  0  0  0  0
  5 54  1  0  0  0  0
  6 44  1  6  0  0  0
  6  7  1  0  0  0  0
  6  8  1  0  0  0  0
  7 55  1  0  0  0  0
  8 45  1  1  0  0  0
  8 33  1  0  0  0  0
  8  9  1  0  0  0  0
  9 10  1  0  0  0  0
  9 56  1  0  0  0  0
  9 57  1  0  0  0  0
 10 36  1  0  0  0  0
 10 11  2  0  0  0  0
 11 12  1  0  0  0  0
 11 58  1  0  0  0  0
 12 13  1  0  0  0  0
 12 34  2  0  0  0  0
 13 14  1  0  0  0  0
 13 59  1  0  0  0  0
 13 60  1  0  0  0  0
 14 15  1  0  0  0  0
 14 61  1  0  0  0  0
 14 62  1  0  0  0  0
 15 16  1  0  0  0  0
 15 63  1  0  0  0  0
 15 64  1  0  0  0  0
 16 17  1  0  0  0  0
 16 65  1  0  0  0  0
 16 66  1  0  0  0  0
 17 18  1  0  0  0  0
 17 67  1  0  0  0  0
 18 30  1  0  0  0  0
 18 19  2  0  0  0  0
 19 20  1  0  0  0  0
 19 68  1  0  0  0  0
 20 21  2  0  0  0  0
 20 31  1  0  0  0  0
 21 22  1  0  0  0  0
 21 69  1  0  0  0  0
 22 23  1  0  0  0  0
 22 30  2  0  0  0  0
 23 24  1  0  0  0  0
 23 70  1  0  0  0  0
 23 71  1  0  0  0  0
 24 29  1  0  0  0  0
 24 25  2  0  0  0  0
 25 26  1  0  0  0  0
 25 72  1  0  0  0  0
 26 27  2  0  0  0  0
 26 73  1  0  0  0  0
 27 28  1  0  0  0  0
 27 74  1  0  0  0  0
 28 29  2  0  0  0  0
 28 75  1  0  0  0  0
 29 76  1  0  0  0  0
 30 77  1  0  0  0  0
 31 32  2  0  0  0  0
 31 33  1  0  0  0  0
 33 78  1  0  0  0  0
 34 35  1  0  0  0  0
 34 79  1  0  0  0  0
 35 36  2  0  0  0  0
 35 80  1  0  0  0  0
 36 81  1  0  0  0  0
 37 43  1  0  0  0  0
 37 38  2  0  0  0  0
 38 39  1  0  0  0  0
 38 82  1  0  0  0  0
 39 40  1  0  0  0  0
 39 41  2  0  0  0  0
 41 42  1  0  0  0  0
 41 83  1  0  0  0  0
 42 43  2  0  0  0  0
 42 84  1  0  0  0  0
 43 85  1  0  0  0  0
M  CHG  2   4   1  22   1
M  END
>  <s_m_source_file>
BACE_121.smi

>  <i_m_source_file_index>
1

>  <i_lp_mmshare_version>
42013

>  <i_f3d_flags>
0

>  <s_epik_input>
W2NIXTFbY0hdW2NIXWMoQnIpW2NIXWMxQyhbQ0gzXSkoW0NIM10pW05IXVtDSDJdW0NAQEhdKFtPSF0pW0NASF0oW0NIMl0yKVtOSF1DKD1PKWMoW2NIXVtuK10oW2NIXTMpW0NIMl1jNFtjSF1bY0hdW2NIXVtjSF1bY0hdNClbY0hdYzNbTkhdW0NIMl1bQ0gyXVtDSDJdW0NIMl1jKFtjSF1jMjUpW2NIXVtjSF1bY0hdNQ==

>  <s_epik_cmdline>
J2VwaWtfcHl0aG9uJywgJy1waCcsICc3LjAnLCAnLXRuJywgJzgnLCAnLW1hJywgJzIwMCcsICctaW1hZScsICc8aW5maWxlLm1hZT4nLCAnLW9tYWUnLCAnPG91dGZpbGUubWFlPic=

>  <r_lp_tautomer_probability>
1

>  <r_epik_Ionization_Penalty>
0.0270

>  <r_epik_Ionization_Penalty_Charging>
0.0270

>  <r_epik_Ionization_Penalty_Neutral>
0.0000

>  <r_epik_State_Penalty>
0.0221

>  <r_epik_Charging_Adjusted_Penalty>
0.0490488

>  <i_epik_Tot_Q>
2

>  <i_epik_Tot_abs_Q>
2

>  <s_lp_Force_Field>
OPLS_2005

>  <r_lp_Energy>
36.4735

>  <b_lp_Chiralities_Consistent>
1

>  <s_lp_Variant>
BACE_121.smi:1-1

>  <chiral flag>
1

>  <version>
0

>  <s_i_glide_gridfile>
second_dock_grid_2

>  <i_i_glide_lignum>
247

>  <i_i_glide_rotatable_bonds>
8

>  <r_i_docking_score>
-4.91686

>  <r_i_glide_ligand_efficiency>
-0.114346

>  <r_i_glide_ligand_efficiency_sa>
-0.400598

>  <r_i_glide_ligand_efficiency_ln>
-1.03269

>  <r_glide_XP_GScore>
-4.93896

>  <r_i_glide_gscore>
-4.93896

>  <r_i_glide_evdw>
-46.2843

>  <r_i_glide_ecoul>
-12.8338

>  <r_i_glide_energy>
-59.1182

>  <r_i_glide_einternal>
6.15549

>  <r_i_glide_emodel>
-77.9671

>  <r_glide_XP_HBond>
-1.33

>  <i_i_glide_confnum>
1

>  <i_i_glide_posenum>
9

>  <r_i_glide_eff_state_penalty>
0.0221

>  <i_glide_XP_PoseRank>
1

$$$$
