BACE_61.smi:1
 OpenBabel09291822493D
Structure written by MMmdl.
 86 88  0  0  1  0  0  0  0  0999 V2000
   20.0237   42.7388   -1.6098 C   0  0  0  0  0  0  0  0  0  0  0  0
   20.4613   42.6280   -2.9514 O   0  0  0  0  0  0  0  0  0  0  0  0
   20.9411   41.3320   -3.2737 C   0  0  0  0  0  0  0  0  0  0  0  0
   21.4201   41.2594   -4.7100 C   0  0  0  0  0  0  0  0  0  0  0  0
   21.0988   40.1501   -5.5166 C   0  0  0  0  0  0  0  0  0  0  0  0
   21.5497   40.0567   -6.8473 C   0  0  0  0  0  0  0  0  0  0  0  0
   22.2923   41.1289   -7.3905 C   0  0  0  0  0  0  0  0  0  0  0  0
   22.5567   42.2770   -6.6129 C   0  0  0  0  0  0  0  0  0  0  0  0
   22.1802   42.3110   -5.2557 C   0  0  0  0  0  0  0  0  0  0  0  0
   23.2020   43.4601   -7.2574 C   0  0  0  0  0  0  0  0  0  0  0  0
   24.3774   43.4021   -7.6059 O   0  0  0  0  0  0  0  0  0  0  0  0
   22.4561   44.5556   -7.4937 N   0  0  0  0  0  0  0  0  0  0  0  0
   21.0541   44.8924   -7.1790 C   0  0  1  0  0  0  0  0  0  0  0  0
   19.9955   43.8326   -7.5961 C   0  0  0  0  0  0  0  0  0  0  0  0
   20.0041   43.3769   -9.0743 C   0  0  2  0  0  0  0  0  0  0  0  0
   19.6454   44.5319  -10.0298 C   0  0  0  0  0  0  0  0  0  0  0  0
   19.0399   42.1786   -9.2261 C   0  0  0  0  0  0  0  0  0  0  0  0
   18.9135   41.6010  -10.6489 C   0  0  0  0  0  0  0  0  0  0  0  0
   18.1135   40.2866  -10.7114 C   0  0  0  0  0  0  0  0  0  0  0  0
   18.7111   39.0744   -9.9634 C   0  0  0  0  0  0  0  0  0  0  0  0
   20.0148   38.5134  -10.5624 C   0  0  0  0  0  0  0  0  0  0  0  0
   21.3238   39.1697  -10.0748 C   0  0  0  0  0  0  0  0  0  0  0  0
   21.9312   38.5559   -8.8008 C   0  0  0  0  0  0  0  0  0  0  0  0
   21.2116   38.9123   -7.5846 N   0  0  0  0  0  0  0  0  0  0  0  0
   20.8743   45.4287   -5.7302 C   0  0  2  0  0  0  0  0  0  0  0  0
   19.5738   45.9842   -5.6453 O   0  0  0  0  0  0  0  0  0  0  0  0
   21.8537   46.5798   -5.4076 C   0  0  0  0  0  0  0  0  0  0  0  0
   23.0507   46.1724   -4.6569 N   0  0  0  0  0  0  0  0  0  0  0  0
   24.1248   47.1768   -4.5989 C   0  0  0  0  0  0  0  0  0  0  0  0
   23.7025   48.5005   -3.9752 C   0  0  0  0  0  0  0  0  0  0  0  0
   24.1147   48.8750   -2.6794 C   0  0  0  0  0  0  0  0  0  0  0  0
   23.6601   50.0918   -2.1072 C   0  0  0  0  0  0  0  0  0  0  0  0
   22.7590   50.8957   -2.8394 C   0  0  0  0  0  0  0  0  0  0  0  0
   22.3607   50.5472   -4.1488 C   0  0  0  0  0  0  0  0  0  0  0  0
   22.8774   49.3633   -4.7163 C   0  0  0  0  0  0  0  0  0  0  0  0
   21.4892   51.3662   -4.8357 O   0  0  0  0  0  0  0  0  0  0  0  0
   20.8593   50.8393   -5.9965 C   0  0  0  0  0  0  0  0  0  0  0  0
   24.0181   50.5300   -0.8499 O   0  0  0  0  0  0  0  0  0  0  0  0
   25.0743   49.8551   -0.1787 C   0  0  0  0  0  0  0  0  0  0  0  0
   20.8711   45.7566   -7.8164 H   0  0  0  0  0  0  0  0  0  0  0  0
   21.0032   43.0257   -9.3325 H   0  0  0  0  0  0  0  0  0  0  0  0
   20.9257   44.6406   -4.9811 H   0  0  0  0  0  0  0  0  0  0  0  0
   19.6603   43.7480   -1.4263 H   0  0  0  0  0  0  0  0  0  0  0  0
   20.8399   42.5457   -0.9128 H   0  0  0  0  0  0  0  0  0  0  0  0
   19.2091   42.0448   -1.4016 H   0  0  0  0  0  0  0  0  0  0  0  0
   21.7727   41.0670   -2.6176 H   0  0  0  0  0  0  0  0  0  0  0  0
   20.1500   40.5969   -3.1119 H   0  0  0  0  0  0  0  0  0  0  0  0
   20.5015   39.3510   -5.1134 H   0  0  0  0  0  0  0  0  0  0  0  0
   22.6236   41.1105   -8.4161 H   0  0  0  0  0  0  0  0  0  0  0  0
   22.4345   43.1581   -4.6371 H   0  0  0  0  0  0  0  0  0  0  0  0
   22.9611   45.2886   -7.9691 H   0  0  0  0  0  0  0  0  0  0  0  0
   20.0665   42.9655   -6.9431 H   0  0  0  0  0  0  0  0  0  0  0  0
   18.9986   44.2246   -7.3962 H   0  0  0  0  0  0  0  0  0  0  0  0
   18.6472   44.9213   -9.8276 H   0  0  0  0  0  0  0  0  0  0  0  0
   19.6749   44.2168  -11.0727 H   0  0  0  0  0  0  0  0  0  0  0  0
   20.3505   45.3572   -9.9456 H   0  0  0  0  0  0  0  0  0  0  0  0
   19.3873   41.3944   -8.5546 H   0  0  0  0  0  0  0  0  0  0  0  0
   18.0458   42.4530   -8.8689 H   0  0  0  0  0  0  0  0  0  0  0  0
   18.3988   42.3266  -11.2770 H   0  0  0  0  0  0  0  0  0  0  0  0
   19.8911   41.4714  -11.1091 H   0  0  0  0  0  0  0  0  0  0  0  0
   17.1134   40.4716  -10.3181 H   0  0  0  0  0  0  0  0  0  0  0  0
   17.9718   40.0142  -11.7568 H   0  0  0  0  0  0  0  0  0  0  0  0
   18.8251   39.2747   -8.8986 H   0  0  0  0  0  0  0  0  0  0  0  0
   17.9661   38.2778  -10.0153 H   0  0  0  0  0  0  0  0  0  0  0  0
   20.0587   37.4466  -10.3480 H   0  0  0  0  0  0  0  0  0  0  0  0
   19.9574   38.5824  -11.6483 H   0  0  0  0  0  0  0  0  0  0  0  0
   22.0605   39.0434  -10.8647 H   0  0  0  0  0  0  0  0  0  0  0  0
   21.2156   40.2434   -9.9553 H   0  0  0  0  0  0  0  0  0  0  0  0
   21.9654   37.4695   -8.8895 H   0  0  0  0  0  0  0  0  0  0  0  0
   22.9688   38.8741   -8.7016 H   0  0  0  0  0  0  0  0  0  0  0  0
   20.6669   38.1901   -7.1343 H   0  0  0  0  0  0  0  0  0  0  0  0
   18.9737   45.3671   -6.0401 H   0  0  0  0  0  0  0  0  0  0  0  0
   22.1439   47.0600   -6.3425 H   0  0  0  0  0  0  0  0  0  0  0  0
   21.3259   47.3447   -4.8406 H   0  0  0  0  0  0  0  0  0  0  0  0
   23.4268   45.3052   -5.0323 H   0  0  0  0  0  0  0  0  0  0  0  0
   24.9682   46.7755   -4.0362 H   0  0  0  0  0  0  0  0  0  0  0  0
   24.5023   47.3721   -5.6033 H   0  0  0  0  0  0  0  0  0  0  0  0
   24.7716   48.2103   -2.1387 H   0  0  0  0  0  0  0  0  0  0  0  0
   22.3809   51.8037   -2.3920 H   0  0  0  0  0  0  0  0  0  0  0  0
   22.6194   49.0753   -5.7219 H   0  0  0  0  0  0  0  0  0  0  0  0
   20.1133   51.5429   -6.3671 H   0  0  0  0  0  0  0  0  0  0  0  0
   20.3462   49.9008   -5.7780 H   0  0  0  0  0  0  0  0  0  0  0  0
   21.5721   50.6783   -6.8049 H   0  0  0  0  0  0  0  0  0  0  0  0
   25.2973   50.3745    0.7540 H   0  0  0  0  0  0  0  0  0  0  0  0
   25.9855   49.8472   -0.7784 H   0  0  0  0  0  0  0  0  0  0  0  0
   24.7977   48.8307    0.0717 H   0  0  0  0  0  0  0  0  0  0  0  0
  1  2  1  0  0  0  0
  1 43  1  0  0  0  0
  1 44  1  0  0  0  0
  1 45  1  0  0  0  0
  2  3  1  0  0  0  0
  3  4  1  0  0  0  0
  3 46  1  0  0  0  0
  3 47  1  0  0  0  0
  4  9  1  0  0  0  0
  4  5  2  0  0  0  0
  5  6  1  0  0  0  0
  5 48  1  0  0  0  0
  6 24  1  0  0  0  0
  6  7  2  0  0  0  0
  7  8  1  0  0  0  0
  7 49  1  0  0  0  0
  8  9  2  0  0  0  0
  8 10  1  0  0  0  0
  9 50  1  0  0  0  0
 10 11  2  0  0  0  0
 10 12  1  0  0  0  0
 12 13  1  0  0  0  0
 12 51  1  0  0  0  0
 13 40  1  6  0  0  0
 13 14  1  0  0  0  0
 13 25  1  0  0  0  0
 14 15  1  0  0  0  0
 14 52  1  0  0  0  0
 14 53  1  0  0  0  0
 15 41  1  6  0  0  0
 15 16  1  0  0  0  0
 15 17  1  0  0  0  0
 16 54  1  0  0  0  0
 16 55  1  0  0  0  0
 16 56  1  0  0  0  0
 17 18  1  0  0  0  0
 17 57  1  0  0  0  0
 17 58  1  0  0  0  0
 18 19  1  0  0  0  0
 18 59  1  0  0  0  0
 18 60  1  0  0  0  0
 19 20  1  0  0  0  0
 19 61  1  0  0  0  0
 19 62  1  0  0  0  0
 20 21  1  0  0  0  0
 20 63  1  0  0  0  0
 20 64  1  0  0  0  0
 21 22  1  0  0  0  0
 21 65  1  0  0  0  0
 21 66  1  0  0  0  0
 22 23  1  0  0  0  0
 22 67  1  0  0  0  0
 22 68  1  0  0  0  0
 23 24  1  0  0  0  0
 23 69  1  0  0  0  0
 23 70  1  0  0  0  0
 24 71  1  0  0  0  0
 25 42  1  1  0  0  0
 25 26  1  0  0  0  0
 25 27  1  0  0  0  0
 26 72  1  0  0  0  0
 27 28  1  0  0  0  0
 27 73  1  0  0  0  0
 27 74  1  0  0  0  0
 28 29  1  0  0  0  0
 28 75  1  0  0  0  0
 29 30  1  0  0  0  0
 29 76  1  0  0  0  0
 29 77  1  0  0  0  0
 30 35  1  0  0  0  0
 30 31  2  0  0  0  0
 31 32  1  0  0  0  0
 31 78  1  0  0  0  0
 32 33  2  0  0  0  0
 32 38  1  0  0  0  0
 33 34  1  0  0  0  0
 33 79  1  0  0  0  0
 34 35  2  0  0  0  0
 34 36  1  0  0  0  0
 35 80  1  0  0  0  0
 36 37  1  0  0  0  0
 37 81  1  0  0  0  0
 37 82  1  0  0  0  0
 37 83  1  0  0  0  0
 38 39  1  0  0  0  0
 39 84  1  0  0  0  0
 39 85  1  0  0  0  0
 39 86  1  0  0  0  0
M  END
>  <s_m_source_file>
BACE_61.smi

>  <i_m_source_file_index>
1

>  <i_lp_mmshare_version>
42013

>  <i_f3d_flags>
0

>  <s_epik_input>
W05IXTFbQ0gyXVtDSDJdW0NIMl1bQ0gyXVtDSDJdW0NIMl1bQ0gyXVtDQEBIXShbQ0gzXSlbQ0gyXVtDQEhdKFtOSF1DKD1PKWMoW2NIXTIpW2NIXWMoW2NIXWMxMilbQ0gyXU9bQ0gzXSlbQ0BIXShbT0hdKVtDSDJdW05IXVtDSDJdYzNbY0hdYyhPW0NIM10pW2NIXWMoW2NIXTMpT1tDSDNd

>  <s_epik_cmdline>
J2VwaWtfcHl0aG9uJywgJy1waCcsICc3LjAnLCAnLXRuJywgJzgnLCAnLW1hJywgJzIwMCcsICctaW1hZScsICc8aW5maWxlLm1hZT4nLCAnLW9tYWUnLCAnPG91dGZpbGUubWFlPic=

>  <r_lp_tautomer_probability>
1

>  <r_epik_Ionization_Penalty>
2.0770

>  <r_epik_Ionization_Penalty_Charging>
0.0000

>  <r_epik_Ionization_Penalty_Neutral>
2.0770

>  <r_epik_State_Penalty>
2.2107

>  <r_epik_Charging_Adjusted_Penalty>
2.21072

>  <i_epik_Tot_Q>
0

>  <i_epik_Tot_abs_Q>
0

>  <s_lp_Force_Field>
OPLS_2005

>  <r_lp_Energy>
57.8544

>  <b_lp_Chiralities_Consistent>
1

>  <s_lp_Variant>
BACE_61.smi:1-2

>  <chiral flag>
1

>  <version>
0

>  <s_i_glide_gridfile>
second_dock_grid_2

>  <i_i_glide_lignum>
122

>  <i_i_glide_rotatable_bonds>
10

>  <r_i_docking_score>
-2.93717

>  <r_i_glide_ligand_efficiency>
-0.0753122

>  <r_i_glide_ligand_efficiency_sa>
-0.255399

>  <r_i_glide_ligand_efficiency_ln>
-0.629814

>  <r_glide_XP_GScore>
-5.14787

>  <r_i_glide_gscore>
-5.14787

>  <r_i_glide_evdw>
-44.2158

>  <r_i_glide_ecoul>
-5.66302

>  <r_i_glide_energy>
-49.8788

>  <r_i_glide_einternal>
8.05748

>  <r_i_glide_emodel>
-70.9015

>  <r_glide_XP_HBond>
-1.3811

>  <i_i_glide_confnum>
1

>  <i_i_glide_posenum>
42

>  <r_i_glide_eff_state_penalty>
2.2107

>  <i_glide_XP_PoseRank>
1

$$$$
