BACE_76.smi:1
 OpenBabel09291822493D
Structure written by MMmdl.
 79 81  0  0  1  0  0  0  0  0999 V2000
   18.7447   47.4913   -6.5174 C   0  0  0  0  0  0  0  0  0  0  0  0
   19.4085   46.5636   -5.6774 O   0  0  0  0  0  0  0  0  0  0  0  0
   20.4431   45.8648   -6.3484 C   0  0  0  0  0  0  0  0  0  0  0  0
   19.8796   44.8772   -7.3495 C   0  0  0  0  0  0  0  0  0  0  0  0
   18.6567   44.2294   -7.0852 C   0  0  0  0  0  0  0  0  0  0  0  0
   18.1126   43.3132   -8.0083 C   0  0  0  0  0  0  0  0  0  0  0  0
   18.8217   43.0329   -9.2003 C   0  0  0  0  0  0  0  0  0  0  0  0
   20.0605   43.6612   -9.4613 C   0  0  0  0  0  0  0  0  0  0  0  0
   20.5746   44.5986   -8.5426 C   0  0  0  0  0  0  0  0  0  0  0  0
   20.8185   43.3726  -10.7234 C   0  0  0  0  0  0  0  0  0  0  0  0
   21.0539   44.2827  -11.5148 O   0  0  0  0  0  0  0  0  0  0  0  0
   21.2381   42.1146  -10.9531 N   0  0  0  0  0  0  0  0  0  0  0  0
   21.2267   40.9629  -10.0430 C   0  0  1  0  0  0  0  0  0  0  0  0
   20.1871   39.9333  -10.5524 C   0  0  0  0  0  0  0  0  0  0  0  0
   19.3848   39.2037   -9.4487 C   0  0  2  0  0  0  0  0  0  0  0  0
   20.2650   38.3289   -8.5390 C   0  0  0  0  0  0  0  0  0  0  0  0
   18.2346   38.3838  -10.0783 C   0  0  0  0  0  0  0  0  0  0  0  0
   17.1189   37.9857   -9.0987 C   0  0  0  0  0  0  0  0  0  0  0  0
   16.5976   39.1705   -8.5259 O   0  0  0  0  0  0  0  0  0  0  0  0
   15.3484   39.0132   -7.8836 C   0  0  0  0  0  0  0  0  0  0  0  0
   14.9645   40.3324   -7.1943 C   0  0  0  0  0  0  0  0  0  0  0  0
   14.7540   41.5272   -8.1505 C   0  0  0  0  0  0  0  0  0  0  0  0
   16.0429   42.1422   -8.7308 C   0  0  0  0  0  0  0  0  0  0  0  0
   16.8848   42.7149   -7.6897 N   0  0  0  0  0  0  0  0  0  0  0  0
   22.6557   40.3611   -9.9400 C   0  0  2  0  0  0  0  0  0  0  0  0
   22.6773   39.4787   -8.8355 O   0  0  0  0  0  0  0  0  0  0  0  0
   23.7919   41.3951   -9.7879 C   0  0  0  0  0  0  0  0  0  0  0  0
   23.7777   42.3665  -10.8775 N   0  0  0  0  0  0  0  0  0  0  0  0
   24.6889   43.4850  -10.6620 C   0  0  0  0  0  0  0  0  0  0  0  0
   26.0445   43.2465  -11.2984 C   0  0  0  0  0  0  0  0  0  0  0  0
   26.5907   44.2089  -12.1736 C   0  0  0  0  0  0  0  0  0  0  0  0
   27.8507   43.9998  -12.7752 C   0  0  0  0  0  0  0  0  0  0  0  0
   28.5698   42.8206  -12.4813 C   0  0  0  0  0  0  0  0  0  0  0  0
   28.0292   41.8581  -11.6073 C   0  0  0  0  0  0  0  0  0  0  0  0
   26.7681   42.0677  -11.0175 C   0  0  0  0  0  0  0  0  0  0  0  0
   26.2569   41.1354  -10.1778 F   0  0  0  0  0  0  0  0  0  0  0  0
   28.4273   45.0485  -13.7151 C   0  0  0  0  0  0  0  0  0  0  0  0
   29.3465   44.5224  -14.5256 F   0  0  0  0  0  0  0  0  0  0  0  0
   27.4631   45.5787  -14.4683 F   0  0  0  0  0  0  0  0  0  0  0  0
   28.9936   46.0177  -12.9972 F   0  0  0  0  0  0  0  0  0  0  0  0
   20.9211   41.2717   -9.0428 H   0  0  0  0  0  0  0  0  0  0  0  0
   18.9392   39.9791   -8.8246 H   0  0  0  0  0  0  0  0  0  0  0  0
   22.8498   39.7550  -10.8239 H   0  0  0  0  0  0  0  0  0  0  0  0
   17.9594   47.9961   -5.9549 H   0  0  0  0  0  0  0  0  0  0  0  0
   18.2810   46.9913   -7.3686 H   0  0  0  0  0  0  0  0  0  0  0  0
   19.4341   48.2505   -6.8888 H   0  0  0  0  0  0  0  0  0  0  0  0
   21.0878   46.5696   -6.8761 H   0  0  0  0  0  0  0  0  0  0  0  0
   21.0679   45.3384   -5.6249 H   0  0  0  0  0  0  0  0  0  0  0  0
   18.1294   44.4460   -6.1671 H   0  0  0  0  0  0  0  0  0  0  0  0
   18.4316   42.3320   -9.9225 H   0  0  0  0  0  0  0  0  0  0  0  0
   21.5144   45.0923   -8.7447 H   0  0  0  0  0  0  0  0  0  0  0  0
   21.7117   41.9624  -11.8316 H   0  0  0  0  0  0  0  0  0  0  0  0
   19.4633   40.4572  -11.1790 H   0  0  0  0  0  0  0  0  0  0  0  0
   20.6614   39.2083  -11.2151 H   0  0  0  0  0  0  0  0  0  0  0  0
   20.8086   37.5786   -9.1135 H   0  0  0  0  0  0  0  0  0  0  0  0
   19.6717   37.8072   -7.7892 H   0  0  0  0  0  0  0  0  0  0  0  0
   20.9910   38.9301   -7.9927 H   0  0  0  0  0  0  0  0  0  0  0  0
   17.7695   38.9658  -10.8748 H   0  0  0  0  0  0  0  0  0  0  0  0
   18.6376   37.4920  -10.5593 H   0  0  0  0  0  0  0  0  0  0  0  0
   16.3388   37.4520   -9.6440 H   0  0  0  0  0  0  0  0  0  0  0  0
   17.4819   37.3187   -8.3167 H   0  0  0  0  0  0  0  0  0  0  0  0
   14.5859   38.7251   -8.6088 H   0  0  0  0  0  0  0  0  0  0  0  0
   15.4140   38.2164   -7.1411 H   0  0  0  0  0  0  0  0  0  0  0  0
   14.0333   40.1651   -6.6523 H   0  0  0  0  0  0  0  0  0  0  0  0
   15.7055   40.5810   -6.4339 H   0  0  0  0  0  0  0  0  0  0  0  0
   14.1019   41.2205   -8.9688 H   0  0  0  0  0  0  0  0  0  0  0  0
   14.2101   42.3085   -7.6183 H   0  0  0  0  0  0  0  0  0  0  0  0
   16.5934   41.4002   -9.3048 H   0  0  0  0  0  0  0  0  0  0  0  0
   15.7787   42.9365   -9.4297 H   0  0  0  0  0  0  0  0  0  0  0  0
   16.4271   43.0075   -6.8383 H   0  0  0  0  0  0  0  0  0  0  0  0
   23.4456   38.9328   -8.9028 H   0  0  0  0  0  0  0  0  0  0  0  0
   23.6602   41.9280   -8.8454 H   0  0  0  0  0  0  0  0  0  0  0  0
   24.7609   40.8976   -9.7294 H   0  0  0  0  0  0  0  0  0  0  0  0
   24.0227   41.8966  -11.7434 H   0  0  0  0  0  0  0  0  0  0  0  0
   24.2651   44.4018  -11.0738 H   0  0  0  0  0  0  0  0  0  0  0  0
   24.8233   43.6578   -9.5934 H   0  0  0  0  0  0  0  0  0  0  0  0
   26.0411   45.1145  -12.3844 H   0  0  0  0  0  0  0  0  0  0  0  0
   29.5404   42.6474  -12.9222 H   0  0  0  0  0  0  0  0  0  0  0  0
   28.5840   40.9578  -11.3877 H   0  0  0  0  0  0  0  0  0  0  0  0
  1  2  1  0  0  0  0
  1 44  1  0  0  0  0
  1 45  1  0  0  0  0
  1 46  1  0  0  0  0
  2  3  1  0  0  0  0
  3  4  1  0  0  0  0
  3 47  1  0  0  0  0
  3 48  1  0  0  0  0
  4  9  1  0  0  0  0
  4  5  2  0  0  0  0
  5  6  1  0  0  0  0
  5 49  1  0  0  0  0
  6 24  1  0  0  0  0
  6  7  2  0  0  0  0
  7  8  1  0  0  0  0
  7 50  1  0  0  0  0
  8  9  2  0  0  0  0
  8 10  1  0  0  0  0
  9 51  1  0  0  0  0
 10 11  2  0  0  0  0
 10 12  1  0  0  0  0
 12 13  1  0  0  0  0
 12 52  1  0  0  0  0
 13 41  1  1  0  0  0
 13 14  1  0  0  0  0
 13 25  1  0  0  0  0
 14 15  1  0  0  0  0
 14 53  1  0  0  0  0
 14 54  1  0  0  0  0
 15 42  1  1  0  0  0
 15 16  1  0  0  0  0
 15 17  1  0  0  0  0
 16 55  1  0  0  0  0
 16 56  1  0  0  0  0
 16 57  1  0  0  0  0
 17 18  1  0  0  0  0
 17 58  1  0  0  0  0
 17 59  1  0  0  0  0
 18 19  1  0  0  0  0
 18 60  1  0  0  0  0
 18 61  1  0  0  0  0
 19 20  1  0  0  0  0
 20 21  1  0  0  0  0
 20 62  1  0  0  0  0
 20 63  1  0  0  0  0
 21 22  1  0  0  0  0
 21 64  1  0  0  0  0
 21 65  1  0  0  0  0
 22 23  1  0  0  0  0
 22 66  1  0  0  0  0
 22 67  1  0  0  0  0
 23 24  1  0  0  0  0
 23 68  1  0  0  0  0
 23 69  1  0  0  0  0
 24 70  1  0  0  0  0
 25 43  1  6  0  0  0
 25 26  1  0  0  0  0
 25 27  1  0  0  0  0
 26 71  1  0  0  0  0
 27 28  1  0  0  0  0
 27 72  1  0  0  0  0
 27 73  1  0  0  0  0
 28 29  1  0  0  0  0
 28 74  1  0  0  0  0
 29 30  1  0  0  0  0
 29 75  1  0  0  0  0
 29 76  1  0  0  0  0
 30 35  1  0  0  0  0
 30 31  2  0  0  0  0
 31 32  1  0  0  0  0
 31 77  1  0  0  0  0
 32 33  2  0  0  0  0
 32 37  1  0  0  0  0
 33 34  1  0  0  0  0
 33 78  1  0  0  0  0
 34 35  2  0  0  0  0
 34 79  1  0  0  0  0
 35 36  1  0  0  0  0
 37 38  1  0  0  0  0
 37 39  1  0  0  0  0
 37 40  1  0  0  0  0
M  END
>  <s_m_source_file>
BACE_76.smi

>  <i_m_source_file_index>
1

>  <i_lp_mmshare_version>
42013

>  <i_f3d_flags>
0

>  <s_epik_input>
W05IXTFbQ0gyXVtDSDJdW0NIMl1bQ0gyXU9bQ0gyXVtDSDJdW0NAQEhdKFtDSDNdKVtDSDJdW0NASF0oW05IXUMoPU8pYyhbY0hdMilbY0hdYyhbY0hdYzEyKVtDSDJdT1tDSDNdKVtDQEhdKFtPSF0pW0NIMl1bTkhdW0NIMl1jM1tjSF1jKEMoRikoRilGKVtjSF1bY0hdYzNG

>  <s_epik_cmdline>
J2VwaWtfcHl0aG9uJywgJy1waCcsICc3LjAnLCAnLXRuJywgJzgnLCAnLW1hJywgJzIwMCcsICctaW1hZScsICc8aW5maWxlLm1hZT4nLCAnLW9tYWUnLCAnPG91dGZpbGUubWFlPic=

>  <r_epik_Ionization_Penalty>
1.8892

>  <r_epik_Ionization_Penalty_Charging>
0.0000

>  <r_epik_Ionization_Penalty_Neutral>
1.8892

>  <r_epik_State_Penalty>
2.0091

>  <r_epik_Charging_Adjusted_Penalty>
2.00907

>  <i_epik_Tot_Q>
0

>  <i_epik_Tot_abs_Q>
0

>  <s_lp_Force_Field>
OPLS_2005

>  <r_lp_Energy>
48.8436

>  <b_lp_Chiralities_Consistent>
1

>  <s_lp_Variant>
BACE_76.smi:1-2

>  <chiral flag>
1

>  <version>
0

>  <s_i_glide_gridfile>
second_dock_grid_2

>  <i_i_glide_lignum>
153

>  <i_i_glide_rotatable_bonds>
9

>  <r_i_docking_score>
-1.91115

>  <r_i_glide_ligand_efficiency>
-0.0477788

>  <r_i_glide_ligand_efficiency_sa>
-0.163401

>  <r_i_glide_ligand_efficiency_ln>
-0.407593

>  <r_glide_XP_GScore>
-3.92025

>  <r_i_glide_gscore>
-3.92025

>  <r_i_glide_evdw>
-36.1792

>  <r_i_glide_ecoul>
-9.82776

>  <r_i_glide_energy>
-46.007

>  <r_i_glide_einternal>
3.93608

>  <r_i_glide_emodel>
-70.106

>  <r_glide_XP_HBond>
-1.82938

>  <i_i_glide_confnum>
1

>  <i_i_glide_posenum>
5

>  <r_i_glide_eff_state_penalty>
2.0091

>  <i_glide_XP_PoseRank>
1

$$$$
