BACE_79.smi:1
 OpenBabel09291822493D
Structure written by MMmdl.
 84 86  0  0  1  0  0  0  0  0999 V2000
   14.7562   38.1512   -8.4008 C   0  0  0  0  0  0  0  0  0  0  0  0
   15.4279   39.5193   -8.2835 C   0  0  2  0  0  0  0  0  0  0  0  0
   14.6990   40.5237   -9.0523 N   0  0  0  0  0  0  0  0  0  0  0  0
   15.1650   41.8854   -8.7959 C   0  0  0  0  0  0  0  0  0  0  0  0
   15.7703   42.4911  -10.0708 C   0  0  1  0  0  0  0  0  0  0  0  0
   14.6741   42.9498  -10.8459 O   0  0  0  0  0  0  0  0  0  0  0  0
   16.7824   43.6426   -9.8184 C   0  0  2  0  0  0  0  0  0  0  0  0
   16.1835   44.7485   -8.8960 C   0  0  0  0  0  0  0  0  0  0  0  0
   17.1273   45.8594   -8.3820 C   0  0  2  0  0  0  0  0  0  0  0  0
   17.5334   46.8600   -9.4816 C   0  0  0  0  0  0  0  0  0  0  0  0
   18.3390   45.2699   -7.6299 C   0  0  0  0  0  0  0  0  0  0  0  0
   19.1248   46.2739   -6.7615 C   0  0  0  0  0  0  0  0  0  0  0  0
   20.5595   45.7914   -6.4857 C   0  0  0  0  0  0  0  0  0  0  0  0
   21.4760   45.9883   -7.7074 C   0  0  0  0  0  0  0  0  0  0  0  0
   22.6993   45.0630   -7.7134 C   0  0  0  0  0  0  0  0  0  0  0  0
   23.5428   45.1757   -8.9994 C   0  0  0  0  0  0  0  0  0  0  0  0
   22.8249   44.6996  -10.2751 C   0  0  0  0  0  0  0  0  0  0  0  0
   22.5096   43.3184  -10.1365 O   0  0  0  0  0  0  0  0  0  0  0  0
   21.4522   42.8141  -10.8579 C   0  0  0  0  0  0  0  0  0  0  0  0
   20.1945   43.4602  -10.9733 C   0  0  0  0  0  0  0  0  0  0  0  0
   19.1472   42.8558  -11.7080 C   0  0  0  0  0  0  0  0  0  0  0  0
   19.3474   41.5804  -12.2783 C   0  0  0  0  0  0  0  0  0  0  0  0
   20.5874   40.9302  -12.1554 C   0  0  0  0  0  0  0  0  0  0  0  0
   21.6392   41.5539  -11.4634 C   0  0  0  0  0  0  0  0  0  0  0  0
   17.9072   43.6219  -12.0615 C   0  0  0  0  0  0  0  0  0  0  0  0
   17.6110   43.7515  -13.2451 O   0  0  0  0  0  0  0  0  0  0  0  0
   17.1626   44.2025  -11.1125 N   0  0  0  0  0  0  0  0  0  0  0  0
   16.9011   39.4772   -8.6295 C   0  0  0  0  0  0  0  0  0  0  0  0
   17.9557   39.9613   -7.8205 C   0  0  0  0  0  0  0  0  0  0  0  0
   19.0668   39.8425   -8.5934 C   0  0  0  0  0  0  0  0  0  0  0  0
   20.4835   40.2539   -8.3470 C   0  0  0  0  0  0  0  0  0  0  0  0
   21.5242   39.1316   -8.1166 C   0  0  0  0  0  0  0  0  0  0  0  0
   22.9344   39.7535   -8.0954 C   0  0  0  0  0  0  0  0  0  0  0  0
   21.4798   38.0775   -9.2380 C   0  0  0  0  0  0  0  0  0  0  0  0
   21.2624   38.4734   -6.7516 C   0  0  0  0  0  0  0  0  0  0  0  0
   18.7322   39.3166   -9.8021 O   0  0  0  0  0  0  0  0  0  0  0  0
   17.3470   39.0959   -9.8194 N   0  0  0  0  0  0  0  0  0  0  0  0
   15.3407   39.7889   -7.2284 H   0  0  0  0  0  0  0  0  0  0  0  0
   16.2779   41.7003  -10.6287 H   0  0  0  0  0  0  0  0  0  0  0  0
   17.6590   43.2091   -9.3331 H   0  0  0  0  0  0  0  0  0  0  0  0
   16.5414   46.4256   -7.6599 H   0  0  0  0  0  0  0  0  0  0  0  0
   15.2092   37.4811   -7.6682 H   0  0  0  0  0  0  0  0  0  0  0  0
   14.8906   37.7219   -9.3934 H   0  0  0  0  0  0  0  0  0  0  0  0
   13.6764   38.2083   -8.2013 H   0  0  0  0  0  0  0  0  0  0  0  0
   13.7166   40.4608   -8.7808 H   0  0  0  0  0  0  0  0  0  0  0  0
   14.3398   42.4965   -8.4267 H   0  0  0  0  0  0  0  0  0  0  0  0
   15.9085   41.8977   -7.9977 H   0  0  0  0  0  0  0  0  0  0  0  0
   14.0225   42.2650  -10.8174 H   0  0  0  0  0  0  0  0  0  0  0  0
   15.3253   45.2051   -9.3897 H   0  0  0  0  0  0  0  0  0  0  0  0
   15.7728   44.2762   -8.0052 H   0  0  0  0  0  0  0  0  0  0  0  0
   18.2698   46.4340  -10.1622 H   0  0  0  0  0  0  0  0  0  0  0  0
   17.9785   47.7618   -9.0573 H   0  0  0  0  0  0  0  0  0  0  0  0
   16.6686   47.1720  -10.0715 H   0  0  0  0  0  0  0  0  0  0  0  0
   18.0074   44.4541   -6.9839 H   0  0  0  0  0  0  0  0  0  0  0  0
   18.9954   44.7996   -8.3569 H   0  0  0  0  0  0  0  0  0  0  0  0
   19.1750   47.2546   -7.2341 H   0  0  0  0  0  0  0  0  0  0  0  0
   18.5912   46.4257   -5.8214 H   0  0  0  0  0  0  0  0  0  0  0  0
   20.9799   46.3284   -5.6344 H   0  0  0  0  0  0  0  0  0  0  0  0
   20.5314   44.7401   -6.1939 H   0  0  0  0  0  0  0  0  0  0  0  0
   20.9068   45.8114   -8.6159 H   0  0  0  0  0  0  0  0  0  0  0  0
   21.7965   47.0298   -7.7601 H   0  0  0  0  0  0  0  0  0  0  0  0
   23.3283   45.2936   -6.8506 H   0  0  0  0  0  0  0  0  0  0  0  0
   22.3786   44.0240   -7.5885 H   0  0  0  0  0  0  0  0  0  0  0  0
   23.8676   46.2085   -9.1344 H   0  0  0  0  0  0  0  0  0  0  0  0
   24.4536   44.5912   -8.8712 H   0  0  0  0  0  0  0  0  0  0  0  0
   21.9687   45.3352  -10.4945 H   0  0  0  0  0  0  0  0  0  0  0  0
   23.4947   44.8069  -11.1305 H   0  0  0  0  0  0  0  0  0  0  0  0
   20.0293   44.4304  -10.5278 H   0  0  0  0  0  0  0  0  0  0  0  0
   18.5539   41.1095  -12.8362 H   0  0  0  0  0  0  0  0  0  0  0  0
   20.7351   39.9556  -12.5996 H   0  0  0  0  0  0  0  0  0  0  0  0
   22.5910   41.0523  -11.3761 H   0  0  0  0  0  0  0  0  0  0  0  0
   16.4625   44.8266  -11.4835 H   0  0  0  0  0  0  0  0  0  0  0  0
   17.8905   40.3935   -6.8400 H   0  0  0  0  0  0  0  0  0  0  0  0
   20.7934   40.8569   -9.1905 H   0  0  0  0  0  0  0  0  0  0  0  0
   20.5070   40.9427   -7.5021 H   0  0  0  0  0  0  0  0  0  0  0  0
   23.6952   38.9912   -7.9196 H   0  0  0  0  0  0  0  0  0  0  0  0
   23.0310   40.5045   -7.3088 H   0  0  0  0  0  0  0  0  0  0  0  0
   23.1770   40.2326   -9.0450 H   0  0  0  0  0  0  0  0  0  0  0  0
   21.6023   38.5396  -10.2180 H   0  0  0  0  0  0  0  0  0  0  0  0
   20.5393   37.5254   -9.2462 H   0  0  0  0  0  0  0  0  0  0  0  0
   22.2815   37.3474   -9.1256 H   0  0  0  0  0  0  0  0  0  0  0  0
   22.0448   37.7610   -6.4814 H   0  0  0  0  0  0  0  0  0  0  0  0
   20.3088   37.9428   -6.7401 H   0  0  0  0  0  0  0  0  0  0  0  0
   21.2265   39.2176   -5.9553 H   0  0  0  0  0  0  0  0  0  0  0  0
  1  2  1  0  0  0  0
  1 42  1  0  0  0  0
  1 43  1  0  0  0  0
  1 44  1  0  0  0  0
  2 38  1  1  0  0  0
  2  3  1  0  0  0  0
  2 28  1  0  0  0  0
  3  4  1  0  0  0  0
  3 45  1  0  0  0  0
  4  5  1  0  0  0  0
  4 46  1  0  0  0  0
  4 47  1  0  0  0  0
  5 39  1  6  0  0  0
  5  6  1  0  0  0  0
  5  7  1  0  0  0  0
  6 48  1  0  0  0  0
  7 40  1  1  0  0  0
  7 27  1  0  0  0  0
  7  8  1  0  0  0  0
  8  9  1  0  0  0  0
  8 49  1  0  0  0  0
  8 50  1  0  0  0  0
  9 41  1  1  0  0  0
  9 10  1  0  0  0  0
  9 11  1  0  0  0  0
 10 51  1  0  0  0  0
 10 52  1  0  0  0  0
 10 53  1  0  0  0  0
 11 12  1  0  0  0  0
 11 54  1  0  0  0  0
 11 55  1  0  0  0  0
 12 13  1  0  0  0  0
 12 56  1  0  0  0  0
 12 57  1  0  0  0  0
 13 14  1  0  0  0  0
 13 58  1  0  0  0  0
 13 59  1  0  0  0  0
 14 15  1  0  0  0  0
 14 60  1  0  0  0  0
 14 61  1  0  0  0  0
 15 16  1  0  0  0  0
 15 62  1  0  0  0  0
 15 63  1  0  0  0  0
 16 17  1  0  0  0  0
 16 64  1  0  0  0  0
 16 65  1  0  0  0  0
 17 18  1  0  0  0  0
 17 66  1  0  0  0  0
 17 67  1  0  0  0  0
 18 19  1  0  0  0  0
 19 24  1  0  0  0  0
 19 20  2  0  0  0  0
 20 21  1  0  0  0  0
 20 68  1  0  0  0  0
 21 22  2  0  0  0  0
 21 25  1  0  0  0  0
 22 23  1  0  0  0  0
 22 69  1  0  0  0  0
 23 24  2  0  0  0  0
 23 70  1  0  0  0  0
 24 71  1  0  0  0  0
 25 26  2  0  0  0  0
 25 27  1  0  0  0  0
 27 72  1  0  0  0  0
 28 37  2  0  0  0  0
 28 29  1  0  0  0  0
 29 30  2  0  0  0  0
 29 73  1  0  0  0  0
 30 31  1  0  0  0  0
 30 36  1  0  0  0  0
 31 32  1  0  0  0  0
 31 74  1  0  0  0  0
 31 75  1  0  0  0  0
 32 33  1  0  0  0  0
 32 34  1  0  0  0  0
 32 35  1  0  0  0  0
 33 76  1  0  0  0  0
 33 77  1  0  0  0  0
 33 78  1  0  0  0  0
 34 79  1  0  0  0  0
 34 80  1  0  0  0  0
 34 81  1  0  0  0  0
 35 82  1  0  0  0  0
 35 83  1  0  0  0  0
 35 84  1  0  0  0  0
 36 37  1  0  0  0  0
M  END
>  <s_m_source_file>
BACE_79.smi

>  <i_m_source_file_index>
1

>  <i_lp_mmshare_version>
42013

>  <i_f3d_flags>
0

>  <s_epik_input>
W0NIM11DKFtDSDNdKShbQ0gzXSlbQ0gyXWMob24xKVtjSF1jMVtDQEhdKFtDSDNdKVtOSF1bQ0gyXVtDQEBIXShbT0hdKVtDQEBIXShbTkhdQyg9TyljKFtjSF1jMjMpW2NIXVtjSF1bY0hdMylbQ0gyXVtDQEhdKFtDSDNdKVtDSDJdW0NIMl1bQ0gyXVtDSDJdW0NIMl1bQ0gyXVtDSDJdTzI=

>  <s_epik_cmdline>
J2VwaWtfcHl0aG9uJywgJy1waCcsICc3LjAnLCAnLXRuJywgJzgnLCAnLW1hJywgJzIwMCcsICctaW1hZScsICc8aW5maWxlLm1hZT4nLCAnLW9tYWUnLCAnPG91dGZpbGUubWFlPic=

>  <r_lp_tautomer_probability>
1

>  <r_epik_Ionization_Penalty>
0.4264

>  <r_epik_Ionization_Penalty_Charging>
0.0000

>  <r_epik_Ionization_Penalty_Neutral>
0.4264

>  <r_epik_State_Penalty>
0.4274

>  <r_epik_Charging_Adjusted_Penalty>
0.427447

>  <i_epik_Tot_Q>
0

>  <i_epik_Tot_abs_Q>
0

>  <s_lp_Force_Field>
OPLS_2005

>  <r_lp_Energy>
39.0679

>  <b_lp_Chiralities_Consistent>
1

>  <s_lp_Variant>
BACE_79.smi:1-2

>  <chiral flag>
1

>  <version>
0

>  <s_i_glide_gridfile>
second_dock_grid_2

>  <i_i_glide_lignum>
159

>  <i_i_glide_rotatable_bonds>
8

>  <r_i_docking_score>
-3.7929

>  <r_i_glide_ligand_efficiency>
-0.102511

>  <r_i_glide_ligand_efficiency_sa>
-0.341589

>  <r_i_glide_ligand_efficiency_ln>
-0.822592

>  <r_glide_XP_GScore>
-4.2203

>  <r_i_glide_gscore>
-4.2203

>  <r_i_glide_evdw>
-35.9583

>  <r_i_glide_ecoul>
-11.1902

>  <r_i_glide_energy>
-47.1485

>  <r_i_glide_einternal>
2.53477

>  <r_i_glide_emodel>
-65.0305

>  <r_glide_XP_HBond>
-0.7

>  <i_i_glide_confnum>
1

>  <i_i_glide_posenum>
82

>  <r_i_glide_eff_state_penalty>
0.4274

>  <i_glide_XP_PoseRank>
1

$$$$
