BACE_135.smi:1
 OpenBabel09291822493D
Structure written by MMmdl.
 85 88  0  0  1  0  0  0  0  0999 V2000
   19.7341   46.3958   -6.2956 C   0  0  0  0  0  0  0  0  0  0  0  0
   18.5922   47.4057   -6.2964 C   0  0  0  0  0  0  0  0  0  0  0  0
   18.0627   47.7487   -5.2409 O   0  0  0  0  0  0  0  0  0  0  0  0
   18.1012   47.9772   -7.6307 C   0  0  0  0  0  0  0  0  0  0  0  0
   18.6319   47.2637   -8.7437 O   0  0  0  0  0  0  0  0  0  0  0  0
   17.9766   46.1353   -9.1867 C   0  0  0  0  0  0  0  0  0  0  0  0
   16.8773   45.5318   -8.5294 C   0  0  0  0  0  0  0  0  0  0  0  0
   16.2799   44.3603   -9.0333 C   0  0  0  0  0  0  0  0  0  0  0  0
   16.7724   43.7832  -10.2242 C   0  0  0  0  0  0  0  0  0  0  0  0
   17.8370   44.3973  -10.9140 C   0  0  0  0  0  0  0  0  0  0  0  0
   18.4341   45.5606  -10.3891 C   0  0  0  0  0  0  0  0  0  0  0  0
   18.2414   43.9198  -12.2734 C   0  0  0  0  0  0  0  0  0  0  0  0
   18.0616   44.6543  -13.2399 O   0  0  0  0  0  0  0  0  0  0  0  0
   18.7786   42.7014  -12.4290 N   0  0  0  0  0  0  0  0  0  0  0  0
   19.2250   41.7334  -11.4364 C   0  0  1  0  0  0  0  0  0  0  0  0
   18.5776   40.3795  -11.7954 C   0  0  0  0  0  0  0  0  0  0  0  0
   18.2228   39.5269  -10.6062 C   0  0  0  0  0  0  0  0  0  0  0  0
   17.0014   39.7437   -9.9398 C   0  0  0  0  0  0  0  0  0  0  0  0
   16.6676   38.9761   -8.8082 C   0  0  0  0  0  0  0  0  0  0  0  0
   15.4219   39.3026   -8.0116 C   0  0  0  0  0  0  0  0  0  0  0  0
   15.7159   40.3726   -6.9490 C   0  0  0  0  0  0  0  0  0  0  0  0
   16.1332   41.7531   -7.4994 C   0  0  0  0  0  0  0  0  0  0  0  0
   14.9998   42.4674   -8.2680 C   0  0  0  0  0  0  0  0  0  0  0  0
   15.1939   43.8747   -8.3458 O   0  0  0  0  0  0  0  0  0  0  0  0
   17.5405   37.9606   -8.3737 C   0  0  0  0  0  0  0  0  0  0  0  0
   18.7425   37.7230   -9.0669 C   0  0  0  0  0  0  0  0  0  0  0  0
   19.0828   38.4991  -10.1828 C   0  0  0  0  0  0  0  0  0  0  0  0
   20.7783   41.7435  -11.4301 C   0  0  2  0  0  0  0  0  0  0  0  0
   21.2612   41.1408  -12.6200 O   0  0  0  0  0  0  0  0  0  0  0  0
   21.3824   41.0163  -10.2169 C   0  0  0  0  0  0  0  0  0  0  0  0
   22.7949   41.3483  -10.0411 N   0  0  0  0  0  0  0  0  0  0  0  0
   23.3665   40.8695   -8.7825 C   0  0  0  0  0  0  0  0  0  0  0  0
   23.1210   41.8099   -7.6145 C   0  0  0  0  0  0  0  0  0  0  0  0
   22.2841   41.4354   -6.5391 C   0  0  0  0  0  0  0  0  0  0  0  0
   22.1363   42.3135   -5.4347 C   0  0  0  0  0  0  0  0  0  0  0  0
   22.8340   43.5416   -5.4911 C   0  0  0  0  0  0  0  0  0  0  0  0
   23.6387   43.8249   -6.6114 C   0  0  0  0  0  0  0  0  0  0  0  0
   23.7878   42.9833   -7.6519 N   0  0  0  0  0  0  0  0  0  0  0  0
   21.2405   41.9957   -4.2202 C   0  0  0  0  0  0  0  0  0  0  0  0
   22.0270   42.1464   -2.8992 C   0  0  0  0  0  0  0  0  0  0  0  0
   20.6827   40.5547   -4.2608 C   0  0  0  0  0  0  0  0  0  0  0  0
   20.0612   42.9877   -4.1948 C   0  0  0  0  0  0  0  0  0  0  0  0
   18.8693   42.0438  -10.4549 H   0  0  0  0  0  0  0  0  0  0  0  0
   21.1235   42.7786  -11.4055 H   0  0  0  0  0  0  0  0  0  0  0  0
   20.6550   46.8630   -6.6504 H   0  0  0  0  0  0  0  0  0  0  0  0
   19.5076   45.5416   -6.9412 H   0  0  0  0  0  0  0  0  0  0  0  0
   19.9114   46.0206   -5.2853 H   0  0  0  0  0  0  0  0  0  0  0  0
   17.0143   48.0198   -7.6601 H   0  0  0  0  0  0  0  0  0  0  0  0
   18.4474   49.0066   -7.6964 H   0  0  0  0  0  0  0  0  0  0  0  0
   16.4694   45.9462   -7.6220 H   0  0  0  0  0  0  0  0  0  0  0  0
   16.2976   42.9089  -10.6480 H   0  0  0  0  0  0  0  0  0  0  0  0
   19.2446   46.0342  -10.9239 H   0  0  0  0  0  0  0  0  0  0  0  0
   19.0297   42.4509  -13.3708 H   0  0  0  0  0  0  0  0  0  0  0  0
   17.6466   40.5504  -12.3353 H   0  0  0  0  0  0  0  0  0  0  0  0
   19.2050   39.7926  -12.4623 H   0  0  0  0  0  0  0  0  0  0  0  0
   16.3373   40.5246  -10.2731 H   0  0  0  0  0  0  0  0  0  0  0  0
   14.6206   39.6231   -8.6764 H   0  0  0  0  0  0  0  0  0  0  0  0
   15.0638   38.3953   -7.5226 H   0  0  0  0  0  0  0  0  0  0  0  0
   14.8600   40.4900   -6.2948 H   0  0  0  0  0  0  0  0  0  0  0  0
   16.5003   39.9836   -6.3054 H   0  0  0  0  0  0  0  0  0  0  0  0
   16.4598   42.3689   -6.6624 H   0  0  0  0  0  0  0  0  0  0  0  0
   17.0219   41.6738   -8.1230 H   0  0  0  0  0  0  0  0  0  0  0  0
   14.8291   42.0275   -9.2495 H   0  0  0  0  0  0  0  0  0  0  0  0
   14.0674   42.3338   -7.7198 H   0  0  0  0  0  0  0  0  0  0  0  0
   17.2994   37.3745   -7.4986 H   0  0  0  0  0  0  0  0  0  0  0  0
   19.4117   36.9512   -8.7386 H   0  0  0  0  0  0  0  0  0  0  0  0
   20.0036   38.2973  -10.7120 H   0  0  0  0  0  0  0  0  0  0  0  0
   22.2113   41.1390  -12.6085 H   0  0  0  0  0  0  0  0  0  0  0  0
   20.8280   41.3021   -9.3210 H   0  0  0  0  0  0  0  0  0  0  0  0
   21.2717   39.9404  -10.3190 H   0  0  0  0  0  0  0  0  0  0  0  0
   23.3497   40.9954  -10.8167 H   0  0  0  0  0  0  0  0  0  0  0  0
   23.0041   39.8686   -8.5507 H   0  0  0  0  0  0  0  0  0  0  0  0
   24.4475   40.7762   -8.8933 H   0  0  0  0  0  0  0  0  0  0  0  0
   21.7830   40.4792   -6.5792 H   0  0  0  0  0  0  0  0  0  0  0  0
   22.7617   44.2658   -4.6943 H   0  0  0  0  0  0  0  0  0  0  0  0
   24.1812   44.7569   -6.6704 H   0  0  0  0  0  0  0  0  0  0  0  0
   21.3883   41.9402   -2.0389 H   0  0  0  0  0  0  0  0  0  0  0  0
   22.4208   43.1538   -2.7626 H   0  0  0  0  0  0  0  0  0  0  0  0
   22.8600   41.4496   -2.8470 H   0  0  0  0  0  0  0  0  0  0  0  0
   21.4842   39.8155   -4.2631 H   0  0  0  0  0  0  0  0  0  0  0  0
   20.0601   40.3818   -5.1402 H   0  0  0  0  0  0  0  0  0  0  0  0
   20.0603   40.3466   -3.3918 H   0  0  0  0  0  0  0  0  0  0  0  0
   19.3710   42.7688   -3.3813 H   0  0  0  0  0  0  0  0  0  0  0  0
   19.5031   42.9503   -5.1303 H   0  0  0  0  0  0  0  0  0  0  0  0
   20.4002   44.0134   -4.0498 H   0  0  0  0  0  0  0  0  0  0  0  0
  1  2  1  0  0  0  0
  1 45  1  0  0  0  0
  1 46  1  0  0  0  0
  1 47  1  0  0  0  0
  2  3  2  0  0  0  0
  2  4  1  0  0  0  0
  4  5  1  0  0  0  0
  4 48  1  0  0  0  0
  4 49  1  0  0  0  0
  5  6  1  0  0  0  0
  6 11  1  0  0  0  0
  6  7  2  0  0  0  0
  7  8  1  0  0  0  0
  7 50  1  0  0  0  0
  8 24  1  0  0  0  0
  8  9  2  0  0  0  0
  9 10  1  0  0  0  0
  9 51  1  0  0  0  0
 10 11  2  0  0  0  0
 10 12  1  0  0  0  0
 11 52  1  0  0  0  0
 12 13  2  0  0  0  0
 12 14  1  0  0  0  0
 14 15  1  0  0  0  0
 14 53  1  0  0  0  0
 15 43  1  1  0  0  0
 15 16  1  0  0  0  0
 15 28  1  0  0  0  0
 16 17  1  0  0  0  0
 16 54  1  0  0  0  0
 16 55  1  0  0  0  0
 17 27  1  0  0  0  0
 17 18  2  0  0  0  0
 18 19  1  0  0  0  0
 18 56  1  0  0  0  0
 19 20  1  0  0  0  0
 19 25  2  0  0  0  0
 20 21  1  0  0  0  0
 20 57  1  0  0  0  0
 20 58  1  0  0  0  0
 21 22  1  0  0  0  0
 21 59  1  0  0  0  0
 21 60  1  0  0  0  0
 22 23  1  0  0  0  0
 22 61  1  0  0  0  0
 22 62  1  0  0  0  0
 23 24  1  0  0  0  0
 23 63  1  0  0  0  0
 23 64  1  0  0  0  0
 25 26  1  0  0  0  0
 25 65  1  0  0  0  0
 26 27  2  0  0  0  0
 26 66  1  0  0  0  0
 27 67  1  0  0  0  0
 28 44  1  1  0  0  0
 28 29  1  0  0  0  0
 28 30  1  0  0  0  0
 29 68  1  0  0  0  0
 30 31  1  0  0  0  0
 30 69  1  0  0  0  0
 30 70  1  0  0  0  0
 31 32  1  0  0  0  0
 31 71  1  0  0  0  0
 32 33  1  0  0  0  0
 32 72  1  0  0  0  0
 32 73  1  0  0  0  0
 33 38  1  0  0  0  0
 33 34  2  0  0  0  0
 34 35  1  0  0  0  0
 34 74  1  0  0  0  0
 35 36  2  0  0  0  0
 35 39  1  0  0  0  0
 36 37  1  0  0  0  0
 36 75  1  0  0  0  0
 37 38  2  0  0  0  0
 37 76  1  0  0  0  0
 39 40  1  0  0  0  0
 39 41  1  0  0  0  0
 39 42  1  0  0  0  0
 40 77  1  0  0  0  0
 40 78  1  0  0  0  0
 40 79  1  0  0  0  0
 41 80  1  0  0  0  0
 41 81  1  0  0  0  0
 41 82  1  0  0  0  0
 42 83  1  0  0  0  0
 42 84  1  0  0  0  0
 42 85  1  0  0  0  0
M  END
>  <s_m_source_file>
BACE_135.smi

>  <i_m_source_file_index>
1

>  <i_lp_mmshare_version>
42013

>  <i_f3d_flags>
0

>  <s_epik_input>
W0NIM11DKD1PKVtDSDJdT2MoW2NIXWMxMilbY0hdYyhbY0hdMSlDKD1PKVtOSF1bQ0BASF0oW0NIMl1jM1tjSF1jKFtjSF1bY0hdW2NIXTMpW0NIMl1bQ0gyXVtDSDJdW0NIMl1PMilbQ0BIXShbT0hdKVtDSDJdW05IXVtDSDJdYzRbY0hdYyhbY0hdW2NIXW40KUMoW0NIM10pKFtDSDNdKVtDSDNd

>  <s_epik_cmdline>
J2VwaWtfcHl0aG9uJywgJy1waCcsICc3LjAnLCAnLXRuJywgJzgnLCAnLW1hJywgJzIwMCcsICctaW1hZScsICc8aW5maWxlLm1hZT4nLCAnLW9tYWUnLCAnPG91dGZpbGUubWFlPic=

>  <r_lp_tautomer_probability>
1

>  <r_epik_Ionization_Penalty>
1.6496

>  <r_epik_Ionization_Penalty_Charging>
0.0000

>  <r_epik_Ionization_Penalty_Neutral>
1.6496

>  <r_epik_State_Penalty>
1.7498

>  <r_epik_Charging_Adjusted_Penalty>
1.7498

>  <i_epik_Tot_Q>
0

>  <i_epik_Tot_abs_Q>
0

>  <s_lp_Force_Field>
OPLS_2005

>  <r_lp_Energy>
38.1342

>  <b_lp_Chiralities_Consistent>
1

>  <s_lp_Variant>
BACE_135.smi:1-2

>  <chiral flag>
1

>  <version>
0

>  <s_i_glide_gridfile>
second_dock_grid_2

>  <i_i_glide_lignum>
278

>  <i_i_glide_rotatable_bonds>
10

>  <r_i_docking_score>
-3.22968

>  <r_i_glide_ligand_efficiency>
-0.0768971

>  <r_i_glide_ligand_efficiency_sa>
-0.267296

>  <r_i_glide_ligand_efficiency_ln>
-0.681701

>  <r_glide_XP_GScore>
-4.97948

>  <r_i_glide_gscore>
-4.97948

>  <r_i_glide_evdw>
-48.5522

>  <r_i_glide_ecoul>
-11.0576

>  <r_i_glide_energy>
-59.6098

>  <r_i_glide_einternal>
13.1253

>  <r_i_glide_emodel>
-75.0259

>  <r_glide_XP_HBond>
-1.53807

>  <i_i_glide_confnum>
1

>  <i_i_glide_posenum>
1

>  <r_i_glide_eff_state_penalty>
1.7498

>  <i_glide_XP_PoseRank>
1

$$$$
