BACE_52.smi:1
 OpenBabel09291822493D
Structure written by MMmdl.
 82 85  0  0  1  0  0  0  0  0999 V2000
   17.8279   39.3772  -11.0181 C   0  0  0  0  0  0  0  0  0  0  0  0
   17.3915   38.7209   -9.7086 C   0  0  0  0  0  0  0  0  0  0  0  0
   18.6035   38.0921   -8.9936 C   0  0  0  0  0  0  0  0  0  0  0  0
   16.6309   39.6774   -8.7994 C   0  0  0  0  0  0  0  0  0  0  0  0
   16.4592   41.0528   -9.0989 C   0  0  0  0  0  0  0  0  0  0  0  0
   15.7631   41.8838   -8.1979 C   0  0  0  0  0  0  0  0  0  0  0  0
   15.2765   41.3495   -7.0572 N   0  3  0  0  0  0  0  0  0  0  0  0
   15.3880   40.0465   -6.7419 C   0  0  0  0  0  0  0  0  0  0  0  0
   16.0710   39.1820   -7.6062 C   0  0  0  0  0  0  0  0  0  0  0  0
   15.5405   43.3484   -8.4490 C   0  0  0  0  0  0  0  0  0  0  0  0
   14.4942   43.7083   -9.4812 C   0  0  0  0  0  0  0  0  0  0  0  0
   14.2431   44.0316   -8.0401 C   0  0  0  0  0  0  0  0  0  0  0  0
   16.7813   44.1330   -8.5042 N   0  0  0  0  0  0  0  0  0  0  0  0
   17.5539   44.1652   -7.2578 C   0  0  0  0  0  0  0  0  0  0  0  0
   18.5339   45.3556   -7.1965 C   0  0  1  0  0  0  0  0  0  0  0  0
   19.0299   45.4799   -5.8788 O   0  0  0  0  0  0  0  0  0  0  0  0
   19.7052   45.2675   -8.2132 C   0  0  2  0  0  0  0  0  0  0  0  0
   21.0758   44.7264   -7.7243 C   0  0  0  0  0  0  0  0  0  0  0  0
   21.1713   43.1824   -7.5747 C   0  0  2  0  0  0  0  0  0  0  0  0
   20.8638   42.7182   -6.1377 C   0  0  0  0  0  0  0  0  0  0  0  0
   22.5574   42.6786   -8.0598 C   0  0  0  0  0  0  0  0  0  0  0  0
   22.7430   41.1464   -8.1421 C   0  0  0  0  0  0  0  0  0  0  0  0
   21.8358   40.4326   -9.1606 C   0  0  0  0  0  0  0  0  0  0  0  0
   22.2554   40.6153  -10.6344 C   0  0  0  0  0  0  0  0  0  0  0  0
   21.2121   40.0224  -11.6089 C   0  0  0  0  0  0  0  0  0  0  0  0
   20.4812   41.0356  -12.5175 C   0  0  0  0  0  0  0  0  0  0  0  0
   19.9551   42.2938  -11.8061 C   0  0  0  0  0  0  0  0  0  0  0  0
   18.8589   42.8602  -12.5269 O   0  0  0  0  0  0  0  0  0  0  0  0
   18.3869   44.0815  -12.0933 C   0  0  0  0  0  0  0  0  0  0  0  0
   19.1587   44.9961  -11.3420 C   0  0  0  0  0  0  0  0  0  0  0  0
   18.5489   46.1580  -10.8349 C   0  0  0  0  0  0  0  0  0  0  0  0
   17.2190   46.4241  -11.2050 C   0  0  0  0  0  0  0  0  0  0  0  0
   16.5440   45.4971  -12.0187 C   0  0  0  0  0  0  0  0  0  0  0  0
   14.9097   45.8517  -12.4404 Cl  0  0  0  0  0  0  0  0  0  0  0  0
   17.1037   44.3386  -12.4399 N   0  0  0  0  0  0  0  0  0  0  0  0
   19.2991   47.0916   -9.9312 C   0  0  0  0  0  0  0  0  0  0  0  0
   19.3389   48.2936  -10.1849 O   0  0  0  0  0  0  0  0  0  0  0  0
   19.8910   46.5870   -8.8299 N   0  0  0  0  0  0  0  0  0  0  0  0
   17.9456   46.2577   -7.3789 H   0  0  0  0  0  0  0  0  0  0  0  0
   19.3850   44.5577   -8.9634 H   0  0  0  0  0  0  0  0  0  0  0  0
   20.4213   42.7425   -8.2299 H   0  0  0  0  0  0  0  0  0  0  0  0
   16.9812   39.7500  -11.5948 H   0  0  0  0  0  0  0  0  0  0  0  0
   18.3849   38.6804  -11.6407 H   0  0  0  0  0  0  0  0  0  0  0  0
   18.4730   40.2230  -10.8083 H   0  0  0  0  0  0  0  0  0  0  0  0
   16.7026   37.9126   -9.9635 H   0  0  0  0  0  0  0  0  0  0  0  0
   18.3043   37.5161   -8.1160 H   0  0  0  0  0  0  0  0  0  0  0  0
   19.3092   38.8556   -8.6652 H   0  0  0  0  0  0  0  0  0  0  0  0
   19.1404   37.4127   -9.6544 H   0  0  0  0  0  0  0  0  0  0  0  0
   16.8547   41.5014   -9.9972 H   0  0  0  0  0  0  0  0  0  0  0  0
   14.9532   39.7409   -5.8034 H   0  0  0  0  0  0  0  0  0  0  0  0
   16.1805   38.1500   -7.3324 H   0  0  0  0  0  0  0  0  0  0  0  0
   14.6687   44.5608  -10.1243 H   0  0  0  0  0  0  0  0  0  0  0  0
   13.9048   42.9045   -9.9201 H   0  0  0  0  0  0  0  0  0  0  0  0
   13.4701   43.4422   -7.5484 H   0  0  0  0  0  0  0  0  0  0  0  0
   14.2887   45.0784   -7.7501 H   0  0  0  0  0  0  0  0  0  0  0  0
   16.5710   45.0777   -8.8099 H   0  0  0  0  0  0  0  0  0  0  0  0
   16.8600   44.2884   -6.4401 H   0  0  0  0  0  0  0  0  0  0  0  0
   18.0577   43.2125   -7.0975 H   0  0  0  0  0  0  0  0  0  0  0  0
   19.6640   44.7894   -5.7383 H   0  0  0  0  0  0  0  0  0  0  0  0
   21.4158   45.2319   -6.8196 H   0  0  0  0  0  0  0  0  0  0  0  0
   21.8033   45.0270   -8.4793 H   0  0  0  0  0  0  0  0  0  0  0  0
   21.5919   43.1154   -5.4285 H   0  0  0  0  0  0  0  0  0  0  0  0
   20.8831   41.6314   -6.0559 H   0  0  0  0  0  0  0  0  0  0  0  0
   19.8735   43.0208   -5.8056 H   0  0  0  0  0  0  0  0  0  0  0  0
   22.7720   43.0917   -9.0449 H   0  0  0  0  0  0  0  0  0  0  0  0
   23.3268   43.0831   -7.4005 H   0  0  0  0  0  0  0  0  0  0  0  0
   23.7836   40.9260   -8.3876 H   0  0  0  0  0  0  0  0  0  0  0  0
   22.5895   40.7047   -7.1593 H   0  0  0  0  0  0  0  0  0  0  0  0
   21.8499   39.3626   -8.9378 H   0  0  0  0  0  0  0  0  0  0  0  0
   20.8001   40.7418   -9.0214 H   0  0  0  0  0  0  0  0  0  0  0  0
   22.4389   41.6638  -10.8614 H   0  0  0  0  0  0  0  0  0  0  0  0
   23.2188   40.1265  -10.7785 H   0  0  0  0  0  0  0  0  0  0  0  0
   21.6613   39.2743  -12.2571 H   0  0  0  0  0  0  0  0  0  0  0  0
   20.4974   39.4422  -11.0325 H   0  0  0  0  0  0  0  0  0  0  0  0
   19.6558   40.5205  -13.0102 H   0  0  0  0  0  0  0  0  0  0  0  0
   21.1562   41.3474  -13.3139 H   0  0  0  0  0  0  0  0  0  0  0  0
   19.6341   42.0759  -10.7874 H   0  0  0  0  0  0  0  0  0  0  0  0
   20.8007   42.9767  -11.7333 H   0  0  0  0  0  0  0  0  0  0  0  0
   20.1933   44.8173  -11.0936 H   0  0  0  0  0  0  0  0  0  0  0  0
   16.7236   47.3220  -10.8638 H   0  0  0  0  0  0  0  0  0  0  0  0
   20.4179   47.2468   -8.2788 H   0  0  0  0  0  0  0  0  0  0  0  0
   14.7995   41.9533   -6.3691 H   0  0  0  0  0  0  0  0  0  0  0  0
  1  2  1  0  0  0  0
  1 42  1  0  0  0  0
  1 43  1  0  0  0  0
  1 44  1  0  0  0  0
  2  3  1  0  0  0  0
  2  4  1  0  0  0  0
  2 45  1  0  0  0  0
  3 46  1  0  0  0  0
  3 47  1  0  0  0  0
  3 48  1  0  0  0  0
  4  9  1  0  0  0  0
  4  5  2  0  0  0  0
  5  6  1  0  0  0  0
  5 49  1  0  0  0  0
  6  7  2  0  0  0  0
  6 10  1  0  0  0  0
  7  8  1  0  0  0  0
  7 82  1  0  0  0  0
  8  9  2  0  0  0  0
  8 50  1  0  0  0  0
  9 51  1  0  0  0  0
 10 12  1  0  0  0  0
 10 11  1  0  0  0  0
 10 13  1  0  0  0  0
 11 12  1  0  0  0  0
 11 52  1  0  0  0  0
 11 53  1  0  0  0  0
 12 54  1  0  0  0  0
 12 55  1  0  0  0  0
 13 14  1  0  0  0  0
 13 56  1  0  0  0  0
 14 15  1  0  0  0  0
 14 57  1  0  0  0  0
 14 58  1  0  0  0  0
 15 39  1  6  0  0  0
 15 16  1  0  0  0  0
 15 17  1  0  0  0  0
 16 59  1  0  0  0  0
 17 40  1  6  0  0  0
 17 38  1  0  0  0  0
 17 18  1  0  0  0  0
 18 19  1  0  0  0  0
 18 60  1  0  0  0  0
 18 61  1  0  0  0  0
 19 41  1  6  0  0  0
 19 20  1  0  0  0  0
 19 21  1  0  0  0  0
 20 62  1  0  0  0  0
 20 63  1  0  0  0  0
 20 64  1  0  0  0  0
 21 22  1  0  0  0  0
 21 65  1  0  0  0  0
 21 66  1  0  0  0  0
 22 23  1  0  0  0  0
 22 67  1  0  0  0  0
 22 68  1  0  0  0  0
 23 24  1  0  0  0  0
 23 69  1  0  0  0  0
 23 70  1  0  0  0  0
 24 25  1  0  0  0  0
 24 71  1  0  0  0  0
 24 72  1  0  0  0  0
 25 26  1  0  0  0  0
 25 73  1  0  0  0  0
 25 74  1  0  0  0  0
 26 27  1  0  0  0  0
 26 75  1  0  0  0  0
 26 76  1  0  0  0  0
 27 28  1  0  0  0  0
 27 77  1  0  0  0  0
 27 78  1  0  0  0  0
 28 29  1  0  0  0  0
 29 35  1  0  0  0  0
 29 30  2  0  0  0  0
 30 31  1  0  0  0  0
 30 79  1  0  0  0  0
 31 32  2  0  0  0  0
 31 36  1  0  0  0  0
 32 33  1  0  0  0  0
 32 80  1  0  0  0  0
 33 34  1  0  0  0  0
 33 35  2  0  0  0  0
 36 37  2  0  0  0  0
 36 38  1  0  0  0  0
 38 81  1  0  0  0  0
M  CHG  1   7   1
M  END
>  <s_m_source_file>
BACE_52.smi

>  <i_m_source_file_index>
1

>  <i_lp_mmshare_version>
42013

>  <i_f3d_flags>
0

>  <s_epik_input>
W0NIM11bQ0hdKFtDSDNdKWMxW2NIXWMobltjSF1bY0hdMSlDMihbQ0gyXVtDSDJdMilbTkhdW0NIMl1bQ0BASF0oW09IXSlbQ0BASF0oW05IXUMoPU8pYyhbY0hdYzM0KVtjSF1jKENsKW40KVtDSDJdW0NASF0oW0NIM10pW0NIMl1bQ0gyXVtDSDJdW0NIMl1bQ0gyXVtDSDJdW0NIMl1PMw==

>  <s_epik_cmdline>
J2VwaWtfcHl0aG9uJywgJy1waCcsICc3LjAnLCAnLXRuJywgJzgnLCAnLW1hJywgJzIwMCcsICctaW1hZScsICc8aW5maWxlLm1hZT4nLCAnLW9tYWUnLCAnPG91dGZpbGUubWFlPic=

>  <r_epik_Ionization_Penalty>
2.3703

>  <r_epik_Ionization_Penalty_Charging>
2.3702

>  <r_epik_Ionization_Penalty_Neutral>
0.0000

>  <r_epik_State_Penalty>
1.5087

>  <r_epik_Charging_Adjusted_Penalty>
3.87892

>  <i_epik_Tot_Q>
1

>  <i_epik_Tot_abs_Q>
1

>  <s_lp_Force_Field>
OPLS_2005

>  <r_lp_Energy>
49.7476

>  <b_lp_Chiralities_Consistent>
1

>  <s_lp_Variant>
BACE_52.smi:1-2

>  <chiral flag>
1

>  <version>
0

>  <s_i_glide_gridfile>
second_dock_grid_2

>  <i_i_glide_lignum>
100

>  <i_i_glide_rotatable_bonds>
7

>  <r_i_docking_score>
-4.35189

>  <r_i_glide_ligand_efficiency>
-0.114523

>  <r_i_glide_ligand_efficiency_sa>
-0.385025

>  <r_i_glide_ligand_efficiency_ln>
-0.938396

>  <r_glide_XP_GScore>
-5.86059

>  <r_i_glide_gscore>
-5.86059

>  <r_i_glide_evdw>
-33.9233

>  <r_i_glide_ecoul>
-15.7266

>  <r_i_glide_energy>
-49.6499

>  <r_i_glide_einternal>
4.93136

>  <r_i_glide_emodel>
-63.5843

>  <r_glide_XP_HBond>
0

>  <i_i_glide_confnum>
1

>  <i_i_glide_posenum>
1

>  <r_i_glide_eff_state_penalty>
1.5087

>  <i_glide_XP_PoseRank>
1

$$$$
