BACE_83.smi:1
 OpenBabel09291822493D
Structure written by MMmdl.
 96 99  0  0  1  0  0  0  0  0999 V2000
   21.8848   46.5963  -12.4044 C   0  0  0  0  0  0  0  0  0  0  0  0
   21.4575   45.4721  -11.4419 C   0  0  2  0  0  0  0  0  0  0  0  0
   20.3406   45.9388  -10.4907 C   0  0  0  0  0  0  0  0  0  0  0  0
   19.0161   46.3275  -11.1731 C   0  0  0  0  0  0  0  0  0  0  0  0
   17.8847   46.5351  -10.1558 C   0  0  0  0  0  0  0  0  0  0  0  0
   18.0048   47.8431   -9.3470 C   0  0  0  0  0  0  0  0  0  0  0  0
   17.3116   47.7628   -7.9755 C   0  0  0  0  0  0  0  0  0  0  0  0
   18.2510   47.4242   -6.7990 C   0  0  0  0  0  0  0  0  0  0  0  0
   19.0292   46.1088   -6.9512 C   0  0  0  0  0  0  0  0  0  0  0  0
   19.7602   45.8511   -5.7633 O   0  0  0  0  0  0  0  0  0  0  0  0
   20.6096   44.7726   -5.8278 C   0  0  0  0  0  0  0  0  0  0  0  0
   20.4268   43.7409   -4.8908 C   0  0  0  0  0  0  0  0  0  0  0  0
   21.2662   42.6112   -4.8833 C   0  0  0  0  0  0  0  0  0  0  0  0
   22.3166   42.5233   -5.8149 C   0  0  0  0  0  0  0  0  0  0  0  0
   22.5407   43.5635   -6.7428 C   0  0  0  0  0  0  0  0  0  0  0  0
   21.6776   44.6861   -6.7535 C   0  0  0  0  0  0  0  0  0  0  0  0
   23.7758   43.5156   -7.5952 C   0  0  0  0  0  0  0  0  0  0  0  0
   24.8649   43.3508   -7.0584 O   0  0  0  0  0  0  0  0  0  0  0  0
   23.6963   43.6312   -8.9292 N   0  0  0  0  0  0  0  0  0  0  0  0
   22.5447   43.6701   -9.8297 C   0  0  1  0  0  0  0  0  0  0  0  0
   22.6949   44.9780  -10.6546 C   0  0  0  0  0  0  0  0  0  0  0  0
   22.5450   42.3364  -10.6433 C   0  0  2  0  0  0  0  0  0  0  0  0
   22.4600   42.5499  -12.0378 O   0  0  0  0  0  0  0  0  0  0  0  0
   21.4203   41.3519  -10.2475 C   0  0  0  0  0  0  0  0  0  0  0  0
   21.5726   40.8750   -8.8672 N   0  0  0  0  0  0  0  0  0  0  0  0
   21.0777   39.5216   -8.5975 C   0  0  0  0  0  0  0  0  0  0  0  0
   22.0704   38.5766   -7.9514 C   0  0  0  0  0  0  0  0  0  0  0  0
   21.6761   38.3702   -9.3849 C   0  0  0  0  0  0  0  0  0  0  0  0
   19.6312   39.4546   -8.1755 C   0  0  0  0  0  0  0  0  0  0  0  0
   18.5421   39.7835   -9.0156 C   0  0  0  0  0  0  0  0  0  0  0  0
   17.2081   39.6505   -8.5418 C   0  0  0  0  0  0  0  0  0  0  0  0
   17.0232   39.1423   -7.2378 C   0  0  0  0  0  0  0  0  0  0  0  0
   18.1357   38.8320   -6.4402 C   0  0  0  0  0  0  0  0  0  0  0  0
   19.3791   39.0267   -6.9186 N   0  3  0  0  0  0  0  0  0  0  0  0
   15.9754   40.0583   -9.3665 C   0  0  0  0  0  0  0  0  0  0  0  0
   15.0028   38.8658   -9.4920 C   0  0  0  0  0  0  0  0  0  0  0  0
   15.2501   41.2172   -8.6512 C   0  0  0  0  0  0  0  0  0  0  0  0
   16.3457   40.5315  -10.7885 C   0  0  0  0  0  0  0  0  0  0  0  0
   20.9892   41.4877   -3.9290 C   0  0  0  0  0  0  0  0  0  0  0  0
   20.8622   40.3447   -4.3722 O   0  0  0  0  0  0  0  0  0  0  0  0
   20.7827   41.8192   -2.6339 N   0  0  0  0  0  0  0  0  0  0  0  0
   21.4146   42.9499   -1.9511 C   0  0  0  0  0  0  0  0  0  0  0  0
   19.8886   41.0420   -1.7851 C   0  0  0  0  0  0  0  0  0  0  0  0
   21.0668   44.6520  -12.0399 H   0  0  0  0  0  0  0  0  0  0  0  0
   21.6285   43.7148   -9.2479 H   0  0  0  0  0  0  0  0  0  0  0  0
   23.4992   41.8243  -10.5104 H   0  0  0  0  0  0  0  0  0  0  0  0
   22.6592   46.2508  -13.0902 H   0  0  0  0  0  0  0  0  0  0  0  0
   21.0552   46.9507  -13.0148 H   0  0  0  0  0  0  0  0  0  0  0  0
   22.2861   47.4522  -11.8598 H   0  0  0  0  0  0  0  0  0  0  0  0
   20.7105   46.7669   -9.8872 H   0  0  0  0  0  0  0  0  0  0  0  0
   20.1132   45.1314   -9.7972 H   0  0  0  0  0  0  0  0  0  0  0  0
   19.1346   47.2249  -11.7799 H   0  0  0  0  0  0  0  0  0  0  0  0
   18.7263   45.5303  -11.8571 H   0  0  0  0  0  0  0  0  0  0  0  0
   16.9247   46.5311  -10.6730 H   0  0  0  0  0  0  0  0  0  0  0  0
   17.8523   45.6728   -9.4901 H   0  0  0  0  0  0  0  0  0  0  0  0
   19.0439   48.1354   -9.2092 H   0  0  0  0  0  0  0  0  0  0  0  0
   17.5591   48.6460   -9.9341 H   0  0  0  0  0  0  0  0  0  0  0  0
   16.4861   47.0509   -8.0287 H   0  0  0  0  0  0  0  0  0  0  0  0
   16.8615   48.7327   -7.7648 H   0  0  0  0  0  0  0  0  0  0  0  0
   18.9638   48.2376   -6.6606 H   0  0  0  0  0  0  0  0  0  0  0  0
   17.6602   47.3864   -5.8848 H   0  0  0  0  0  0  0  0  0  0  0  0
   18.3466   45.2791   -7.1397 H   0  0  0  0  0  0  0  0  0  0  0  0
   19.7038   46.1848   -7.7998 H   0  0  0  0  0  0  0  0  0  0  0  0
   19.6202   43.8038   -4.1786 H   0  0  0  0  0  0  0  0  0  0  0  0
   22.9686   41.6623   -5.7996 H   0  0  0  0  0  0  0  0  0  0  0  0
   21.8649   45.4988   -7.4386 H   0  0  0  0  0  0  0  0  0  0  0  0
   24.5891   43.6095   -9.3982 H   0  0  0  0  0  0  0  0  0  0  0  0
   23.5345   44.8561  -11.3415 H   0  0  0  0  0  0  0  0  0  0  0  0
   22.9949   45.7860   -9.9846 H   0  0  0  0  0  0  0  0  0  0  0  0
   22.9707   41.8719  -12.4739 H   0  0  0  0  0  0  0  0  0  0  0  0
   21.4534   40.5099  -10.9397 H   0  0  0  0  0  0  0  0  0  0  0  0
   20.4439   41.8179  -10.3816 H   0  0  0  0  0  0  0  0  0  0  0  0
   22.5409   40.9454   -8.5720 H   0  0  0  0  0  0  0  0  0  0  0  0
   23.0764   38.9500   -7.7708 H   0  0  0  0  0  0  0  0  0  0  0  0
   21.7163   37.8367   -7.2363 H   0  0  0  0  0  0  0  0  0  0  0  0
   21.0321   37.5223   -9.6076 H   0  0  0  0  0  0  0  0  0  0  0  0
   22.4584   38.5696  -10.1158 H   0  0  0  0  0  0  0  0  0  0  0  0
   18.7560   40.1399  -10.0088 H   0  0  0  0  0  0  0  0  0  0  0  0
   16.0356   39.0080   -6.8136 H   0  0  0  0  0  0  0  0  0  0  0  0
   18.0616   38.4622   -5.4283 H   0  0  0  0  0  0  0  0  0  0  0  0
   15.4638   38.0285  -10.0159 H   0  0  0  0  0  0  0  0  0  0  0  0
   14.1021   39.1483  -10.0389 H   0  0  0  0  0  0  0  0  0  0  0  0
   14.6678   38.4992   -8.5200 H   0  0  0  0  0  0  0  0  0  0  0  0
   15.9049   42.0809   -8.5298 H   0  0  0  0  0  0  0  0  0  0  0  0
   14.9035   40.9307   -7.6569 H   0  0  0  0  0  0  0  0  0  0  0  0
   14.3711   41.5411   -9.2104 H   0  0  0  0  0  0  0  0  0  0  0  0
   16.9746   41.4212  -10.7659 H   0  0  0  0  0  0  0  0  0  0  0  0
   15.4576   40.7833  -11.3669 H   0  0  0  0  0  0  0  0  0  0  0  0
   16.8774   39.7554  -11.3364 H   0  0  0  0  0  0  0  0  0  0  0  0
   20.6602   43.5888   -1.4824 H   0  0  0  0  0  0  0  0  0  0  0  0
   22.0377   43.5766   -2.5944 H   0  0  0  0  0  0  0  0  0  0  0  0
   22.0601   42.5545   -1.1651 H   0  0  0  0  0  0  0  0  0  0  0  0
   20.0602   41.2225   -0.7256 H   0  0  0  0  0  0  0  0  0  0  0  0
   19.9797   39.9726   -1.9571 H   0  0  0  0  0  0  0  0  0  0  0  0
   18.8626   41.3502   -2.0000 H   0  0  0  0  0  0  0  0  0  0  0  0
   20.1700   38.8307   -6.3033 H   0  0  0  0  0  0  0  0  0  0  0  0
  1  2  1  0  0  0  0
  1 47  1  0  0  0  0
  1 48  1  0  0  0  0
  1 49  1  0  0  0  0
  2 44  1  6  0  0  0
  2 21  1  0  0  0  0
  2  3  1  0  0  0  0
  3  4  1  0  0  0  0
  3 50  1  0  0  0  0
  3 51  1  0  0  0  0
  4  5  1  0  0  0  0
  4 52  1  0  0  0  0
  4 53  1  0  0  0  0
  5  6  1  0  0  0  0
  5 54  1  0  0  0  0
  5 55  1  0  0  0  0
  6  7  1  0  0  0  0
  6 56  1  0  0  0  0
  6 57  1  0  0  0  0
  7  8  1  0  0  0  0
  7 58  1  0  0  0  0
  7 59  1  0  0  0  0
  8  9  1  0  0  0  0
  8 60  1  0  0  0  0
  8 61  1  0  0  0  0
  9 10  1  0  0  0  0
  9 62  1  0  0  0  0
  9 63  1  0  0  0  0
 10 11  1  0  0  0  0
 11 16  1  0  0  0  0
 11 12  2  0  0  0  0
 12 13  1  0  0  0  0
 12 64  1  0  0  0  0
 13 14  2  0  0  0  0
 13 39  1  0  0  0  0
 14 15  1  0  0  0  0
 14 65  1  0  0  0  0
 15 16  2  0  0  0  0
 15 17  1  0  0  0  0
 16 66  1  0  0  0  0
 17 18  2  0  0  0  0
 17 19  1  0  0  0  0
 19 20  1  0  0  0  0
 19 67  1  0  0  0  0
 20 45  1  1  0  0  0
 20 21  1  0  0  0  0
 20 22  1  0  0  0  0
 21 68  1  0  0  0  0
 21 69  1  0  0  0  0
 22 46  1  1  0  0  0
 22 23  1  0  0  0  0
 22 24  1  0  0  0  0
 23 70  1  0  0  0  0
 24 25  1  0  0  0  0
 24 71  1  0  0  0  0
 24 72  1  0  0  0  0
 25 26  1  0  0  0  0
 25 73  1  0  0  0  0
 26 28  1  0  0  0  0
 26 27  1  0  0  0  0
 26 29  1  0  0  0  0
 27 28  1  0  0  0  0
 27 74  1  0  0  0  0
 27 75  1  0  0  0  0
 28 76  1  0  0  0  0
 28 77  1  0  0  0  0
 29 34  1  0  0  0  0
 29 30  2  0  0  0  0
 30 31  1  0  0  0  0
 30 78  1  0  0  0  0
 31 32  2  0  0  0  0
 31 35  1  0  0  0  0
 32 33  1  0  0  0  0
 32 79  1  0  0  0  0
 33 34  2  0  0  0  0
 33 80  1  0  0  0  0
 34 96  1  0  0  0  0
 35 36  1  0  0  0  0
 35 37  1  0  0  0  0
 35 38  1  0  0  0  0
 36 81  1  0  0  0  0
 36 82  1  0  0  0  0
 36 83  1  0  0  0  0
 37 84  1  0  0  0  0
 37 85  1  0  0  0  0
 37 86  1  0  0  0  0
 38 87  1  0  0  0  0
 38 88  1  0  0  0  0
 38 89  1  0  0  0  0
 39 40  2  0  0  0  0
 39 41  1  0  0  0  0
 41 42  1  0  0  0  0
 41 43  1  0  0  0  0
 42 90  1  0  0  0  0
 42 91  1  0  0  0  0
 42 92  1  0  0  0  0
 43 93  1  0  0  0  0
 43 94  1  0  0  0  0
 43 95  1  0  0  0  0
M  CHG  1  34   1
M  END
>  <s_m_source_file>
BACE_83.smi

>  <i_m_source_file_index>
1

>  <i_lp_mmshare_version>
42013

>  <i_f3d_flags>
0

>  <s_epik_input>
TzFbQ0gyXVtDSDJdW0NIMl1bQ0gyXVtDSDJdW0NIMl1bQ0gyXVtDQEBIXShbQ0gzXSlbQ0gyXVtDQEhdKFtOSF1DKD1PKWMoW2NIXTIpW2NIXWMoW2NIXWMxMilDKD1PKU4oW0NIM10pW0NIM10pW0NASF0oW09IXSlbQ0gyXVtOSF1DMyhbQ0gyXVtDSDJdMyljNFtjSF1jKFtjSF1bY0hdbjQpQyhbQ0gzXSkoW0NIM10pW0NIM10=

>  <s_epik_cmdline>
J2VwaWtfcHl0aG9uJywgJy1waCcsICc3LjAnLCAnLXRuJywgJzgnLCAnLW1hJywgJzIwMCcsICctaW1hZScsICc8aW5maWxlLm1hZT4nLCAnLW9tYWUnLCAnPG91dGZpbGUubWFlPic=

>  <r_epik_Ionization_Penalty>
2.3769

>  <r_epik_Ionization_Penalty_Charging>
2.3769

>  <r_epik_Ionization_Penalty_Neutral>
0.0000

>  <r_epik_State_Penalty>
1.5172

>  <r_epik_Charging_Adjusted_Penalty>
3.89406

>  <i_epik_Tot_Q>
1

>  <i_epik_Tot_abs_Q>
1

>  <s_lp_Force_Field>
OPLS_2005

>  <r_lp_Energy>
73.3534

>  <b_lp_Chiralities_Consistent>
1

>  <s_lp_Variant>
BACE_83.smi:1-2

>  <chiral flag>
1

>  <version>
0

>  <s_i_glide_gridfile>
second_dock_grid_2

>  <i_i_glide_lignum>
168

>  <i_i_glide_rotatable_bonds>
9

>  <r_i_docking_score>
-3.33601

>  <r_i_glide_ligand_efficiency>
-0.0775817

>  <r_i_glide_ligand_efficiency_sa>
-0.2718

>  <r_i_glide_ligand_efficiency_ln>
-0.700666

>  <r_glide_XP_GScore>
-4.85321

>  <r_i_glide_gscore>
-4.85321

>  <r_i_glide_evdw>
-44.9243

>  <r_i_glide_ecoul>
-8.4807

>  <r_i_glide_energy>
-53.405

>  <r_i_glide_einternal>
6.15253

>  <r_i_glide_emodel>
-67.2413

>  <r_glide_XP_HBond>
-1.73831

>  <i_i_glide_confnum>
1

>  <i_i_glide_posenum>
3

>  <r_i_glide_eff_state_penalty>
1.5172

>  <i_glide_XP_PoseRank>
1

$$$$
