BACE_116.smi:1
 OpenBabel09291822493D
Structure written by MMmdl.
 83 86  0  0  1  0  0  0  0  0999 V2000
   15.2042   39.1130   -7.2208 C   0  0  0  0  0  0  0  0  0  0  0  0
   15.9480   40.0369   -8.1927 C   0  0  0  0  0  0  0  0  0  0  0  0
   15.1081   40.3225   -9.4493 C   0  0  0  0  0  0  0  0  0  0  0  0
   17.3312   39.4864   -8.5269 C   0  0  0  0  0  0  0  0  0  0  0  0
   17.4811   38.3939   -9.4055 C   0  0  0  0  0  0  0  0  0  0  0  0
   18.7622   37.8876   -9.6893 C   0  0  0  0  0  0  0  0  0  0  0  0
   19.9000   38.4562   -9.0896 C   0  0  0  0  0  0  0  0  0  0  0  0
   19.7739   39.5447   -8.1916 C   0  0  0  0  0  0  0  0  0  0  0  0
   18.4762   40.0491   -7.9247 C   0  0  0  0  0  0  0  0  0  0  0  0
   21.0296   40.1165   -7.5048 C   0  0  0  0  0  0  0  0  0  0  0  0
   20.7532   41.4446   -6.7585 C   0  0  0  0  0  0  0  0  0  0  0  0
   21.5299   39.1020   -6.4594 C   0  0  0  0  0  0  0  0  0  0  0  0
   22.1271   40.3382   -8.4630 N   0  0  0  0  0  0  0  0  0  0  0  0
   21.8638   41.2194   -9.6066 C   0  0  0  0  0  0  0  0  0  0  0  0
   23.1683   41.6355  -10.3087 C   0  0  1  0  0  0  0  0  0  0  0  0
   22.7678   42.2786  -11.4988 O   0  0  0  0  0  0  0  0  0  0  0  0
   24.0320   42.5976   -9.4400 C   0  0  2  0  0  0  0  0  0  0  0  0
   23.5384   44.0645   -9.3857 C   0  0  0  0  0  0  0  0  0  0  0  0
   24.1290   44.8385   -8.2179 C   0  0  0  0  0  0  0  0  0  0  0  0
   23.4058   44.9771   -7.0145 C   0  0  0  0  0  0  0  0  0  0  0  0
   23.9677   45.6809   -5.9299 C   0  0  0  0  0  0  0  0  0  0  0  0
   23.2577   45.8254   -4.7829 F   0  0  0  0  0  0  0  0  0  0  0  0
   25.2629   46.2305   -6.0310 C   0  0  0  0  0  0  0  0  0  0  0  0
   25.7992   46.9076   -4.9348 N   0  0  0  0  0  0  0  0  0  0  0  0
   26.0007   46.0767   -7.2288 C   0  0  0  0  0  0  0  0  0  0  0  0
   27.4260   46.5848   -7.3722 C   0  0  0  0  0  0  0  0  0  0  0  0
   28.4545   45.6136   -6.7603 C   0  0  0  0  0  0  0  0  0  0  0  0
   29.8977   45.8865   -7.2171 C   0  0  0  0  0  0  0  0  0  0  0  0
   30.1976   45.4558   -8.6659 C   0  0  0  0  0  0  0  0  0  0  0  0
   30.4652   44.0259   -8.7827 N   0  0  0  0  0  0  0  0  0  0  0  0
   29.7417   43.3064   -9.7404 C   0  0  0  0  0  0  0  0  0  0  0  0
   30.4370   42.4993  -10.6622 C   0  0  0  0  0  0  0  0  0  0  0  0
   29.7343   41.7643  -11.6350 C   0  0  0  0  0  0  0  0  0  0  0  0
   28.3299   41.8343  -11.6893 C   0  0  0  0  0  0  0  0  0  0  0  0
   27.6171   42.6194  -10.7634 C   0  0  0  0  0  0  0  0  0  0  0  0
   28.3312   43.3583   -9.7921 C   0  0  0  0  0  0  0  0  0  0  0  0
   26.1255   42.7029  -10.8517 C   0  0  0  0  0  0  0  0  0  0  0  0
   25.5748   42.9499  -11.9257 O   0  0  0  0  0  0  0  0  0  0  0  0
   25.4737   42.4956   -9.6970 N   0  0  0  0  0  0  0  0  0  0  0  0
   25.4129   45.4038   -8.3214 C   0  0  0  0  0  0  0  0  0  0  0  0
   23.7341   40.7388  -10.5692 H   0  0  0  0  0  0  0  0  0  0  0  0
   23.9542   42.2191   -8.4222 H   0  0  0  0  0  0  0  0  0  0  0  0
   15.7846   38.9528   -6.3116 H   0  0  0  0  0  0  0  0  0  0  0  0
   15.0087   38.1346   -7.6598 H   0  0  0  0  0  0  0  0  0  0  0  0
   14.2458   39.5386   -6.9194 H   0  0  0  0  0  0  0  0  0  0  0  0
   16.0890   40.9915   -7.6824 H   0  0  0  0  0  0  0  0  0  0  0  0
   15.6282   41.0045  -10.1214 H   0  0  0  0  0  0  0  0  0  0  0  0
   14.1513   40.7797   -9.1891 H   0  0  0  0  0  0  0  0  0  0  0  0
   14.8831   39.4102  -10.0042 H   0  0  0  0  0  0  0  0  0  0  0  0
   16.6178   37.9358   -9.8610 H   0  0  0  0  0  0  0  0  0  0  0  0
   18.8601   37.0549  -10.3679 H   0  0  0  0  0  0  0  0  0  0  0  0
   20.8725   38.0441   -9.3084 H   0  0  0  0  0  0  0  0  0  0  0  0
   18.3330   40.8710   -7.2403 H   0  0  0  0  0  0  0  0  0  0  0  0
   20.0672   41.2970   -5.9255 H   0  0  0  0  0  0  0  0  0  0  0  0
   20.3238   42.2088   -7.4041 H   0  0  0  0  0  0  0  0  0  0  0  0
   21.6688   41.8535   -6.3357 H   0  0  0  0  0  0  0  0  0  0  0  0
   20.7850   38.9493   -5.6794 H   0  0  0  0  0  0  0  0  0  0  0  0
   22.4441   39.4444   -5.9728 H   0  0  0  0  0  0  0  0  0  0  0  0
   21.7381   38.1304   -6.9091 H   0  0  0  0  0  0  0  0  0  0  0  0
   22.5574   39.4636   -8.7466 H   0  0  0  0  0  0  0  0  0  0  0  0
   21.2174   40.7042  -10.3170 H   0  0  0  0  0  0  0  0  0  0  0  0
   21.3250   42.1109   -9.2943 H   0  0  0  0  0  0  0  0  0  0  0  0
   23.3806   42.0150  -12.1809 H   0  0  0  0  0  0  0  0  0  0  0  0
   23.7693   44.5806  -10.3171 H   0  0  0  0  0  0  0  0  0  0  0  0
   22.4538   44.0903   -9.2951 H   0  0  0  0  0  0  0  0  0  0  0  0
   22.4221   44.5437   -6.9177 H   0  0  0  0  0  0  0  0  0  0  0  0
   26.7984   47.0399   -4.8996 H   0  0  0  0  0  0  0  0  0  0  0  0
   25.3921   46.6783   -4.0387 H   0  0  0  0  0  0  0  0  0  0  0  0
   27.6274   46.7307   -8.4328 H   0  0  0  0  0  0  0  0  0  0  0  0
   27.5208   47.5726   -6.9198 H   0  0  0  0  0  0  0  0  0  0  0  0
   28.3971   45.6802   -5.6733 H   0  0  0  0  0  0  0  0  0  0  0  0
   28.1970   44.5818   -7.0002 H   0  0  0  0  0  0  0  0  0  0  0  0
   30.0988   46.9533   -7.1104 H   0  0  0  0  0  0  0  0  0  0  0  0
   30.5968   45.3900   -6.5409 H   0  0  0  0  0  0  0  0  0  0  0  0
   29.4110   45.7755   -9.3487 H   0  0  0  0  0  0  0  0  0  0  0  0
   31.1007   45.9695   -8.9976 H   0  0  0  0  0  0  0  0  0  0  0  0
   31.4445   43.7893   -8.7139 H   0  0  0  0  0  0  0  0  0  0  0  0
   31.5173   42.4501  -10.6362 H   0  0  0  0  0  0  0  0  0  0  0  0
   30.2695   41.1572  -12.3463 H   0  0  0  0  0  0  0  0  0  0  0  0
   27.7972   41.2672  -12.4371 H   0  0  0  0  0  0  0  0  0  0  0  0
   27.7887   43.9677   -9.0893 H   0  0  0  0  0  0  0  0  0  0  0  0
   26.0472   42.2840   -8.8950 H   0  0  0  0  0  0  0  0  0  0  0  0
   25.9635   45.2995   -9.2455 H   0  0  0  0  0  0  0  0  0  0  0  0
  1  2  1  0  0  0  0
  1 43  1  0  0  0  0
  1 44  1  0  0  0  0
  1 45  1  0  0  0  0
  2  3  1  0  0  0  0
  2  4  1  0  0  0  0
  2 46  1  0  0  0  0
  3 47  1  0  0  0  0
  3 48  1  0  0  0  0
  3 49  1  0  0  0  0
  4  9  1  0  0  0  0
  4  5  2  0  0  0  0
  5  6  1  0  0  0  0
  5 50  1  0  0  0  0
  6  7  2  0  0  0  0
  6 51  1  0  0  0  0
  7  8  1  0  0  0  0
  7 52  1  0  0  0  0
  8  9  2  0  0  0  0
  8 10  1  0  0  0  0
  9 53  1  0  0  0  0
 10 11  1  0  0  0  0
 10 12  1  0  0  0  0
 10 13  1  0  0  0  0
 11 54  1  0  0  0  0
 11 55  1  0  0  0  0
 11 56  1  0  0  0  0
 12 57  1  0  0  0  0
 12 58  1  0  0  0  0
 12 59  1  0  0  0  0
 13 14  1  0  0  0  0
 13 60  1  0  0  0  0
 14 15  1  0  0  0  0
 14 61  1  0  0  0  0
 14 62  1  0  0  0  0
 15 41  1  6  0  0  0
 15 16  1  0  0  0  0
 15 17  1  0  0  0  0
 16 63  1  0  0  0  0
 17 42  1  1  0  0  0
 17 39  1  0  0  0  0
 17 18  1  0  0  0  0
 18 19  1  0  0  0  0
 18 64  1  0  0  0  0
 18 65  1  0  0  0  0
 19 40  1  0  0  0  0
 19 20  2  0  0  0  0
 20 21  1  0  0  0  0
 20 66  1  0  0  0  0
 21 22  1  0  0  0  0
 21 23  2  0  0  0  0
 23 24  1  0  0  0  0
 23 25  1  0  0  0  0
 24 67  1  0  0  0  0
 24 68  1  0  0  0  0
 25 26  1  0  0  0  0
 25 40  2  0  0  0  0
 26 27  1  0  0  0  0
 26 69  1  0  0  0  0
 26 70  1  0  0  0  0
 27 28  1  0  0  0  0
 27 71  1  0  0  0  0
 27 72  1  0  0  0  0
 28 29  1  0  0  0  0
 28 73  1  0  0  0  0
 28 74  1  0  0  0  0
 29 30  1  0  0  0  0
 29 75  1  0  0  0  0
 29 76  1  0  0  0  0
 30 31  1  0  0  0  0
 30 77  1  0  0  0  0
 31 36  1  0  0  0  0
 31 32  2  0  0  0  0
 32 33  1  0  0  0  0
 32 78  1  0  0  0  0
 33 34  2  0  0  0  0
 33 79  1  0  0  0  0
 34 35  1  0  0  0  0
 34 80  1  0  0  0  0
 35 36  2  0  0  0  0
 35 37  1  0  0  0  0
 36 81  1  0  0  0  0
 37 38  2  0  0  0  0
 37 39  1  0  0  0  0
 39 82  1  0  0  0  0
 40 83  1  0  0  0  0
M  END
>  <s_m_source_file>
BACE_116.smi

>  <i_m_source_file_index>
1

>  <i_lp_mmshare_version>
42013

>  <i_f3d_flags>
0

>  <s_epik_input>
W0NIM11bQ0hdKFtDSDNdKWMxW2NIXVtjSF1bY0hdYyhbY0hdMSlDKFtDSDNdKShbQ0gzXSlbTkhdW0NIMl1bQ0BASF0oW09IXSlbQ0BIXShbQ0gyXTIpW05IXUMoPU8pYyhbY0hdMylbY0hdW2NIXVtjSF1jM1tOSF1bQ0gyXVtDSDJdW0NIMl1bQ0gyXWMoW2NIXTQpYyhbTkgyXSljKEYpW2NIXWMyNA==

>  <s_epik_cmdline>
J2VwaWtfcHl0aG9uJywgJy1waCcsICc3LjAnLCAnLXRuJywgJzgnLCAnLW1hJywgJzIwMCcsICctaW1hZScsICc8aW5maWxlLm1hZT4nLCAnLW9tYWUnLCAnPG91dGZpbGUubWFlPic=

>  <r_epik_Ionization_Penalty>
2.0463

>  <r_epik_Ionization_Penalty_Charging>
0.0000

>  <r_epik_Ionization_Penalty_Neutral>
2.0463

>  <r_epik_State_Penalty>
2.1759

>  <r_epik_Charging_Adjusted_Penalty>
2.17586

>  <i_epik_Tot_Q>
0

>  <i_epik_Tot_abs_Q>
0

>  <s_lp_Force_Field>
OPLS_2005

>  <r_lp_Energy>
44.0271

>  <b_lp_Chiralities_Consistent>
1

>  <s_lp_Variant>
BACE_116.smi:1-2

>  <chiral flag>
1

>  <version>
0

>  <s_i_glide_gridfile>
second_dock_grid_2

>  <i_i_glide_lignum>
237

>  <i_i_glide_rotatable_bonds>
7

>  <r_i_docking_score>
-2.16264

>  <r_i_glide_ligand_efficiency>
-0.054066

>  <r_i_glide_ligand_efficiency_sa>
-0.184903

>  <r_i_glide_ligand_efficiency_ln>
-0.461227

>  <r_glide_XP_GScore>
-4.33854

>  <r_i_glide_gscore>
-4.33854

>  <r_i_glide_evdw>
-40.4984

>  <r_i_glide_ecoul>
-5.35787

>  <r_i_glide_energy>
-45.8562

>  <r_i_glide_einternal>
4.44781

>  <r_i_glide_emodel>
-62.5967

>  <r_glide_XP_HBond>
-1.64927

>  <i_i_glide_confnum>
1

>  <i_i_glide_posenum>
3

>  <r_i_glide_eff_state_penalty>
2.1759

>  <i_glide_XP_PoseRank>
1

$$$$
