BACE_11.smi:1
 OpenBabel09291822493D
Structure written by MMmdl.
 80 82  0  0  1  0  0  0  0  0999 V2000
   21.5827   43.0832   -3.8375 C   0  0  0  0  0  0  0  0  0  0  0  0
   22.2473   42.4862   -5.0861 C   0  0  0  0  0  0  0  0  0  0  0  0
   22.8694   43.5714   -5.9777 C   0  0  0  0  0  0  0  0  0  0  0  0
   21.2781   41.6011   -5.8607 C   0  0  0  0  0  0  0  0  0  0  0  0
   20.1647   42.1579   -6.5317 C   0  0  0  0  0  0  0  0  0  0  0  0
   19.2647   41.3293   -7.2392 C   0  0  0  0  0  0  0  0  0  0  0  0
   18.0778   41.9225   -7.9752 C   0  0  0  0  0  0  0  0  0  0  0  0
   16.7869   41.3122   -7.6405 N   0  0  0  0  0  0  0  0  0  0  0  0
   15.5778   42.0571   -8.0404 C   0  0  0  0  0  0  0  0  0  0  0  0
   14.9264   41.5463   -9.3544 C   0  0  1  0  0  0  0  0  0  0  0  0
   13.6618   42.1524   -9.5683 O   0  0  0  0  0  0  0  0  0  0  0  0
   15.7194   41.7409  -10.6671 C   0  0  2  0  0  0  0  0  0  0  0  0
   16.2469   40.4255  -11.2873 C   0  0  0  0  0  0  0  0  0  0  0  0
   17.0596   39.4409  -10.4479 C   0  0  0  0  0  0  0  0  0  0  0  0
   18.4595   39.3831  -10.6274 C   0  0  0  0  0  0  0  0  0  0  0  0
   19.2389   38.3866   -9.9922 C   0  0  0  0  0  0  0  0  0  0  0  0
   18.5680   37.3609   -9.2875 C   0  0  0  0  0  0  0  0  0  0  0  0
   17.1750   37.4159   -9.0913 C   0  0  0  0  0  0  0  0  0  0  0  0
   16.4244   38.4664   -9.6443 C   0  0  0  0  0  0  0  0  0  0  0  0
   20.6233   38.3838   -9.9458 O   0  0  0  0  0  0  0  0  0  0  0  0
   21.3890   39.2017  -10.8338 C   0  0  0  0  0  0  0  0  0  0  0  0
   21.2931   40.7319  -10.6311 C   0  0  0  0  0  0  0  0  0  0  0  0
   22.4916   41.4302   -9.9764 C   0  0  0  0  0  0  0  0  0  0  0  0
   22.5142   42.9608  -10.2093 C   0  0  0  0  0  0  0  0  0  0  0  0
   21.3160   43.7611   -9.6368 C   0  0  0  0  0  0  0  0  0  0  0  0
   20.0739   43.8922  -10.5464 C   0  0  0  0  0  0  0  0  0  0  0  0
   20.0790   43.3339  -11.6391 O   0  0  0  0  0  0  0  0  0  0  0  0
   18.9997   44.6217  -10.1384 N   0  0  0  0  0  0  0  0  0  0  0  0
   18.9837   45.3340   -8.8541 C   0  0  0  0  0  0  0  0  0  0  0  0
   17.8780   44.9514  -11.0542 C   0  0  1  0  0  0  0  0  0  0  0  0
   18.3561   45.7786  -12.2712 C   0  0  0  0  0  0  0  0  0  0  0  0
   16.9666   43.7685  -11.4553 C   0  0  0  0  0  0  0  0  0  0  0  0
   16.4610   43.7514  -12.5746 O   0  0  0  0  0  0  0  0  0  0  0  0
   16.7293   42.8010  -10.5568 N   0  0  0  0  0  0  0  0  0  0  0  0
   19.4597   39.9377   -7.2159 C   0  0  0  0  0  0  0  0  0  0  0  0
   20.5694   39.3732   -6.5629 C   0  0  0  0  0  0  0  0  0  0  0  0
   21.4853   40.2058   -5.8944 C   0  0  0  0  0  0  0  0  0  0  0  0
   14.6860   40.4941   -9.2204 H   0  0  0  0  0  0  0  0  0  0  0  0
   15.0048   42.0873  -11.4168 H   0  0  0  0  0  0  0  0  0  0  0  0
   17.2039   45.6178  -10.5157 H   0  0  0  0  0  0  0  0  0  0  0  0
   21.1889   42.3024   -3.1884 H   0  0  0  0  0  0  0  0  0  0  0  0
   20.7585   43.7449   -4.0967 H   0  0  0  0  0  0  0  0  0  0  0  0
   22.2988   43.6609   -3.2559 H   0  0  0  0  0  0  0  0  0  0  0  0
   23.0657   41.8544   -4.7378 H   0  0  0  0  0  0  0  0  0  0  0  0
   23.3738   43.1261   -6.8349 H   0  0  0  0  0  0  0  0  0  0  0  0
   23.6106   44.1502   -5.4261 H   0  0  0  0  0  0  0  0  0  0  0  0
   22.1224   44.2686   -6.3571 H   0  0  0  0  0  0  0  0  0  0  0  0
   19.9981   43.2239   -6.4958 H   0  0  0  0  0  0  0  0  0  0  0  0
   18.0427   42.9905   -7.7614 H   0  0  0  0  0  0  0  0  0  0  0  0
   18.3032   41.7961   -9.0292 H   0  0  0  0  0  0  0  0  0  0  0  0
   16.7776   41.1674   -6.6285 H   0  0  0  0  0  0  0  0  0  0  0  0
   14.8391   41.9241   -7.2479 H   0  0  0  0  0  0  0  0  0  0  0  0
   15.7683   43.1328   -8.0747 H   0  0  0  0  0  0  0  0  0  0  0  0
   13.0274   41.7109   -8.9980 H   0  0  0  0  0  0  0  0  0  0  0  0
   15.3770   39.8723  -11.6384 H   0  0  0  0  0  0  0  0  0  0  0  0
   16.8183   40.6658  -12.1839 H   0  0  0  0  0  0  0  0  0  0  0  0
   18.9053   40.1221  -11.2722 H   0  0  0  0  0  0  0  0  0  0  0  0
   19.1297   36.5517   -8.8499 H   0  0  0  0  0  0  0  0  0  0  0  0
   16.6808   36.6549   -8.5026 H   0  0  0  0  0  0  0  0  0  0  0  0
   15.3526   38.4605   -9.5145 H   0  0  0  0  0  0  0  0  0  0  0  0
   22.4391   38.9011  -10.7354 H   0  0  0  0  0  0  0  0  0  0  0  0
   21.1052   38.9512  -11.8572 H   0  0  0  0  0  0  0  0  0  0  0  0
   21.1802   41.1469  -11.6315 H   0  0  0  0  0  0  0  0  0  0  0  0
   20.4087   41.0051  -10.0598 H   0  0  0  0  0  0  0  0  0  0  0  0
   22.5072   41.2099   -8.9068 H   0  0  0  0  0  0  0  0  0  0  0  0
   23.4133   41.0146  -10.3864 H   0  0  0  0  0  0  0  0  0  0  0  0
   23.4230   43.3455   -9.7457 H   0  0  0  0  0  0  0  0  0  0  0  0
   22.6392   43.1692  -11.2719 H   0  0  0  0  0  0  0  0  0  0  0  0
   21.0298   43.3169   -8.6912 H   0  0  0  0  0  0  0  0  0  0  0  0
   21.6571   44.7713   -9.4149 H   0  0  0  0  0  0  0  0  0  0  0  0
   19.4022   46.3330   -8.9797 H   0  0  0  0  0  0  0  0  0  0  0  0
   19.5408   44.8368   -8.0653 H   0  0  0  0  0  0  0  0  0  0  0  0
   17.9681   45.4412   -8.4769 H   0  0  0  0  0  0  0  0  0  0  0  0
   17.5126   46.2504  -12.7753 H   0  0  0  0  0  0  0  0  0  0  0  0
   18.8607   45.1605  -13.0117 H   0  0  0  0  0  0  0  0  0  0  0  0
   19.0396   46.5750  -11.9711 H   0  0  0  0  0  0  0  0  0  0  0  0
   17.1902   42.8632   -9.6622 H   0  0  0  0  0  0  0  0  0  0  0  0
   18.7237   39.2992   -7.6672 H   0  0  0  0  0  0  0  0  0  0  0  0
   20.7120   38.3021   -6.5662 H   0  0  0  0  0  0  0  0  0  0  0  0
   22.3319   39.7665   -5.3917 H   0  0  0  0  0  0  0  0  0  0  0  0
  1  2  1  0  0  0  0
  1 41  1  0  0  0  0
  1 42  1  0  0  0  0
  1 43  1  0  0  0  0
  2  3  1  0  0  0  0
  2  4  1  0  0  0  0
  2 44  1  0  0  0  0
  3 45  1  0  0  0  0
  3 46  1  0  0  0  0
  3 47  1  0  0  0  0
  4 37  1  0  0  0  0
  4  5  2  0  0  0  0
  5  6  1  0  0  0  0
  5 48  1  0  0  0  0
  6  7  1  0  0  0  0
  6 35  2  0  0  0  0
  7  8  1  0  0  0  0
  7 49  1  0  0  0  0
  7 50  1  0  0  0  0
  8  9  1  0  0  0  0
  8 51  1  0  0  0  0
  9 10  1  0  0  0  0
  9 52  1  0  0  0  0
  9 53  1  0  0  0  0
 10 38  1  1  0  0  0
 10 11  1  0  0  0  0
 10 12  1  0  0  0  0
 11 54  1  0  0  0  0
 12 39  1  6  0  0  0
 12 34  1  0  0  0  0
 12 13  1  0  0  0  0
 13 14  1  0  0  0  0
 13 55  1  0  0  0  0
 13 56  1  0  0  0  0
 14 19  1  0  0  0  0
 14 15  2  0  0  0  0
 15 16  1  0  0  0  0
 15 57  1  0  0  0  0
 16 17  2  0  0  0  0
 16 20  1  0  0  0  0
 17 18  1  0  0  0  0
 17 58  1  0  0  0  0
 18 19  2  0  0  0  0
 18 59  1  0  0  0  0
 19 60  1  0  0  0  0
 20 21  1  0  0  0  0
 21 22  1  0  0  0  0
 21 61  1  0  0  0  0
 21 62  1  0  0  0  0
 22 23  1  0  0  0  0
 22 63  1  0  0  0  0
 22 64  1  0  0  0  0
 23 24  1  0  0  0  0
 23 65  1  0  0  0  0
 23 66  1  0  0  0  0
 24 25  1  0  0  0  0
 24 67  1  0  0  0  0
 24 68  1  0  0  0  0
 25 26  1  0  0  0  0
 25 69  1  0  0  0  0
 25 70  1  0  0  0  0
 26 27  2  0  0  0  0
 26 28  1  0  0  0  0
 28 29  1  0  0  0  0
 28 30  1  0  0  0  0
 29 71  1  0  0  0  0
 29 72  1  0  0  0  0
 29 73  1  0  0  0  0
 30 40  1  1  0  0  0
 30 31  1  0  0  0  0
 30 32  1  0  0  0  0
 31 74  1  0  0  0  0
 31 75  1  0  0  0  0
 31 76  1  0  0  0  0
 32 33  2  0  0  0  0
 32 34  1  0  0  0  0
 34 77  1  0  0  0  0
 35 36  1  0  0  0  0
 35 78  1  0  0  0  0
 36 37  2  0  0  0  0
 36 79  1  0  0  0  0
 37 80  1  0  0  0  0
M  END
>  <s_m_source_file>
BACE_11.smi

>  <i_m_source_file_index>
1

>  <i_lp_mmshare_version>
42013

>  <i_f3d_flags>
0

>  <s_epik_input>
W0NIM11bQ0hdKFtDSDNdKWMxW2NIXWMoW2NIXVtjSF1bY0hdMSlbQ0gyXVtOSF1bQ0gyXVtDQEBIXShbT0hdKVtDQEhdKFtDSDJdMilbTkhdQyg9TylbQ0BIXShbQ0gzXSlOKFtDSDNdKUMoPU8pW0NIMl1bQ0gyXVtDSDJdW0NIMl1bQ0gyXU9jKFtjSF1jMjMpW2NIXVtjSF1bY0hdMw==

>  <s_epik_cmdline>
J2VwaWtfcHl0aG9uJywgJy1waCcsICc3LjAnLCAnLXRuJywgJzgnLCAnLW1hJywgJzIwMCcsICctaW1hZScsICc8aW5maWxlLm1hZT4nLCAnLW9tYWUnLCAnPG91dGZpbGUubWFlPic=

>  <r_lp_tautomer_probability>
1

>  <r_epik_Ionization_Penalty>
1.9888

>  <r_epik_Ionization_Penalty_Charging>
0.0000

>  <r_epik_Ionization_Penalty_Neutral>
1.9888

>  <r_epik_State_Penalty>
2.1166

>  <r_epik_Charging_Adjusted_Penalty>
2.11661

>  <i_epik_Tot_Q>
0

>  <i_epik_Tot_abs_Q>
0

>  <s_lp_Force_Field>
OPLS_2005

>  <r_lp_Energy>
43.4478

>  <b_lp_Chiralities_Consistent>
1

>  <s_lp_Variant>
BACE_11.smi:1-2

>  <chiral flag>
1

>  <version>
0

>  <s_i_glide_gridfile>
second_dock_grid_2

>  <i_i_glide_lignum>
19

>  <i_i_glide_rotatable_bonds>
7

>  <r_i_docking_score>
-3.13508

>  <r_i_glide_ligand_efficiency>
-0.0847319

>  <r_i_glide_ligand_efficiency_sa>
-0.282346

>  <r_i_glide_ligand_efficiency_ln>
-0.679926

>  <r_glide_XP_GScore>
-5.25168

>  <r_i_glide_gscore>
-5.25168

>  <r_i_glide_evdw>
-27.9043

>  <r_i_glide_ecoul>
-14.5816

>  <r_i_glide_energy>
-42.4859

>  <r_i_glide_einternal>
5.52261

>  <r_i_glide_emodel>
-58.5566

>  <r_glide_XP_HBond>
-0.0713312

>  <i_i_glide_confnum>
1

>  <i_i_glide_posenum>
1

>  <r_i_glide_eff_state_penalty>
2.1166

>  <i_glide_XP_PoseRank>
1

$$$$
