BACE_96.smi:1
 OpenBabel09291822493D
Structure written by MMmdl.
 84 87  0  0  1  0  0  0  0  0999 V2000
   23.0909   48.1132   -6.6332 C   0  0  0  0  0  0  0  0  0  0  0  0
   23.4605   46.8136   -5.8950 C   0  0  0  0  0  0  0  0  0  0  0  0
   24.9964   46.7295   -5.7931 C   0  0  0  0  0  0  0  0  0  0  0  0
   22.8680   46.8727   -4.4745 C   0  0  0  0  0  0  0  0  0  0  0  0
   22.9155   45.6068   -6.7130 C   0  0  0  0  0  0  0  0  0  0  0  0
   22.6559   44.3267   -5.9765 C   0  0  0  0  0  0  0  0  0  0  0  0
   21.5890   43.4707   -5.9407 C   0  0  0  0  0  0  0  0  0  0  0  0
   22.0750   42.3511   -5.2019 C   0  0  0  0  0  0  0  0  0  0  0  0
   23.2632   42.6028   -4.6902 N   0  0  0  0  0  0  0  0  0  0  0  0
   23.6723   43.8191   -5.2399 O   0  0  0  0  0  0  0  0  0  0  0  0
   21.3607   41.0537   -4.8871 C   0  0  0  0  0  0  0  0  0  0  0  0
   22.3432   39.9155   -4.4857 C   0  0  0  0  0  0  0  0  0  0  0  0
   20.4585   41.3108   -3.6722 C   0  0  0  0  0  0  0  0  0  0  0  0
   20.5206   40.7241   -6.0828 N   0  3  0  0  0  0  0  0  0  0  0  0
   20.9004   39.6114   -7.0038 C   0  0  0  0  0  0  0  0  0  0  0  0
   22.1499   39.8204   -7.9270 C   0  0  1  0  0  0  0  0  0  0  0  0
   22.4597   38.5494   -8.4380 O   0  0  0  0  0  0  0  0  0  0  0  0
   22.0957   40.7441   -9.1833 C   0  0  2  0  0  0  0  0  0  0  0  0
   22.9617   42.0028   -8.9583 C   0  0  0  0  0  0  0  0  0  0  0  0
   22.8034   43.1289   -9.9630 C   0  0  0  0  0  0  0  0  0  0  0  0
   21.8839   44.1718   -9.7249 C   0  0  0  0  0  0  0  0  0  0  0  0
   21.7657   45.2409  -10.6325 C   0  0  0  0  0  0  0  0  0  0  0  0
   22.6057   45.2820  -11.7682 C   0  0  0  0  0  0  0  0  0  0  0  0
   23.5217   44.2412  -12.0126 C   0  0  0  0  0  0  0  0  0  0  0  0
   23.6158   43.1631  -11.1136 C   0  0  0  0  0  0  0  0  0  0  0  0
   20.7960   46.1871  -10.4043 O   0  0  0  0  0  0  0  0  0  0  0  0
   19.8567   46.3636  -11.4644 C   0  0  0  0  0  0  0  0  0  0  0  0
   19.1091   45.0447  -11.7293 C   0  0  0  0  0  0  0  0  0  0  0  0
   18.0305   45.1142  -12.8142 C   0  0  0  0  0  0  0  0  0  0  0  0
   17.4564   43.7248  -13.1302 C   0  0  0  0  0  0  0  0  0  0  0  0
   16.5893   43.2963  -12.0826 O   0  0  0  0  0  0  0  0  0  0  0  0
   16.9268   42.1618  -11.3746 C   0  0  0  0  0  0  0  0  0  0  0  0
   15.8778   41.3835  -10.8407 C   0  0  0  0  0  0  0  0  0  0  0  0
   16.1512   40.1772  -10.1673 C   0  0  0  0  0  0  0  0  0  0  0  0
   14.8601   39.2144   -9.5552 Cl  0  0  0  0  0  0  0  0  0  0  0  0
   17.4799   39.7539   -9.9904 C   0  0  0  0  0  0  0  0  0  0  0  0
   18.5403   40.5531  -10.4615 C   0  0  0  0  0  0  0  0  0  0  0  0
   18.2618   41.7447  -11.1568 C   0  0  0  0  0  0  0  0  0  0  0  0
   19.9505   40.1202  -10.2420 C   0  0  0  0  0  0  0  0  0  0  0  0
   20.3016   38.9762  -10.5242 O   0  0  0  0  0  0  0  0  0  0  0  0
   20.7341   41.0291   -9.6320 N   0  0  0  0  0  0  0  0  0  0  0  0
   23.0152   40.0971   -7.3314 H   0  0  0  0  0  0  0  0  0  0  0  0
   22.5806   40.2543  -10.0325 H   0  0  0  0  0  0  0  0  0  0  0  0
   23.4960   48.9896   -6.1245 H   0  0  0  0  0  0  0  0  0  0  0  0
   22.0085   48.2449   -6.6975 H   0  0  0  0  0  0  0  0  0  0  0  0
   23.4847   48.1165   -7.6530 H   0  0  0  0  0  0  0  0  0  0  0  0
   25.4644   46.6995   -6.7765 H   0  0  0  0  0  0  0  0  0  0  0  0
   25.3125   45.8351   -5.2542 H   0  0  0  0  0  0  0  0  0  0  0  0
   25.4097   47.5869   -5.2608 H   0  0  0  0  0  0  0  0  0  0  0  0
   23.1772   47.7804   -3.9564 H   0  0  0  0  0  0  0  0  0  0  0  0
   23.2052   46.0311   -3.8682 H   0  0  0  0  0  0  0  0  0  0  0  0
   21.7780   46.8699   -4.5073 H   0  0  0  0  0  0  0  0  0  0  0  0
   21.9688   45.9013   -7.1661 H   0  0  0  0  0  0  0  0  0  0  0  0
   23.5753   45.4047   -7.5584 H   0  0  0  0  0  0  0  0  0  0  0  0
   20.6398   43.6035   -6.4363 H   0  0  0  0  0  0  0  0  0  0  0  0
   22.8653   40.1630   -3.5596 H   0  0  0  0  0  0  0  0  0  0  0  0
   23.1174   39.7518   -5.2241 H   0  0  0  0  0  0  0  0  0  0  0  0
   21.8508   38.9594   -4.3081 H   0  0  0  0  0  0  0  0  0  0  0  0
   21.0449   41.5827   -2.7947 H   0  0  0  0  0  0  0  0  0  0  0  0
   19.8781   40.4246   -3.4145 H   0  0  0  0  0  0  0  0  0  0  0  0
   19.7613   42.1325   -3.8546 H   0  0  0  0  0  0  0  0  0  0  0  0
   19.5931   40.5081   -5.7240 H   0  0  0  0  0  0  0  0  0  0  0  0
   21.0324   38.7052   -6.4133 H   0  0  0  0  0  0  0  0  0  0  0  0
   20.0224   39.3864   -7.6083 H   0  0  0  0  0  0  0  0  0  0  0  0
   23.2813   38.5654   -8.9175 H   0  0  0  0  0  0  0  0  0  0  0  0
   22.7745   42.4094   -7.9752 H   0  0  0  0  0  0  0  0  0  0  0  0
   24.0147   41.7126   -8.9399 H   0  0  0  0  0  0  0  0  0  0  0  0
   21.2496   44.1484   -8.8528 H   0  0  0  0  0  0  0  0  0  0  0  0
   22.5407   46.1002  -12.4701 H   0  0  0  0  0  0  0  0  0  0  0  0
   24.1531   44.2643  -12.8889 H   0  0  0  0  0  0  0  0  0  0  0  0
   24.3249   42.3683  -11.3034 H   0  0  0  0  0  0  0  0  0  0  0  0
   19.1455   47.1333  -11.1599 H   0  0  0  0  0  0  0  0  0  0  0  0
   20.3396   46.7323  -12.3703 H   0  0  0  0  0  0  0  0  0  0  0  0
   19.8321   44.2930  -12.0391 H   0  0  0  0  0  0  0  0  0  0  0  0
   18.6646   44.6924  -10.7982 H   0  0  0  0  0  0  0  0  0  0  0  0
   17.2278   45.7895  -12.5131 H   0  0  0  0  0  0  0  0  0  0  0  0
   18.4606   45.5390  -13.7198 H   0  0  0  0  0  0  0  0  0  0  0  0
   16.8617   43.7631  -14.0376 H   0  0  0  0  0  0  0  0  0  0  0  0
   18.2483   43.0192  -13.3812 H   0  0  0  0  0  0  0  0  0  0  0  0
   14.8532   41.6971  -10.9685 H   0  0  0  0  0  0  0  0  0  0  0  0
   17.6826   38.8272   -9.4696 H   0  0  0  0  0  0  0  0  0  0  0  0
   19.0921   42.3180  -11.5299 H   0  0  0  0  0  0  0  0  0  0  0  0
   20.3600   41.9526   -9.4653 H   0  0  0  0  0  0  0  0  0  0  0  0
   20.4248   41.5682   -6.6280 H   0  0  0  0  0  0  0  0  0  0  0  0
  1  2  1  0  0  0  0
  1 44  1  0  0  0  0
  1 45  1  0  0  0  0
  1 46  1  0  0  0  0
  2  3  1  0  0  0  0
  2  4  1  0  0  0  0
  2  5  1  0  0  0  0
  3 47  1  0  0  0  0
  3 48  1  0  0  0  0
  3 49  1  0  0  0  0
  4 50  1  0  0  0  0
  4 51  1  0  0  0  0
  4 52  1  0  0  0  0
  5  6  1  0  0  0  0
  5 53  1  0  0  0  0
  5 54  1  0  0  0  0
  6 10  1  0  0  0  0
  6  7  2  0  0  0  0
  7  8  1  0  0  0  0
  7 55  1  0  0  0  0
  8  9  2  0  0  0  0
  8 11  1  0  0  0  0
  9 10  1  0  0  0  0
 11 12  1  0  0  0  0
 11 13  1  0  0  0  0
 11 14  1  0  0  0  0
 12 56  1  0  0  0  0
 12 57  1  0  0  0  0
 12 58  1  0  0  0  0
 13 59  1  0  0  0  0
 13 60  1  0  0  0  0
 13 61  1  0  0  0  0
 14 15  1  0  0  0  0
 14 62  1  0  0  0  0
 14 84  1  0  0  0  0
 15 16  1  0  0  0  0
 15 63  1  0  0  0  0
 15 64  1  0  0  0  0
 16 42  1  1  0  0  0
 16 17  1  0  0  0  0
 16 18  1  0  0  0  0
 17 65  1  0  0  0  0
 18 43  1  6  0  0  0
 18 41  1  0  0  0  0
 18 19  1  0  0  0  0
 19 20  1  0  0  0  0
 19 66  1  0  0  0  0
 19 67  1  0  0  0  0
 20 25  1  0  0  0  0
 20 21  2  0  0  0  0
 21 22  1  0  0  0  0
 21 68  1  0  0  0  0
 22 23  2  0  0  0  0
 22 26  1  0  0  0  0
 23 24  1  0  0  0  0
 23 69  1  0  0  0  0
 24 25  2  0  0  0  0
 24 70  1  0  0  0  0
 25 71  1  0  0  0  0
 26 27  1  0  0  0  0
 27 28  1  0  0  0  0
 27 72  1  0  0  0  0
 27 73  1  0  0  0  0
 28 29  1  0  0  0  0
 28 74  1  0  0  0  0
 28 75  1  0  0  0  0
 29 30  1  0  0  0  0
 29 76  1  0  0  0  0
 29 77  1  0  0  0  0
 30 31  1  0  0  0  0
 30 78  1  0  0  0  0
 30 79  1  0  0  0  0
 31 32  1  0  0  0  0
 32 38  1  0  0  0  0
 32 33  2  0  0  0  0
 33 34  1  0  0  0  0
 33 80  1  0  0  0  0
 34 35  1  0  0  0  0
 34 36  2  0  0  0  0
 36 37  1  0  0  0  0
 36 81  1  0  0  0  0
 37 38  2  0  0  0  0
 37 39  1  0  0  0  0
 38 82  1  0  0  0  0
 39 40  2  0  0  0  0
 39 41  1  0  0  0  0
 41 83  1  0  0  0  0
M  CHG  1  14   1
M  END
>  <s_m_source_file>
BACE_96.smi

>  <i_m_source_file_index>
1

>  <i_lp_mmshare_version>
42013

>  <i_f3d_flags>
0

>  <s_epik_input>
W0NIM11DKFtDSDNdKShbQ0gzXSlbQ0gyXWMxW2NIXWMobm8xKUMoW0NIM10pKFtDSDNdKVtOSF1bQ0gyXVtDQEBIXShbT0hdKVtDQEhdKFtDSDJdMilbTkhdQyg9TyljKFtjSF0zKVtjSF1jKENsKVtjSF1jM09bQ0gyXVtDSDJdW0NIMl1bQ0gyXU9jKFtjSF1jMjQpW2NIXVtjSF1bY0hdNA==

>  <s_epik_cmdline>
J2VwaWtfcHl0aG9uJywgJy1waCcsICc3LjAnLCAnLXRuJywgJzgnLCAnLW1hJywgJzIwMCcsICctaW1hZScsICc8aW5maWxlLm1hZT4nLCAnLW9tYWUnLCAnPG91dGZpbGUubWFlPic=

>  <r_lp_tautomer_probability>
1

>  <r_epik_Ionization_Penalty>
0.2386

>  <r_epik_Ionization_Penalty_Charging>
0.2386

>  <r_epik_Ionization_Penalty_Neutral>
0.0000

>  <r_epik_State_Penalty>
0.2295

>  <r_epik_Charging_Adjusted_Penalty>
0.468086

>  <i_epik_Tot_Q>
1

>  <i_epik_Tot_abs_Q>
1

>  <s_lp_Force_Field>
OPLS_2005

>  <r_lp_Energy>
37.3862

>  <b_lp_Chiralities_Consistent>
1

>  <s_lp_Variant>
BACE_96.smi:1-1

>  <chiral flag>
1

>  <version>
0

>  <s_i_glide_gridfile>
second_dock_grid_2

>  <i_i_glide_lignum>
194

>  <i_i_glide_rotatable_bonds>
8

>  <r_i_docking_score>
-5.65934

>  <r_i_glide_ligand_efficiency>
-0.138033

>  <r_i_glide_ligand_efficiency_sa>
-0.475966

>  <r_i_glide_ligand_efficiency_ln>
-1.20065

>  <r_glide_XP_GScore>
-5.88884

>  <r_i_glide_gscore>
-5.88884

>  <r_i_glide_evdw>
-38.0812

>  <r_i_glide_ecoul>
-7.84024

>  <r_i_glide_energy>
-45.9215

>  <r_i_glide_einternal>
7.16765

>  <r_i_glide_emodel>
-63.0381

>  <r_glide_XP_HBond>
-1.15964

>  <i_i_glide_confnum>
1

>  <i_i_glide_posenum>
1

>  <r_i_glide_eff_state_penalty>
0.2295

>  <i_glide_XP_PoseRank>
1

$$$$
