BACE_9.smi:1
 OpenBabel09291822493D
Structure written by MMmdl.
 87 89  0  0  1  0  0  0  0  0999 V2000
   22.3488   39.9497   -4.4041 C   0  0  0  0  0  0  0  0  0  0  0  0
   21.4567   39.8865   -5.5039 O   0  0  0  0  0  0  0  0  0  0  0  0
   21.9990   39.1636   -6.5972 C   0  0  0  0  0  0  0  0  0  0  0  0
   21.0222   39.0760   -7.7493 C   0  0  0  0  0  0  0  0  0  0  0  0
   19.7059   38.6161   -7.5315 C   0  0  0  0  0  0  0  0  0  0  0  0
   18.7854   38.5419   -8.5973 C   0  0  0  0  0  0  0  0  0  0  0  0
   19.1920   38.9694   -9.8864 C   0  0  0  0  0  0  0  0  0  0  0  0
   20.4937   39.4788  -10.0969 C   0  0  0  0  0  0  0  0  0  0  0  0
   21.4249   39.4550   -9.0414 C   0  0  0  0  0  0  0  0  0  0  0  0
   20.8685   40.0569  -11.4287 C   0  0  0  0  0  0  0  0  0  0  0  0
   20.8606   39.3504  -12.4338 O   0  0  0  0  0  0  0  0  0  0  0  0
   21.1843   41.3622  -11.5159 N   0  0  0  0  0  0  0  0  0  0  0  0
   21.2284   42.4624  -10.5335 C   0  0  1  0  0  0  0  0  0  0  0  0
   19.9723   42.5956   -9.6320 C   0  0  0  0  0  0  0  0  0  0  0  0
   18.5947   42.6000  -10.3374 C   0  0  2  0  0  0  0  0  0  0  0  0
   18.4155   43.8446  -11.2258 C   0  0  0  0  0  0  0  0  0  0  0  0
   17.4879   42.4718   -9.2672 C   0  0  0  0  0  0  0  0  0  0  0  0
   16.0507   42.3847   -9.8118 C   0  0  0  0  0  0  0  0  0  0  0  0
   15.0107   42.0195   -8.7341 C   0  0  0  0  0  0  0  0  0  0  0  0
   15.1217   40.6144   -8.0981 C   0  0  0  0  0  0  0  0  0  0  0  0
   14.6766   39.4481   -8.9997 C   0  0  0  0  0  0  0  0  0  0  0  0
   15.7643   38.8845   -9.9383 C   0  0  0  0  0  0  0  0  0  0  0  0
   16.5620   37.6962   -9.3733 C   0  0  0  0  0  0  0  0  0  0  0  0
   17.4912   38.0690   -8.3192 N   0  0  0  0  0  0  0  0  0  0  0  0
   22.5490   42.5180   -9.7129 C   0  0  2  0  0  0  0  0  0  0  0  0
   22.7170   43.8487   -9.2716 O   0  0  0  0  0  0  0  0  0  0  0  0
   23.8207   42.1598  -10.5147 C   0  0  0  0  0  0  0  0  0  0  0  0
   24.8971   41.6716   -9.6533 N   0  0  0  0  0  0  0  0  0  0  0  0
   26.1124   41.3033  -10.3851 C   0  0  0  0  0  0  0  0  0  0  0  0
   26.9331   42.5039  -10.8199 C   0  0  0  0  0  0  0  0  0  0  0  0
   26.6289   43.1896  -12.0153 C   0  0  0  0  0  0  0  0  0  0  0  0
   27.3444   44.3503  -12.3801 C   0  0  0  0  0  0  0  0  0  0  0  0
   28.3964   44.8028  -11.5539 C   0  0  0  0  0  0  0  0  0  0  0  0
   28.7175   44.1070  -10.3731 C   0  0  0  0  0  0  0  0  0  0  0  0
   27.9850   42.9653  -10.0060 C   0  0  0  0  0  0  0  0  0  0  0  0
   26.9471   45.1190  -13.6345 C   0  0  0  0  0  0  0  0  0  0  0  0
   28.1477   45.4275  -14.5443 C   0  0  0  0  0  0  0  0  0  0  0  0
   26.1692   46.3950  -13.2825 C   0  0  0  0  0  0  0  0  0  0  0  0
   21.2474   43.3426  -11.1755 H   0  0  0  0  0  0  0  0  0  0  0  0
   18.5221   41.7188  -10.9749 H   0  0  0  0  0  0  0  0  0  0  0  0
   22.4711   41.8930   -8.8267 H   0  0  0  0  0  0  0  0  0  0  0  0
   21.8875   40.4978   -3.5833 H   0  0  0  0  0  0  0  0  0  0  0  0
   23.2683   40.4643   -4.6791 H   0  0  0  0  0  0  0  0  0  0  0  0
   22.6023   38.9499   -4.0413 H   0  0  0  0  0  0  0  0  0  0  0  0
   22.9275   39.6336   -6.9310 H   0  0  0  0  0  0  0  0  0  0  0  0
   22.2422   38.1486   -6.2863 H   0  0  0  0  0  0  0  0  0  0  0  0
   19.4050   38.3222   -6.5361 H   0  0  0  0  0  0  0  0  0  0  0  0
   18.5059   38.9486  -10.7168 H   0  0  0  0  0  0  0  0  0  0  0  0
   22.4415   39.7713   -9.2160 H   0  0  0  0  0  0  0  0  0  0  0  0
   21.4666   41.6364  -12.4449 H   0  0  0  0  0  0  0  0  0  0  0  0
   19.9900   41.8026   -8.8856 H   0  0  0  0  0  0  0  0  0  0  0  0
   20.0551   43.5152   -9.0523 H   0  0  0  0  0  0  0  0  0  0  0  0
   18.4766   44.7607  -10.6397 H   0  0  0  0  0  0  0  0  0  0  0  0
   17.4554   43.8367  -11.7365 H   0  0  0  0  0  0  0  0  0  0  0  0
   19.1789   43.8917  -12.0005 H   0  0  0  0  0  0  0  0  0  0  0  0
   17.6995   41.5753   -8.6849 H   0  0  0  0  0  0  0  0  0  0  0  0
   17.5532   43.3009   -8.5606 H   0  0  0  0  0  0  0  0  0  0  0  0
   15.7770   43.3563  -10.2205 H   0  0  0  0  0  0  0  0  0  0  0  0
   15.9905   41.6975  -10.6534 H   0  0  0  0  0  0  0  0  0  0  0  0
   15.0749   42.7590   -7.9375 H   0  0  0  0  0  0  0  0  0  0  0  0
   14.0118   42.1322   -9.1574 H   0  0  0  0  0  0  0  0  0  0  0  0
   16.1112   40.4293   -7.6841 H   0  0  0  0  0  0  0  0  0  0  0  0
   14.4608   40.6101   -7.2313 H   0  0  0  0  0  0  0  0  0  0  0  0
   14.3009   38.6358   -8.3740 H   0  0  0  0  0  0  0  0  0  0  0  0
   13.8162   39.7681   -9.5910 H   0  0  0  0  0  0  0  0  0  0  0  0
   15.2602   38.5446  -10.8400 H   0  0  0  0  0  0  0  0  0  0  0  0
   16.4442   39.6625  -10.2723 H   0  0  0  0  0  0  0  0  0  0  0  0
   15.8768   36.9507   -8.9709 H   0  0  0  0  0  0  0  0  0  0  0  0
   17.1091   37.1951  -10.1717 H   0  0  0  0  0  0  0  0  0  0  0  0
   17.2551   37.7619   -7.3790 H   0  0  0  0  0  0  0  0  0  0  0  0
   22.0873   44.0249   -8.5902 H   0  0  0  0  0  0  0  0  0  0  0  0
   23.6057   41.3755  -11.2365 H   0  0  0  0  0  0  0  0  0  0  0  0
   24.1338   43.0254  -11.0984 H   0  0  0  0  0  0  0  0  0  0  0  0
   24.5766   40.8701   -9.1217 H   0  0  0  0  0  0  0  0  0  0  0  0
   26.7393   40.6881   -9.7416 H   0  0  0  0  0  0  0  0  0  0  0  0
   25.8700   40.6793  -11.2402 H   0  0  0  0  0  0  0  0  0  0  0  0
   25.8196   42.8356  -12.6344 H   0  0  0  0  0  0  0  0  0  0  0  0
   28.9514   45.6923  -11.8109 H   0  0  0  0  0  0  0  0  0  0  0  0
   29.5193   44.4633   -9.7400 H   0  0  0  0  0  0  0  0  0  0  0  0
   28.2192   42.4518   -9.0888 H   0  0  0  0  0  0  0  0  0  0  0  0
   26.2698   44.4815  -14.2008 H   0  0  0  0  0  0  0  0  0  0  0  0
   28.6866   44.5186  -14.8152 H   0  0  0  0  0  0  0  0  0  0  0  0
   28.8602   46.1010  -14.0649 H   0  0  0  0  0  0  0  0  0  0  0  0
   27.8234   45.9044  -15.4687 H   0  0  0  0  0  0  0  0  0  0  0  0
   25.2769   46.1585  -12.7002 H   0  0  0  0  0  0  0  0  0  0  0  0
   25.8448   46.9166  -14.1822 H   0  0  0  0  0  0  0  0  0  0  0  0
   26.7764   47.0848  -12.6971 H   0  0  0  0  0  0  0  0  0  0  0  0
  1  2  1  0  0  0  0
  1 42  1  0  0  0  0
  1 43  1  0  0  0  0
  1 44  1  0  0  0  0
  2  3  1  0  0  0  0
  3  4  1  0  0  0  0
  3 45  1  0  0  0  0
  3 46  1  0  0  0  0
  4  9  1  0  0  0  0
  4  5  2  0  0  0  0
  5  6  1  0  0  0  0
  5 47  1  0  0  0  0
  6 24  1  0  0  0  0
  6  7  2  0  0  0  0
  7  8  1  0  0  0  0
  7 48  1  0  0  0  0
  8  9  2  0  0  0  0
  8 10  1  0  0  0  0
  9 49  1  0  0  0  0
 10 11  2  0  0  0  0
 10 12  1  0  0  0  0
 12 13  1  0  0  0  0
 12 50  1  0  0  0  0
 13 39  1  6  0  0  0
 13 14  1  0  0  0  0
 13 25  1  0  0  0  0
 14 15  1  0  0  0  0
 14 51  1  0  0  0  0
 14 52  1  0  0  0  0
 15 40  1  6  0  0  0
 15 16  1  0  0  0  0
 15 17  1  0  0  0  0
 16 53  1  0  0  0  0
 16 54  1  0  0  0  0
 16 55  1  0  0  0  0
 17 18  1  0  0  0  0
 17 56  1  0  0  0  0
 17 57  1  0  0  0  0
 18 19  1  0  0  0  0
 18 58  1  0  0  0  0
 18 59  1  0  0  0  0
 19 20  1  0  0  0  0
 19 60  1  0  0  0  0
 19 61  1  0  0  0  0
 20 21  1  0  0  0  0
 20 62  1  0  0  0  0
 20 63  1  0  0  0  0
 21 22  1  0  0  0  0
 21 64  1  0  0  0  0
 21 65  1  0  0  0  0
 22 23  1  0  0  0  0
 22 66  1  0  0  0  0
 22 67  1  0  0  0  0
 23 24  1  0  0  0  0
 23 68  1  0  0  0  0
 23 69  1  0  0  0  0
 24 70  1  0  0  0  0
 25 41  1  1  0  0  0
 25 26  1  0  0  0  0
 25 27  1  0  0  0  0
 26 71  1  0  0  0  0
 27 28  1  0  0  0  0
 27 72  1  0  0  0  0
 27 73  1  0  0  0  0
 28 29  1  0  0  0  0
 28 74  1  0  0  0  0
 29 30  1  0  0  0  0
 29 75  1  0  0  0  0
 29 76  1  0  0  0  0
 30 35  1  0  0  0  0
 30 31  2  0  0  0  0
 31 32  1  0  0  0  0
 31 77  1  0  0  0  0
 32 33  2  0  0  0  0
 32 36  1  0  0  0  0
 33 34  1  0  0  0  0
 33 78  1  0  0  0  0
 34 35  2  0  0  0  0
 34 79  1  0  0  0  0
 35 80  1  0  0  0  0
 36 37  1  0  0  0  0
 36 38  1  0  0  0  0
 36 81  1  0  0  0  0
 37 82  1  0  0  0  0
 37 83  1  0  0  0  0
 37 84  1  0  0  0  0
 38 85  1  0  0  0  0
 38 86  1  0  0  0  0
 38 87  1  0  0  0  0
M  END
>  <s_m_source_file>
BACE_9.smi

>  <i_m_source_file_index>
1

>  <i_lp_mmshare_version>
42013

>  <i_f3d_flags>
0

>  <s_epik_input>
W2NIXTFbY0hdW2NIXWMoW0NIXShbQ0gzXSlbQ0gzXSlbY0hdYzFbQ0gyXVtOSF1bQ0gyXVtDQEBIXShbT0hdKVtDQEBIXShbTkhdQyg9TyljKFtjSF0yKVtjSF1jKFtjSF1jMjMpW0NIMl1PW0NIM10pW0NIMl1bQ0BIXShbQ0gzXSlbQ0gyXVtDSDJdW0NIMl1bQ0gyXVtDSDJdW0NIMl1bQ0gyXVtOSF0z

>  <s_epik_cmdline>
J2VwaWtfcHl0aG9uJywgJy1waCcsICc3LjAnLCAnLXRuJywgJzgnLCAnLW1hJywgJzIwMCcsICctaW1hZScsICc8aW5maWxlLm1hZT4nLCAnLW9tYWUnLCAnPG91dGZpbGUubWFlPic=

>  <r_epik_Ionization_Penalty>
2.1300

>  <r_epik_Ionization_Penalty_Charging>
0.0000

>  <r_epik_Ionization_Penalty_Neutral>
2.1300

>  <r_epik_State_Penalty>
2.2676

>  <r_epik_Charging_Adjusted_Penalty>
2.26762

>  <i_epik_Tot_Q>
0

>  <i_epik_Tot_abs_Q>
0

>  <s_lp_Force_Field>
OPLS_2005

>  <r_lp_Energy>
48.0441

>  <b_lp_Chiralities_Consistent>
1

>  <s_lp_Variant>
BACE_9.smi:1-2

>  <chiral flag>
1

>  <version>
0

>  <s_i_glide_gridfile>
second_dock_grid_2

>  <i_i_glide_lignum>
15

>  <i_i_glide_rotatable_bonds>
9

>  <r_i_docking_score>
-0.218899

>  <r_i_glide_ligand_efficiency>
-0.0057605

>  <r_i_glide_ligand_efficiency_sa>
-0.0193667

>  <r_i_glide_ligand_efficiency_ln>
-0.0472011

>  <r_glide_XP_GScore>
-2.4865

>  <r_i_glide_gscore>
-2.4865

>  <r_i_glide_evdw>
-45.3968

>  <r_i_glide_ecoul>
-2.81811

>  <r_i_glide_energy>
-48.2149

>  <r_i_glide_einternal>
4.96723

>  <r_i_glide_emodel>
-65.7847

>  <r_glide_XP_HBond>
0

>  <i_i_glide_confnum>
1

>  <i_i_glide_posenum>
42

>  <r_i_glide_eff_state_penalty>
2.2676

>  <i_glide_XP_PoseRank>
1

$$$$
