BACE_59.smi:1
 OpenBabel09291822493D
Structure written by MMmdl.
 92 96  0  0  1  0  0  0  0  0999 V2000
   24.8799   43.9543   -8.1356 C   0  0  0  0  0  0  0  0  0  0  0  0
   23.4694   44.5815   -8.0974 C   0  0  2  0  0  0  0  0  0  0  0  0
   23.5095   46.0140   -7.5002 C   0  0  0  0  0  0  0  0  0  0  0  0
   24.3509   47.0741   -8.2614 C   0  0  0  0  0  0  0  0  0  0  0  0
   23.9803   47.3385   -9.7399 C   0  0  0  0  0  0  0  0  0  0  0  0
   22.5026   47.7031   -9.9476 C   0  0  0  0  0  0  0  0  0  0  0  0
   22.1041   48.0366  -11.3974 C   0  0  0  0  0  0  0  0  0  0  0  0
   20.5726   48.0730  -11.5782 C   0  0  0  0  0  0  0  0  0  0  0  0
   19.9490   46.6729  -11.7608 C   0  0  0  0  0  0  0  0  0  0  0  0
   18.5216   46.6441  -11.4558 N   0  0  0  0  0  0  0  0  0  0  0  0
   18.0652   46.1114  -10.2359 C   0  0  0  0  0  0  0  0  0  0  0  0
   16.7462   45.6157  -10.1728 C   0  0  0  0  0  0  0  0  0  0  0  0
   16.2302   45.0697   -8.9745 C   0  0  0  0  0  0  0  0  0  0  0  0
   17.0570   45.0144   -7.8281 C   0  0  0  0  0  0  0  0  0  0  0  0
   18.3861   45.4888   -7.8755 C   0  0  0  0  0  0  0  0  0  0  0  0
   18.8683   46.0591   -9.0721 C   0  0  0  0  0  0  0  0  0  0  0  0
   19.2397   45.4706   -6.6349 C   0  0  0  0  0  0  0  0  0  0  0  0
   18.8608   46.0868   -5.6400 O   0  0  0  0  0  0  0  0  0  0  0  0
   20.4063   44.7853   -6.6257 N   0  0  0  0  0  0  0  0  0  0  0  0
   20.9640   43.8175   -7.5846 C   0  0  1  0  0  0  0  0  0  0  0  0
   22.4965   43.6284   -7.3438 C   0  0  0  0  0  0  0  0  0  0  0  0
   20.1608   42.4789   -7.5260 C   0  0  2  0  0  0  0  0  0  0  0  0
   20.1397   41.9875   -6.1970 O   0  0  0  0  0  0  0  0  0  0  0  0
   20.7497   41.3738   -8.4328 C   0  0  0  0  0  0  0  0  0  0  0  0
   20.5203   41.6711   -9.8508 N   0  0  0  0  0  0  0  0  0  0  0  0
   19.9561   40.6303  -10.7238 C   0  0  0  0  0  0  0  0  0  0  0  0
   20.8703   40.0096  -11.7530 C   0  0  0  0  0  0  0  0  0  0  0  0
   19.7824   40.9629  -12.1865 C   0  0  0  0  0  0  0  0  0  0  0  0
   18.9114   39.7326  -10.0763 C   0  0  0  0  0  0  0  0  0  0  0  0
   17.6643   40.2340   -9.6372 C   0  0  0  0  0  0  0  0  0  0  0  0
   16.7333   39.3576   -9.0202 C   0  0  0  0  0  0  0  0  0  0  0  0
   17.1283   38.0047   -8.8754 C   0  0  0  0  0  0  0  0  0  0  0  0
   18.3967   37.6010   -9.3360 C   0  0  0  0  0  0  0  0  0  0  0  0
   19.2753   38.4402   -9.9208 N   0  0  0  0  0  0  0  0  0  0  0  0
   15.3477   39.8210   -8.5159 C   0  0  0  0  0  0  0  0  0  0  0  0
   15.3261   41.3618   -8.3886 C   0  0  0  0  0  0  0  0  0  0  0  0
   14.2531   39.3764   -9.5132 C   0  0  0  0  0  0  0  0  0  0  0  0
   14.9777   39.2365   -7.1302 C   0  0  0  0  0  0  0  0  0  0  0  0
   14.8551   44.5689   -8.9271 C   0  0  0  0  0  0  0  0  0  0  0  0
   13.8973   44.8470   -8.0402 N   0  0  0  0  0  0  0  0  0  0  0  0
   12.7914   44.1161   -8.4485 C   0  0  0  0  0  0  0  0  0  0  0  0
   13.1367   43.4219   -9.5771 C   0  0  0  0  0  0  0  0  0  0  0  0
   14.4395   43.6991   -9.8910 O   0  0  0  0  0  0  0  0  0  0  0  0
   23.1259   44.6396   -9.1299 H   0  0  0  0  0  0  0  0  0  0  0  0
   20.8397   44.2251   -8.5864 H   0  0  0  0  0  0  0  0  0  0  0  0
   19.1304   42.6580   -7.8331 H   0  0  0  0  0  0  0  0  0  0  0  0
   25.3079   43.8704   -7.1359 H   0  0  0  0  0  0  0  0  0  0  0  0
   25.5699   44.5367   -8.7451 H   0  0  0  0  0  0  0  0  0  0  0  0
   24.8603   42.9540   -8.5696 H   0  0  0  0  0  0  0  0  0  0  0  0
   22.4962   46.3973   -7.3985 H   0  0  0  0  0  0  0  0  0  0  0  0
   23.8865   45.9559   -6.4781 H   0  0  0  0  0  0  0  0  0  0  0  0
   25.4083   46.8157   -8.2057 H   0  0  0  0  0  0  0  0  0  0  0  0
   24.2676   48.0159   -7.7176 H   0  0  0  0  0  0  0  0  0  0  0  0
   24.2310   46.4671  -10.3453 H   0  0  0  0  0  0  0  0  0  0  0  0
   24.6056   48.1495  -10.1152 H   0  0  0  0  0  0  0  0  0  0  0  0
   21.9140   46.8531   -9.6198 H   0  0  0  0  0  0  0  0  0  0  0  0
   22.2321   48.5371   -9.2985 H   0  0  0  0  0  0  0  0  0  0  0  0
   22.5392   47.3183  -12.0936 H   0  0  0  0  0  0  0  0  0  0  0  0
   22.5239   49.0080  -11.6611 H   0  0  0  0  0  0  0  0  0  0  0  0
   20.3226   48.6783  -12.4503 H   0  0  0  0  0  0  0  0  0  0  0  0
   20.1251   48.5871  -10.7263 H   0  0  0  0  0  0  0  0  0  0  0  0
   20.4747   45.9208  -11.1737 H   0  0  0  0  0  0  0  0  0  0  0  0
   20.0765   46.3603  -12.7976 H   0  0  0  0  0  0  0  0  0  0  0  0
   17.8938   46.5985  -12.2457 H   0  0  0  0  0  0  0  0  0  0  0  0
   16.1290   45.6610  -11.0588 H   0  0  0  0  0  0  0  0  0  0  0  0
   16.6788   44.6034   -6.9029 H   0  0  0  0  0  0  0  0  0  0  0  0
   19.8607   46.4734   -9.0742 H   0  0  0  0  0  0  0  0  0  0  0  0
   20.9403   44.8674   -5.7723 H   0  0  0  0  0  0  0  0  0  0  0  0
   22.7564   42.6185   -7.6588 H   0  0  0  0  0  0  0  0  0  0  0  0
   22.7153   43.6442   -6.2746 H   0  0  0  0  0  0  0  0  0  0  0  0
   19.2405   41.8425   -5.9452 H   0  0  0  0  0  0  0  0  0  0  0  0
   20.3188   40.4072   -8.1695 H   0  0  0  0  0  0  0  0  0  0  0  0
   21.8219   41.2991   -8.2526 H   0  0  0  0  0  0  0  0  0  0  0  0
   20.0318   42.5522   -9.9742 H   0  0  0  0  0  0  0  0  0  0  0  0
   21.8996   40.3659  -11.7942 H   0  0  0  0  0  0  0  0  0  0  0  0
   20.7334   38.9518  -11.9774 H   0  0  0  0  0  0  0  0  0  0  0  0
   18.9181   40.5425  -12.7006 H   0  0  0  0  0  0  0  0  0  0  0  0
   20.0844   41.9566  -12.5175 H   0  0  0  0  0  0  0  0  0  0  0  0
   17.4539   41.2820   -9.7832 H   0  0  0  0  0  0  0  0  0  0  0  0
   16.4794   37.2737   -8.4165 H   0  0  0  0  0  0  0  0  0  0  0  0
   18.7142   36.5741   -9.2301 H   0  0  0  0  0  0  0  0  0  0  0  0
   16.0957   41.7140   -7.7003 H   0  0  0  0  0  0  0  0  0  0  0  0
   14.3670   41.7186   -8.0107 H   0  0  0  0  0  0  0  0  0  0  0  0
   15.4909   41.8610   -9.3435 H   0  0  0  0  0  0  0  0  0  0  0  0
   14.2463   38.2927   -9.6380 H   0  0  0  0  0  0  0  0  0  0  0  0
   14.3866   39.8165  -10.5015 H   0  0  0  0  0  0  0  0  0  0  0  0
   13.2588   39.6684   -9.1724 H   0  0  0  0  0  0  0  0  0  0  0  0
   14.9333   38.1465   -7.1451 H   0  0  0  0  0  0  0  0  0  0  0  0
   13.9966   39.5826   -6.8021 H   0  0  0  0  0  0  0  0  0  0  0  0
   15.6872   39.5362   -6.3577 H   0  0  0  0  0  0  0  0  0  0  0  0
   11.8558   44.1470   -7.9098 H   0  0  0  0  0  0  0  0  0  0  0  0
   12.6129   42.7387  -10.2292 H   0  0  0  0  0  0  0  0  0  0  0  0
  1  2  1  0  0  0  0
  1 47  1  0  0  0  0
  1 48  1  0  0  0  0
  1 49  1  0  0  0  0
  2 44  1  6  0  0  0
  2 21  1  0  0  0  0
  2  3  1  0  0  0  0
  3  4  1  0  0  0  0
  3 50  1  0  0  0  0
  3 51  1  0  0  0  0
  4  5  1  0  0  0  0
  4 52  1  0  0  0  0
  4 53  1  0  0  0  0
  5  6  1  0  0  0  0
  5 54  1  0  0  0  0
  5 55  1  0  0  0  0
  6  7  1  0  0  0  0
  6 56  1  0  0  0  0
  6 57  1  0  0  0  0
  7  8  1  0  0  0  0
  7 58  1  0  0  0  0
  7 59  1  0  0  0  0
  8  9  1  0  0  0  0
  8 60  1  0  0  0  0
  8 61  1  0  0  0  0
  9 10  1  0  0  0  0
  9 62  1  0  0  0  0
  9 63  1  0  0  0  0
 10 11  1  0  0  0  0
 10 64  1  0  0  0  0
 11 16  1  0  0  0  0
 11 12  2  0  0  0  0
 12 13  1  0  0  0  0
 12 65  1  0  0  0  0
 13 14  2  0  0  0  0
 13 39  1  0  0  0  0
 14 15  1  0  0  0  0
 14 66  1  0  0  0  0
 15 16  2  0  0  0  0
 15 17  1  0  0  0  0
 16 67  1  0  0  0  0
 17 18  2  0  0  0  0
 17 19  1  0  0  0  0
 19 20  1  0  0  0  0
 19 68  1  0  0  0  0
 20 45  1  6  0  0  0
 20 21  1  0  0  0  0
 20 22  1  0  0  0  0
 21 69  1  0  0  0  0
 21 70  1  0  0  0  0
 22 46  1  6  0  0  0
 22 23  1  0  0  0  0
 22 24  1  0  0  0  0
 23 71  1  0  0  0  0
 24 25  1  0  0  0  0
 24 72  1  0  0  0  0
 24 73  1  0  0  0  0
 25 26  1  0  0  0  0
 25 74  1  0  0  0  0
 26 28  1  0  0  0  0
 26 27  1  0  0  0  0
 26 29  1  0  0  0  0
 27 28  1  0  0  0  0
 27 75  1  0  0  0  0
 27 76  1  0  0  0  0
 28 77  1  0  0  0  0
 28 78  1  0  0  0  0
 29 34  1  0  0  0  0
 29 30  2  0  0  0  0
 30 31  1  0  0  0  0
 30 79  1  0  0  0  0
 31 32  2  0  0  0  0
 31 35  1  0  0  0  0
 32 33  1  0  0  0  0
 32 80  1  0  0  0  0
 33 34  2  0  0  0  0
 33 81  1  0  0  0  0
 35 36  1  0  0  0  0
 35 37  1  0  0  0  0
 35 38  1  0  0  0  0
 36 82  1  0  0  0  0
 36 83  1  0  0  0  0
 36 84  1  0  0  0  0
 37 85  1  0  0  0  0
 37 86  1  0  0  0  0
 37 87  1  0  0  0  0
 38 88  1  0  0  0  0
 38 89  1  0  0  0  0
 38 90  1  0  0  0  0
 39 43  1  0  0  0  0
 39 40  2  0  0  0  0
 40 41  1  0  0  0  0
 41 42  2  0  0  0  0
 41 91  1  0  0  0  0
 42 43  1  0  0  0  0
 42 92  1  0  0  0  0
M  END
>  <s_m_source_file>
BACE_59.smi

>  <i_m_source_file_index>
1

>  <i_lp_mmshare_version>
42013

>  <i_f3d_flags>
0

>  <s_epik_input>
W05IXTFbQ0gyXVtDSDJdW0NIMl1bQ0gyXVtDSDJdW0NIMl1bQ0gyXVtDQEBIXShbQ0gzXSlbQ0gyXVtDQEhdKFtOSF1DKD1PKWMoW2NIXTIpW2NIXWMoW2NIXWMxMiktYzNuW2NIXVtjSF1vMylbQ0BIXShbT0hdKVtDSDJdW05IXUM0KFtDSDJdW0NIMl00KWM1W2NIXWMoW2NIXVtjSF1uNSlDKFtDSDNdKShbQ0gzXSlbQ0gzXQ==

>  <s_epik_cmdline>
J2VwaWtfcHl0aG9uJywgJy1waCcsICc3LjAnLCAnLXRuJywgJzgnLCAnLW1hJywgJzIwMCcsICctaW1hZScsICc8aW5maWxlLm1hZT4nLCAnLW9tYWUnLCAnPG91dGZpbGUubWFlPic=

>  <r_epik_Ionization_Penalty>
0.2181

>  <r_epik_Ionization_Penalty_Charging>
0.0000

>  <r_epik_Ionization_Penalty_Neutral>
0.2181

>  <r_epik_State_Penalty>
0.2027

>  <r_epik_Charging_Adjusted_Penalty>
0.202694

>  <i_epik_Tot_Q>
0

>  <i_epik_Tot_abs_Q>
0

>  <s_lp_Force_Field>
OPLS_2005

>  <r_lp_Energy>
48.9034

>  <b_lp_Chiralities_Consistent>
1

>  <s_lp_Variant>
BACE_59.smi:1-1

>  <chiral flag>
1

>  <version>
0

>  <s_i_glide_gridfile>
second_dock_grid_2

>  <i_i_glide_lignum>
116

>  <i_i_glide_rotatable_bonds>
8

>  <r_i_docking_score>
-2.88364

>  <r_i_glide_ligand_efficiency>
-0.0670615

>  <r_i_glide_ligand_efficiency_sa>
-0.234943

>  <r_i_glide_ligand_efficiency_ln>
-0.605655

>  <r_glide_XP_GScore>
-3.08634

>  <r_i_glide_gscore>
-3.08634

>  <r_i_glide_evdw>
-38.274

>  <r_i_glide_ecoul>
-11.3763

>  <r_i_glide_energy>
-49.6503

>  <r_i_glide_einternal>
7.75195

>  <r_i_glide_emodel>
-68.0093

>  <r_glide_XP_HBond>
-1.49966

>  <i_i_glide_confnum>
1

>  <i_i_glide_posenum>
3

>  <r_i_glide_eff_state_penalty>
0.2027

>  <i_glide_XP_PoseRank>
1

$$$$
