BACE_125.smi:1
 OpenBabel09291822493D
Structure written by MMmdl.
 79 82  0  0  1  0  0  0  0  0999 V2000
   22.6744   47.5841   -7.5165 C   0  0  0  0  0  0  0  0  0  0  0  0
   21.8232   46.4197   -8.0398 C   0  0  2  0  0  0  0  0  0  0  0  0
   20.7497   46.9360   -8.9061 N   0  0  0  0  0  0  0  0  0  0  0  0
   20.1192   45.9738   -9.8229 C   0  0  0  0  0  0  0  0  0  0  0  0
   19.0105   45.1074   -9.1707 C   0  0  1  0  0  0  0  0  0  0  0  0
   17.7647   45.7622   -9.3246 O   0  0  0  0  0  0  0  0  0  0  0  0
   18.8776   43.6754   -9.7427 C   0  0  2  0  0  0  0  0  0  0  0  0
   20.0022   42.7383   -9.2602 C   0  0  0  0  0  0  0  0  0  0  0  0
   19.7705   41.2940   -9.6650 C   0  0  0  0  0  0  0  0  0  0  0  0
   18.9497   40.4825   -8.8581 C   0  0  0  0  0  0  0  0  0  0  0  0
   18.6975   39.1334   -9.2067 C   0  0  0  0  0  0  0  0  0  0  0  0
   19.2667   38.6267  -10.3918 C   0  0  0  0  0  0  0  0  0  0  0  0
   20.0897   39.4325  -11.2023 C   0  0  0  0  0  0  0  0  0  0  0  0
   20.3499   40.7653  -10.8363 C   0  0  0  0  0  0  0  0  0  0  0  0
   17.9106   38.2705   -8.4691 O   0  0  0  0  0  0  0  0  0  0  0  0
   17.5059   38.6363   -7.1521 C   0  0  0  0  0  0  0  0  0  0  0  0
   16.0178   39.0284   -7.0680 C   0  0  0  0  0  0  0  0  0  0  0  0
   15.5338   40.1738   -7.9742 C   0  0  0  0  0  0  0  0  0  0  0  0
   15.1868   39.7283   -9.4067 C   0  0  0  0  0  0  0  0  0  0  0  0
   14.3046   40.6629  -10.0170 O   0  0  0  0  0  0  0  0  0  0  0  0
   14.7924   41.8672  -10.4672 C   0  0  0  0  0  0  0  0  0  0  0  0
   16.1184   42.0873  -10.9073 C   0  0  0  0  0  0  0  0  0  0  0  0
   16.4522   43.3510  -11.4426 C   0  0  0  0  0  0  0  0  0  0  0  0
   15.4605   44.3514  -11.4802 C   0  0  0  0  0  0  0  0  0  0  0  0
   14.2015   44.1636  -11.0357 N   0  0  0  0  0  0  0  0  0  0  0  0
   13.8843   42.9441  -10.5516 C   0  0  0  0  0  0  0  0  0  0  0  0
   17.8049   43.6127  -12.0267 C   0  0  0  0  0  0  0  0  0  0  0  0
   17.9237   43.7483  -13.2402 O   0  0  0  0  0  0  0  0  0  0  0  0
   18.8630   43.6883  -11.2066 N   0  0  0  0  0  0  0  0  0  0  0  0
   21.3152   45.5918   -6.8864 C   0  0  0  0  0  0  0  0  0  0  0  0
   21.6436   44.2432   -6.5763 C   0  0  0  0  0  0  0  0  0  0  0  0
   20.7923   43.9257   -5.5554 C   0  0  0  0  0  0  0  0  0  0  0  0
   20.4826   42.6583   -4.8195 C   0  0  0  0  0  0  0  0  0  0  0  0
   21.6069   42.0437   -3.9480 C   0  0  0  0  0  0  0  0  0  0  0  0
   21.0761   40.7258   -3.3525 C   0  0  0  0  0  0  0  0  0  0  0  0
   21.9943   43.0043   -2.8064 C   0  0  0  0  0  0  0  0  0  0  0  0
   22.8601   41.7166   -4.7801 C   0  0  0  0  0  0  0  0  0  0  0  0
   20.0327   45.0061   -5.2401 O   0  0  0  0  0  0  0  0  0  0  0  0
   20.3899   46.0744   -6.0653 N   0  0  0  0  0  0  0  0  0  0  0  0
   22.4880   45.7994   -8.6429 H   0  0  0  0  0  0  0  0  0  0  0  0
   19.1493   45.0115   -8.0989 H   0  0  0  0  0  0  0  0  0  0  0  0
   17.9561   43.2555   -9.3425 H   0  0  0  0  0  0  0  0  0  0  0  0
   23.5070   47.2171   -6.9150 H   0  0  0  0  0  0  0  0  0  0  0  0
   22.0866   48.2560   -6.8901 H   0  0  0  0  0  0  0  0  0  0  0  0
   23.0944   48.1677   -8.3354 H   0  0  0  0  0  0  0  0  0  0  0  0
   21.0892   47.7419   -9.4186 H   0  0  0  0  0  0  0  0  0  0  0  0
   19.6940   46.5045  -10.6747 H   0  0  0  0  0  0  0  0  0  0  0  0
   20.8931   45.3339  -10.2469 H   0  0  0  0  0  0  0  0  0  0  0  0
   17.1251   45.3073   -8.7968 H   0  0  0  0  0  0  0  0  0  0  0  0
   20.9759   43.0682   -9.6222 H   0  0  0  0  0  0  0  0  0  0  0  0
   20.0560   42.7674   -8.1734 H   0  0  0  0  0  0  0  0  0  0  0  0
   18.5151   40.9328   -7.9792 H   0  0  0  0  0  0  0  0  0  0  0  0
   19.0731   37.6042  -10.6793 H   0  0  0  0  0  0  0  0  0  0  0  0
   20.5238   39.0262  -12.1054 H   0  0  0  0  0  0  0  0  0  0  0  0
   20.9828   41.3800  -11.4609 H   0  0  0  0  0  0  0  0  0  0  0  0
   17.6601   37.7500   -6.5374 H   0  0  0  0  0  0  0  0  0  0  0  0
   18.1406   39.3800   -6.6731 H   0  0  0  0  0  0  0  0  0  0  0  0
   15.3956   38.1501   -7.2387 H   0  0  0  0  0  0  0  0  0  0  0  0
   15.8172   39.3196   -6.0373 H   0  0  0  0  0  0  0  0  0  0  0  0
   14.6203   40.5671   -7.5251 H   0  0  0  0  0  0  0  0  0  0  0  0
   16.2379   41.0046   -7.9717 H   0  0  0  0  0  0  0  0  0  0  0  0
   16.0672   39.5167  -10.0094 H   0  0  0  0  0  0  0  0  0  0  0  0
   14.6336   38.7887   -9.3622 H   0  0  0  0  0  0  0  0  0  0  0  0
   16.8584   41.3016  -10.8962 H   0  0  0  0  0  0  0  0  0  0  0  0
   15.6768   45.3274  -11.8880 H   0  0  0  0  0  0  0  0  0  0  0  0
   12.8615   42.8138  -10.2308 H   0  0  0  0  0  0  0  0  0  0  0  0
   19.7535   43.8398  -11.6534 H   0  0  0  0  0  0  0  0  0  0  0  0
   22.3410   43.5880   -7.0762 H   0  0  0  0  0  0  0  0  0  0  0  0
   19.6217   42.8420   -4.1776 H   0  0  0  0  0  0  0  0  0  0  0  0
   20.1459   41.9200   -5.5502 H   0  0  0  0  0  0  0  0  0  0  0  0
   21.8686   40.1795   -2.8400 H   0  0  0  0  0  0  0  0  0  0  0  0
   20.6907   40.0674   -4.1333 H   0  0  0  0  0  0  0  0  0  0  0  0
   20.2669   40.8980   -2.6397 H   0  0  0  0  0  0  0  0  0  0  0  0
   21.1223   43.3297   -2.2390 H   0  0  0  0  0  0  0  0  0  0  0  0
   22.4757   43.8999   -3.1958 H   0  0  0  0  0  0  0  0  0  0  0  0
   22.6905   42.5495   -2.1016 H   0  0  0  0  0  0  0  0  0  0  0  0
   23.6007   41.1817   -4.1812 H   0  0  0  0  0  0  0  0  0  0  0  0
   23.3496   42.6165   -5.1510 H   0  0  0  0  0  0  0  0  0  0  0  0
   22.6149   41.0873   -5.6375 H   0  0  0  0  0  0  0  0  0  0  0  0
  1  2  1  0  0  0  0
  1 43  1  0  0  0  0
  1 44  1  0  0  0  0
  1 45  1  0  0  0  0
  2 40  1  6  0  0  0
  2  3  1  0  0  0  0
  2 30  1  0  0  0  0
  3  4  1  0  0  0  0
  3 46  1  0  0  0  0
  4  5  1  0  0  0  0
  4 47  1  0  0  0  0
  4 48  1  0  0  0  0
  5 41  1  1  0  0  0
  5  6  1  0  0  0  0
  5  7  1  0  0  0  0
  6 49  1  0  0  0  0
  7 42  1  1  0  0  0
  7 29  1  0  0  0  0
  7  8  1  0  0  0  0
  8  9  1  0  0  0  0
  8 50  1  0  0  0  0
  8 51  1  0  0  0  0
  9 14  1  0  0  0  0
  9 10  2  0  0  0  0
 10 11  1  0  0  0  0
 10 52  1  0  0  0  0
 11 12  2  0  0  0  0
 11 15  1  0  0  0  0
 12 13  1  0  0  0  0
 12 53  1  0  0  0  0
 13 14  2  0  0  0  0
 13 54  1  0  0  0  0
 14 55  1  0  0  0  0
 15 16  1  0  0  0  0
 16 17  1  0  0  0  0
 16 56  1  0  0  0  0
 16 57  1  0  0  0  0
 17 18  1  0  0  0  0
 17 58  1  0  0  0  0
 17 59  1  0  0  0  0
 18 19  1  0  0  0  0
 18 60  1  0  0  0  0
 18 61  1  0  0  0  0
 19 20  1  0  0  0  0
 19 62  1  0  0  0  0
 19 63  1  0  0  0  0
 20 21  1  0  0  0  0
 21 26  1  0  0  0  0
 21 22  2  0  0  0  0
 22 23  1  0  0  0  0
 22 64  1  0  0  0  0
 23 24  2  0  0  0  0
 23 27  1  0  0  0  0
 24 25  1  0  0  0  0
 24 65  1  0  0  0  0
 25 26  2  0  0  0  0
 26 66  1  0  0  0  0
 27 28  2  0  0  0  0
 27 29  1  0  0  0  0
 29 67  1  0  0  0  0
 30 39  2  0  0  0  0
 30 31  1  0  0  0  0
 31 32  2  0  0  0  0
 31 68  1  0  0  0  0
 32 33  1  0  0  0  0
 32 38  1  0  0  0  0
 33 34  1  0  0  0  0
 33 69  1  0  0  0  0
 33 70  1  0  0  0  0
 34 35  1  0  0  0  0
 34 36  1  0  0  0  0
 34 37  1  0  0  0  0
 35 71  1  0  0  0  0
 35 72  1  0  0  0  0
 35 73  1  0  0  0  0
 36 74  1  0  0  0  0
 36 75  1  0  0  0  0
 36 76  1  0  0  0  0
 37 77  1  0  0  0  0
 37 78  1  0  0  0  0
 37 79  1  0  0  0  0
 38 39  1  0  0  0  0
M  END
>  <s_m_source_file>
BACE_125.smi

>  <i_m_source_file_index>
1

>  <i_lp_mmshare_version>
42013

>  <i_f3d_flags>
0

>  <s_epik_input>
W0NIM11DKFtDSDNdKShbQ0gzXSlbQ0gyXWMob24xKVtjSF1jMVtDQEhdKFtDSDNdKVtOSF1bQ0gyXVtDQEBIXShbT0hdKVtDQEhdKFtDSDJdMilbTkhdQyg9TyljKFtjSF1uW2NIXTMpW2NIXWMzT1tDSDJdW0NIMl1bQ0gyXVtDSDJdT2MoW2NIXWMyNClbY0hdW2NIXVtjSF00

>  <s_epik_cmdline>
J2VwaWtfcHl0aG9uJywgJy1waCcsICc3LjAnLCAnLXRuJywgJzgnLCAnLW1hJywgJzIwMCcsICctaW1hZScsICc8aW5maWxlLm1hZT4nLCAnLW9tYWUnLCAnPG91dGZpbGUubWFlPic=

>  <r_lp_tautomer_probability>
1

>  <r_epik_Ionization_Penalty>
0.3908

>  <r_epik_Ionization_Penalty_Charging>
0.0000

>  <r_epik_Ionization_Penalty_Neutral>
0.3908

>  <r_epik_State_Penalty>
0.3892

>  <r_epik_Charging_Adjusted_Penalty>
0.38918

>  <i_epik_Tot_Q>
0

>  <i_epik_Tot_abs_Q>
0

>  <s_lp_Force_Field>
OPLS_2005

>  <r_lp_Energy>
46.3233

>  <b_lp_Chiralities_Consistent>
1

>  <s_lp_Variant>
BACE_125.smi:1-1

>  <chiral flag>
1

>  <version>
0

>  <s_i_glide_gridfile>
second_dock_grid_2

>  <i_i_glide_lignum>
256

>  <i_i_glide_rotatable_bonds>
8

>  <r_i_docking_score>
-3.85052

>  <r_i_glide_ligand_efficiency>
-0.0987314

>  <r_i_glide_ligand_efficiency_sa>
-0.334819

>  <r_i_glide_ligand_efficiency_ln>
-0.825662

>  <r_glide_XP_GScore>
-4.23972

>  <r_i_glide_gscore>
-4.23972

>  <r_i_glide_evdw>
-42.9103

>  <r_i_glide_ecoul>
-7.90804

>  <r_i_glide_energy>
-50.8184

>  <r_i_glide_einternal>
8.50483

>  <r_i_glide_emodel>
-64.009

>  <r_glide_XP_HBond>
-0.7

>  <i_i_glide_confnum>
1

>  <i_i_glide_posenum>
1

>  <r_i_glide_eff_state_penalty>
0.3892

>  <i_glide_XP_PoseRank>
1

$$$$
