BACE_88.smi:1
 OpenBabel09291822493D
Structure written by MMmdl.
 79 82  0  0  1  0  0  0  0  0999 V2000
   20.3260   40.0504   -5.9484 C   0  0  0  0  0  0  0  0  0  0  0  0
   20.4992   38.9293   -6.9860 C   0  0  0  0  0  0  0  0  0  0  0  0
   21.7090   39.2269   -7.8931 C   0  0  0  0  0  0  0  0  0  0  0  0
   19.2186   38.5631   -7.7506 C   0  0  0  0  0  0  0  0  0  0  0  0
   17.9217   38.9463   -7.3154 C   0  0  0  0  0  0  0  0  0  0  0  0
   16.7688   38.5197   -8.0240 C   0  0  0  0  0  0  0  0  0  0  0  0
   15.3786   38.9948   -7.6191 C   0  0  0  0  0  0  0  0  0  0  0  0
   14.5618   39.3576   -8.7747 N   0  0  0  0  0  0  0  0  0  0  0  0
   14.8148   40.6786   -9.3445 C   0  0  0  0  0  0  0  0  0  0  0  0
   15.2241   40.5586  -10.8290 C   0  0  1  0  0  0  0  0  0  0  0  0
   14.1260   40.9485  -11.6337 O   0  0  0  0  0  0  0  0  0  0  0  0
   16.5355   41.2996  -11.2296 C   0  0  2  0  0  0  0  0  0  0  0  0
   17.7551   40.4661  -10.7928 C   0  0  0  0  0  0  0  0  0  0  0  0
   19.1379   41.0694  -10.9726 C   0  0  0  0  0  0  0  0  0  0  0  0
   19.7354   41.8137   -9.9316 C   0  0  0  0  0  0  0  0  0  0  0  0
   21.0854   42.2178  -10.0187 C   0  0  0  0  0  0  0  0  0  0  0  0
   21.7321   42.9130   -8.8294 C   0  0  0  0  0  0  0  0  0  0  0  0
   21.6882   44.4297   -8.9154 C   0  0  0  0  0  0  0  0  0  0  0  0
   22.6950   45.1009   -9.6433 C   0  0  0  0  0  0  0  0  0  0  0  0
   22.6984   46.5042   -9.7306 C   0  0  0  0  0  0  0  0  0  0  0  0
   21.6938   47.2441   -9.0862 C   0  0  0  0  0  0  0  0  0  0  0  0
   20.6828   46.5804   -8.3654 C   0  0  0  0  0  0  0  0  0  0  0  0
   20.6637   45.1646   -8.2743 C   0  0  0  0  0  0  0  0  0  0  0  0
   19.6844   44.4502   -7.6055 O   0  0  0  0  0  0  0  0  0  0  0  0
   18.5389   45.1189   -7.0737 C   0  0  0  0  0  0  0  0  0  0  0  0
   17.5817   45.5597   -8.1873 C   0  0  0  0  0  0  0  0  0  0  0  0
   16.8572   46.5368   -8.0253 O   0  0  0  0  0  0  0  0  0  0  0  0
   17.6092   44.8373   -9.3154 N   0  0  0  0  0  0  0  0  0  0  0  0
   16.8312   45.0882  -10.5227 C   0  0  1  0  0  0  0  0  0  0  0  0
   17.5482   46.1312  -11.3936 C   0  0  0  0  0  0  0  0  0  0  0  0
   16.4815   43.7910  -11.2723 C   0  0  0  0  0  0  0  0  0  0  0  0
   16.1031   43.8489  -12.4393 O   0  0  0  0  0  0  0  0  0  0  0  0
   16.6274   42.6273  -10.6250 N   0  0  0  0  0  0  0  0  0  0  0  0
   21.8437   41.8672  -11.1595 C   0  0  0  0  0  0  0  0  0  0  0  0
   23.1779   42.1499  -11.2393 O   0  0  0  0  0  0  0  0  0  0  0  0
   21.2365   41.1585  -12.2126 C   0  0  0  0  0  0  0  0  0  0  0  0
   19.8901   40.7641  -12.1229 C   0  0  0  0  0  0  0  0  0  0  0  0
   16.9139   37.6566   -9.1318 C   0  0  0  0  0  0  0  0  0  0  0  0
   18.1890   37.2921   -9.5774 C   0  0  0  0  0  0  0  0  0  0  0  0
   19.3279   37.7513   -8.9005 C   0  0  0  0  0  0  0  0  0  0  0  0
   15.3722   39.5084  -11.0742 H   0  0  0  0  0  0  0  0  0  0  0  0
   16.5910   41.3711  -12.3153 H   0  0  0  0  0  0  0  0  0  0  0  0
   15.8746   45.5163  -10.2249 H   0  0  0  0  0  0  0  0  0  0  0  0
   19.6387   39.7497   -5.1563 H   0  0  0  0  0  0  0  0  0  0  0  0
   19.9475   40.9668   -6.4038 H   0  0  0  0  0  0  0  0  0  0  0  0
   21.2717   40.2962   -5.4632 H   0  0  0  0  0  0  0  0  0  0  0  0
   20.7535   38.0233   -6.4408 H   0  0  0  0  0  0  0  0  0  0  0  0
   22.0437   38.3529   -8.4489 H   0  0  0  0  0  0  0  0  0  0  0  0
   22.5710   39.5556   -7.3121 H   0  0  0  0  0  0  0  0  0  0  0  0
   21.4766   40.0051   -8.6130 H   0  0  0  0  0  0  0  0  0  0  0  0
   17.7904   39.5697   -6.4424 H   0  0  0  0  0  0  0  0  0  0  0  0
   14.8892   38.1792   -7.0966 H   0  0  0  0  0  0  0  0  0  0  0  0
   15.4368   39.8187   -6.9096 H   0  0  0  0  0  0  0  0  0  0  0  0
   13.5608   39.1612   -8.6406 H   0  0  0  0  0  0  0  0  0  0  0  0
   13.9397   41.3186   -9.2324 H   0  0  0  0  0  0  0  0  0  0  0  0
   15.6083   41.1709   -8.7774 H   0  0  0  0  0  0  0  0  0  0  0  0
   13.3480   40.5600  -11.2391 H   0  0  0  0  0  0  0  0  0  0  0  0
   17.6564   40.2617   -9.7312 H   0  0  0  0  0  0  0  0  0  0  0  0
   17.7355   39.4985  -11.2927 H   0  0  0  0  0  0  0  0  0  0  0  0
   19.1813   42.0102   -9.0247 H   0  0  0  0  0  0  0  0  0  0  0  0
   21.2570   42.5667   -7.9127 H   0  0  0  0  0  0  0  0  0  0  0  0
   22.7710   42.5929   -8.7391 H   0  0  0  0  0  0  0  0  0  0  0  0
   23.4736   44.5427  -10.1385 H   0  0  0  0  0  0  0  0  0  0  0  0
   23.4737   47.0087  -10.2887 H   0  0  0  0  0  0  0  0  0  0  0  0
   21.6854   48.3205   -9.1489 H   0  0  0  0  0  0  0  0  0  0  0  0
   19.9291   47.1940   -7.8972 H   0  0  0  0  0  0  0  0  0  0  0  0
   18.0051   44.4036   -6.4500 H   0  0  0  0  0  0  0  0  0  0  0  0
   18.8101   45.9526   -6.4269 H   0  0  0  0  0  0  0  0  0  0  0  0
   18.2889   44.0894   -9.3532 H   0  0  0  0  0  0  0  0  0  0  0  0
   16.9641   46.3725  -12.2724 H   0  0  0  0  0  0  0  0  0  0  0  0
   18.5108   45.7559  -11.7292 H   0  0  0  0  0  0  0  0  0  0  0  0
   17.7222   47.0645  -10.8546 H   0  0  0  0  0  0  0  0  0  0  0  0
   16.8870   42.6624   -9.6502 H   0  0  0  0  0  0  0  0  0  0  0  0
   23.6167   41.6482  -11.9224 H   0  0  0  0  0  0  0  0  0  0  0  0
   21.8145   40.8718  -13.0788 H   0  0  0  0  0  0  0  0  0  0  0  0
   19.4544   40.1730  -12.9165 H   0  0  0  0  0  0  0  0  0  0  0  0
   16.0467   37.2970   -9.6701 H   0  0  0  0  0  0  0  0  0  0  0  0
   18.3037   36.6560  -10.4374 H   0  0  0  0  0  0  0  0  0  0  0  0
   20.2914   37.4318   -9.2622 H   0  0  0  0  0  0  0  0  0  0  0  0
  1  2  1  0  0  0  0
  1 44  1  0  0  0  0
  1 45  1  0  0  0  0
  1 46  1  0  0  0  0
  2  3  1  0  0  0  0
  2  4  1  0  0  0  0
  2 47  1  0  0  0  0
  3 48  1  0  0  0  0
  3 49  1  0  0  0  0
  3 50  1  0  0  0  0
  4 40  1  0  0  0  0
  4  5  2  0  0  0  0
  5  6  1  0  0  0  0
  5 51  1  0  0  0  0
  6  7  1  0  0  0  0
  6 38  2  0  0  0  0
  7  8  1  0  0  0  0
  7 52  1  0  0  0  0
  7 53  1  0  0  0  0
  8  9  1  0  0  0  0
  8 54  1  0  0  0  0
  9 10  1  0  0  0  0
  9 55  1  0  0  0  0
  9 56  1  0  0  0  0
 10 41  1  6  0  0  0
 10 11  1  0  0  0  0
 10 12  1  0  0  0  0
 11 57  1  0  0  0  0
 12 42  1  6  0  0  0
 12 33  1  0  0  0  0
 12 13  1  0  0  0  0
 13 14  1  0  0  0  0
 13 58  1  0  0  0  0
 13 59  1  0  0  0  0
 14 37  1  0  0  0  0
 14 15  2  0  0  0  0
 15 16  1  0  0  0  0
 15 60  1  0  0  0  0
 16 17  1  0  0  0  0
 16 34  2  0  0  0  0
 17 18  1  0  0  0  0
 17 61  1  0  0  0  0
 17 62  1  0  0  0  0
 18 23  2  0  0  0  0
 18 19  1  0  0  0  0
 19 20  2  0  0  0  0
 19 63  1  0  0  0  0
 20 21  1  0  0  0  0
 20 64  1  0  0  0  0
 21 22  2  0  0  0  0
 21 65  1  0  0  0  0
 22 23  1  0  0  0  0
 22 66  1  0  0  0  0
 23 24  1  0  0  0  0
 24 25  1  0  0  0  0
 25 26  1  0  0  0  0
 25 67  1  0  0  0  0
 25 68  1  0  0  0  0
 26 27  2  0  0  0  0
 26 28  1  0  0  0  0
 28 29  1  0  0  0  0
 28 69  1  0  0  0  0
 29 43  1  1  0  0  0
 29 30  1  0  0  0  0
 29 31  1  0  0  0  0
 30 70  1  0  0  0  0
 30 71  1  0  0  0  0
 30 72  1  0  0  0  0
 31 32  2  0  0  0  0
 31 33  1  0  0  0  0
 33 73  1  0  0  0  0
 34 35  1  0  0  0  0
 34 36  1  0  0  0  0
 35 74  1  0  0  0  0
 36 37  2  0  0  0  0
 36 75  1  0  0  0  0
 37 76  1  0  0  0  0
 38 39  1  0  0  0  0
 38 77  1  0  0  0  0
 39 40  2  0  0  0  0
 39 78  1  0  0  0  0
 40 79  1  0  0  0  0
M  END
>  <s_m_source_file>
BACE_88.smi

>  <i_m_source_file_index>
1

>  <i_lp_mmshare_version>
42013

>  <i_f3d_flags>
0

>  <s_epik_input>
W0NIM11bQ0hdKFtDSDNdKWMxW2NIXWMoW2NIXVtjSF1bY0hdMSlbQ0gyXVtOSF1bQ0gyXVtDQEBIXShbT0hdKVtDQEhdKFtDSDJdMilbTkhdQyg9TylbQ0BIXShbQ0gzXSlbTkhdQyg9TylbQ0gyXU9jKFtjSF1bY0hdW2NIXVtjSF0zKWMzW0NIMl1jKFtjSF1jMjQpYyhbT0hdKVtjSF1bY0hdNA==

>  <s_epik_cmdline>
J2VwaWtfcHl0aG9uJywgJy1waCcsICc3LjAnLCAnLXRuJywgJzgnLCAnLW1hJywgJzIwMCcsICctaW1hZScsICc8aW5maWxlLm1hZT4nLCAnLW9tYWUnLCAnPG91dGZpbGUubWFlPic=

>  <r_lp_tautomer_probability>
1

>  <r_epik_Ionization_Penalty>
1.9821

>  <r_epik_Ionization_Penalty_Charging>
0.0000

>  <r_epik_Ionization_Penalty_Neutral>
1.9821

>  <r_epik_State_Penalty>
2.1093

>  <r_epik_Charging_Adjusted_Penalty>
2.1093

>  <i_epik_Tot_Q>
0

>  <i_epik_Tot_abs_Q>
0

>  <s_lp_Force_Field>
OPLS_2005

>  <r_lp_Energy>
31.8003

>  <b_lp_Chiralities_Consistent>
1

>  <s_lp_Variant>
BACE_88.smi:1-2

>  <chiral flag>
1

>  <version>
0

>  <s_i_glide_gridfile>
second_dock_grid_2

>  <i_i_glide_lignum>
179

>  <i_i_glide_rotatable_bonds>
8

>  <r_i_docking_score>
-3.9126

>  <r_i_glide_ligand_efficiency>
-0.0978151

>  <r_i_glide_ligand_efficiency_sa>
-0.334523

>  <r_i_glide_ligand_efficiency_ln>
-0.834443

>  <r_glide_XP_GScore>
-6.0219

>  <r_i_glide_gscore>
-6.0219

>  <r_i_glide_evdw>
-35.6079

>  <r_i_glide_ecoul>
-24.823

>  <r_i_glide_energy>
-60.4309

>  <r_i_glide_einternal>
7.3975

>  <r_i_glide_emodel>
-70.7532

>  <r_glide_XP_HBond>
-1.64902

>  <i_i_glide_confnum>
1

>  <i_i_glide_posenum>
42

>  <r_i_glide_eff_state_penalty>
2.1093

>  <i_glide_XP_PoseRank>
1

$$$$
