BACE_47.smi:1
 OpenBabel09291822493D
Structure written by MMmdl.
 91 94  0  0  1  0  0  0  0  0999 V2000
   26.5024   44.4441  -12.9966 C   0  0  0  0  0  0  0  0  0  0  0  0
   25.3044   45.1924  -12.8800 O   0  0  0  0  0  0  0  0  0  0  0  0
   25.0685   45.6843  -11.5609 C   0  0  0  0  0  0  0  0  0  0  0  0
   24.7453   44.6096  -10.5356 C   0  0  0  0  0  0  0  0  0  0  0  0
   25.0810   44.7969   -9.1801 C   0  0  0  0  0  0  0  0  0  0  0  0
   24.7815   43.7732   -8.2583 C   0  0  0  0  0  0  0  0  0  0  0  0
   24.1555   42.6012   -8.7422 C   0  0  0  0  0  0  0  0  0  0  0  0
   23.8555   42.5138  -10.1177 C   0  0  0  0  0  0  0  0  0  0  0  0
   23.2933   41.3646  -10.6670 N   0  0  0  0  0  0  0  0  0  0  0  0
   21.9184   41.0996  -10.2803 C   0  0  0  0  0  0  0  0  0  0  0  0
   21.6254   39.5925  -10.2762 C   0  0  0  0  0  0  0  0  0  0  0  0
   20.1420   39.2513  -10.0539 C   0  0  0  0  0  0  0  0  0  0  0  0
   19.5809   39.7759   -8.7263 C   0  0  0  0  0  0  0  0  0  0  0  0
   20.2810   39.1749   -7.6486 O   0  0  0  0  0  0  0  0  0  0  0  0
   20.1245   39.8736   -6.4238 C   0  0  0  0  0  0  0  0  0  0  0  0
   21.4134   40.6597   -6.1349 C   0  0  0  0  0  0  0  0  0  0  0  0
   21.3490   41.6005   -4.9071 C   0  0  1  0  0  0  0  0  0  0  0  0
   21.0692   40.8158   -3.6106 C   0  0  0  0  0  0  0  0  0  0  0  0
   22.6612   42.4086   -4.7610 C   0  0  0  0  0  0  0  0  0  0  0  0
   22.9356   43.5190   -5.8112 C   0  0  2  0  0  0  0  0  0  0  0  0
   24.3814   43.7495   -5.8180 N   0  0  0  0  0  0  0  0  0  0  0  0
   25.2461   43.9004   -6.8343 C   0  0  0  0  0  0  0  0  0  0  0  0
   26.4235   44.1790   -6.6142 O   0  0  0  0  0  0  0  0  0  0  0  0
   22.1434   44.8277   -5.5142 C   0  0  2  0  0  0  0  0  0  0  0  0
   20.8343   44.6919   -6.0272 O   0  0  0  0  0  0  0  0  0  0  0  0
   22.6994   46.1396   -6.1104 C   0  0  0  0  0  0  0  0  0  0  0  0
   23.9013   46.5897   -5.4030 N   0  0  0  0  0  0  0  0  0  0  0  0
   24.3545   47.9389   -5.7109 C   0  0  0  0  0  0  0  0  0  0  0  0
   24.4973   48.3835   -7.1536 C   0  0  0  0  0  0  0  0  0  0  0  0
   25.7287   48.0658   -6.3361 C   0  0  0  0  0  0  0  0  0  0  0  0
   23.9203   48.8964   -4.6473 C   0  0  0  0  0  0  0  0  0  0  0  0
   24.7437   49.1477   -3.5267 C   0  0  0  0  0  0  0  0  0  0  0  0
   24.3287   50.0142   -2.4864 C   0  0  0  0  0  0  0  0  0  0  0  0
   23.0391   50.5920   -2.5817 C   0  0  0  0  0  0  0  0  0  0  0  0
   22.2208   50.3555   -3.6991 C   0  0  0  0  0  0  0  0  0  0  0  0
   22.6575   49.5078   -4.7290 C   0  0  0  0  0  0  0  0  0  0  0  0
   25.2308   50.3085   -1.2689 C   0  0  0  0  0  0  0  0  0  0  0  0
   24.8407   49.3688   -0.1160 C   0  0  0  0  0  0  0  0  0  0  0  0
   26.7324   50.1246   -1.5904 C   0  0  0  0  0  0  0  0  0  0  0  0
   25.0599   51.7661   -0.7977 C   0  0  0  0  0  0  0  0  0  0  0  0
   24.1332   43.4966  -10.9921 N   0  0  0  0  0  0  0  0  0  0  0  0
   20.5201   42.2944   -5.0451 H   0  0  0  0  0  0  0  0  0  0  0  0
   22.6311   43.1709   -6.7912 H   0  0  0  0  0  0  0  0  0  0  0  0
   22.0567   44.9607   -4.4390 H   0  0  0  0  0  0  0  0  0  0  0  0
   26.6357   44.1516  -14.0339 H   0  0  0  0  0  0  0  0  0  0  0  0
   26.4801   43.5316  -12.3994 H   0  0  0  0  0  0  0  0  0  0  0  0
   27.3679   45.0330  -12.6971 H   0  0  0  0  0  0  0  0  0  0  0  0
   24.2143   46.3618  -11.6032 H   0  0  0  0  0  0  0  0  0  0  0  0
   25.9195   46.2767  -11.2276 H   0  0  0  0  0  0  0  0  0  0  0  0
   25.5866   45.6950   -8.8564 H   0  0  0  0  0  0  0  0  0  0  0  0
   23.9576   41.7673   -8.0864 H   0  0  0  0  0  0  0  0  0  0  0  0
   23.4568   41.2858  -11.6686 H   0  0  0  0  0  0  0  0  0  0  0  0
   21.2651   41.6039  -10.9933 H   0  0  0  0  0  0  0  0  0  0  0  0
   21.7117   41.5313   -9.3020 H   0  0  0  0  0  0  0  0  0  0  0  0
   21.9279   39.1696  -11.2328 H   0  0  0  0  0  0  0  0  0  0  0  0
   22.2384   39.1005   -9.5193 H   0  0  0  0  0  0  0  0  0  0  0  0
   19.5526   39.6605  -10.8751 H   0  0  0  0  0  0  0  0  0  0  0  0
   20.0110   38.1698  -10.0996 H   0  0  0  0  0  0  0  0  0  0  0  0
   18.5213   39.5329   -8.6410 H   0  0  0  0  0  0  0  0  0  0  0  0
   19.6590   40.8627   -8.6928 H   0  0  0  0  0  0  0  0  0  0  0  0
   19.2602   40.5362   -6.4399 H   0  0  0  0  0  0  0  0  0  0  0  0
   19.9430   39.1390   -5.6445 H   0  0  0  0  0  0  0  0  0  0  0  0
   22.2392   39.9571   -6.0185 H   0  0  0  0  0  0  0  0  0  0  0  0
   21.6462   41.2439   -7.0226 H   0  0  0  0  0  0  0  0  0  0  0  0
   20.1019   40.3145   -3.6452 H   0  0  0  0  0  0  0  0  0  0  0  0
   21.0479   41.4768   -2.7453 H   0  0  0  0  0  0  0  0  0  0  0  0
   21.8318   40.0585   -3.4311 H   0  0  0  0  0  0  0  0  0  0  0  0
   22.7022   42.8549   -3.7653 H   0  0  0  0  0  0  0  0  0  0  0  0
   23.4807   41.6923   -4.7649 H   0  0  0  0  0  0  0  0  0  0  0  0
   24.7891   43.8979   -4.9045 H   0  0  0  0  0  0  0  0  0  0  0  0
   20.8859   44.4963   -6.9505 H   0  0  0  0  0  0  0  0  0  0  0  0
   21.9323   46.9125   -6.0225 H   0  0  0  0  0  0  0  0  0  0  0  0
   22.8913   46.0136   -7.1759 H   0  0  0  0  0  0  0  0  0  0  0  0
   23.7391   46.5224   -4.4052 H   0  0  0  0  0  0  0  0  0  0  0  0
   24.2609   47.6835   -7.9504 H   0  0  0  0  0  0  0  0  0  0  0  0
   24.3078   49.4290   -7.3798 H   0  0  0  0  0  0  0  0  0  0  0  0
   26.3545   48.9016   -6.0322 H   0  0  0  0  0  0  0  0  0  0  0  0
   26.2632   47.1520   -6.5882 H   0  0  0  0  0  0  0  0  0  0  0  0
   25.7016   48.6500   -3.4841 H   0  0  0  0  0  0  0  0  0  0  0  0
   22.6482   51.2294   -1.8082 H   0  0  0  0  0  0  0  0  0  0  0  0
   21.2517   50.8190   -3.7535 H   0  0  0  0  0  0  0  0  0  0  0  0
   22.0131   49.3128   -5.5726 H   0  0  0  0  0  0  0  0  0  0  0  0
   23.7966   49.5060    0.1622 H   0  0  0  0  0  0  0  0  0  0  0  0
   25.4439   49.5565    0.7705 H   0  0  0  0  0  0  0  0  0  0  0  0
   24.9726   48.3233   -0.3907 H   0  0  0  0  0  0  0  0  0  0  0  0
   27.0333   50.7210   -2.4513 H   0  0  0  0  0  0  0  0  0  0  0  0
   26.9882   49.0842   -1.7926 H   0  0  0  0  0  0  0  0  0  0  0  0
   27.3554   50.4371   -0.7512 H   0  0  0  0  0  0  0  0  0  0  0  0
   25.2597   52.4731   -1.6018 H   0  0  0  0  0  0  0  0  0  0  0  0
   25.7216   52.0024    0.0352 H   0  0  0  0  0  0  0  0  0  0  0  0
   24.0656   51.9679   -0.4400 H   0  0  0  0  0  0  0  0  0  0  0  0
  1  2  1  0  0  0  0
  1 45  1  0  0  0  0
  1 46  1  0  0  0  0
  1 47  1  0  0  0  0
  2  3  1  0  0  0  0
  3  4  1  0  0  0  0
  3 48  1  0  0  0  0
  3 49  1  0  0  0  0
  4 41  1  0  0  0  0
  4  5  2  0  0  0  0
  5  6  1  0  0  0  0
  5 50  1  0  0  0  0
  6 22  1  0  0  0  0
  6  7  2  0  0  0  0
  7  8  1  0  0  0  0
  7 51  1  0  0  0  0
  8  9  1  0  0  0  0
  8 41  2  0  0  0  0
  9 10  1  0  0  0  0
  9 52  1  0  0  0  0
 10 11  1  0  0  0  0
 10 53  1  0  0  0  0
 10 54  1  0  0  0  0
 11 12  1  0  0  0  0
 11 55  1  0  0  0  0
 11 56  1  0  0  0  0
 12 13  1  0  0  0  0
 12 57  1  0  0  0  0
 12 58  1  0  0  0  0
 13 14  1  0  0  0  0
 13 59  1  0  0  0  0
 13 60  1  0  0  0  0
 14 15  1  0  0  0  0
 15 16  1  0  0  0  0
 15 61  1  0  0  0  0
 15 62  1  0  0  0  0
 16 17  1  0  0  0  0
 16 63  1  0  0  0  0
 16 64  1  0  0  0  0
 17 42  1  6  0  0  0
 17 18  1  0  0  0  0
 17 19  1  0  0  0  0
 18 65  1  0  0  0  0
 18 66  1  0  0  0  0
 18 67  1  0  0  0  0
 19 20  1  0  0  0  0
 19 68  1  0  0  0  0
 19 69  1  0  0  0  0
 20 43  1  6  0  0  0
 20 21  1  0  0  0  0
 20 24  1  0  0  0  0
 21 22  1  0  0  0  0
 21 70  1  0  0  0  0
 22 23  2  0  0  0  0
 24 44  1  1  0  0  0
 24 25  1  0  0  0  0
 24 26  1  0  0  0  0
 25 71  1  0  0  0  0
 26 27  1  0  0  0  0
 26 72  1  0  0  0  0
 26 73  1  0  0  0  0
 27 28  1  0  0  0  0
 27 74  1  0  0  0  0
 28 30  1  0  0  0  0
 28 29  1  0  0  0  0
 28 31  1  0  0  0  0
 29 30  1  0  0  0  0
 29 75  1  0  0  0  0
 29 76  1  0  0  0  0
 30 77  1  0  0  0  0
 30 78  1  0  0  0  0
 31 36  1  0  0  0  0
 31 32  2  0  0  0  0
 32 33  1  0  0  0  0
 32 79  1  0  0  0  0
 33 34  2  0  0  0  0
 33 37  1  0  0  0  0
 34 35  1  0  0  0  0
 34 80  1  0  0  0  0
 35 36  2  0  0  0  0
 35 81  1  0  0  0  0
 36 82  1  0  0  0  0
 37 38  1  0  0  0  0
 37 39  1  0  0  0  0
 37 40  1  0  0  0  0
 38 83  1  0  0  0  0
 38 84  1  0  0  0  0
 38 85  1  0  0  0  0
 39 86  1  0  0  0  0
 39 87  1  0  0  0  0
 39 88  1  0  0  0  0
 40 89  1  0  0  0  0
 40 90  1  0  0  0  0
 40 91  1  0  0  0  0
M  END
>  <s_m_source_file>
BACE_47.smi

>  <i_m_source_file_index>
1

>  <i_lp_mmshare_version>
42013

>  <i_f3d_flags>
0

>  <s_epik_input>
W0NIM11PW0NIMl1jKFtjSF1jMTIpbmMoW2NIXTEpW05IXVtDSDJdW0NIMl1bQ0gyXVtDSDJdT1tDSDJdW0NIMl1bQ0BASF0oW0NIM10pW0NIMl1bQ0BIXShbTkhdQzI9TylbQ0BIXShbT0hdKVtDSDJdW05IXUMzKFtDSDJdW0NIMl0zKWM0W2NIXWMoQyhbQ0gzXSkoW0NIM10pW0NIM10pW2NIXVtjSF1bY0hdNA==

>  <s_epik_cmdline>
J2VwaWtfcHl0aG9uJywgJy1waCcsICc3LjAnLCAnLXRuJywgJzgnLCAnLW1hJywgJzIwMCcsICctaW1hZScsICc8aW5maWxlLm1hZT4nLCAnLW9tYWUnLCAnPG91dGZpbGUubWFlPic=

>  <r_lp_tautomer_probability>
1

>  <r_epik_Ionization_Penalty>
0.3483

>  <r_epik_Ionization_Penalty_Charging>
0.0000

>  <r_epik_Ionization_Penalty_Neutral>
0.3483

>  <r_epik_State_Penalty>
0.3436

>  <r_epik_Charging_Adjusted_Penalty>
0.343593

>  <i_epik_Tot_Q>
0

>  <i_epik_Tot_abs_Q>
0

>  <s_lp_Force_Field>
OPLS_2005

>  <r_lp_Energy>
54.4829

>  <b_lp_Chiralities_Consistent>
1

>  <s_lp_Variant>
BACE_47.smi:1-1

>  <chiral flag>
1

>  <version>
0

>  <s_i_glide_gridfile>
second_dock_grid_2

>  <i_i_glide_lignum>
88

>  <i_i_glide_rotatable_bonds>
9

>  <r_i_docking_score>
-4.27841

>  <r_i_glide_ligand_efficiency>
-0.104351

>  <r_i_glide_ligand_efficiency_sa>
-0.359826

>  <r_i_glide_ligand_efficiency_ln>
-0.907679

>  <r_glide_XP_GScore>
-4.62201

>  <r_i_glide_gscore>
-4.62201

>  <r_i_glide_evdw>
-38.2964

>  <r_i_glide_ecoul>
-4.87528

>  <r_i_glide_energy>
-43.1717

>  <r_i_glide_einternal>
8.03648

>  <r_i_glide_emodel>
-58.652

>  <r_glide_XP_HBond>
-1.13711

>  <i_i_glide_confnum>
1

>  <i_i_glide_posenum>
2

>  <r_i_glide_eff_state_penalty>
0.3436

>  <i_glide_XP_PoseRank>
1

$$$$
