BACE_104.smi:1
 OpenBabel09291822493D
Structure written by MMmdl.
 51 53  0  0  1  0  0  0  0  0999 V2000
   25.6659   44.1917  -12.2734 N   0  0  0  0  0  0  0  0  0  0  0  0
   25.0619   43.1179  -11.4674 C   0  0  0  0  0  0  0  0  0  0  0  0
   23.5503   43.3170  -11.2429 C   0  0  1  0  0  0  0  0  0  0  0  0
   22.8884   42.9489  -12.4358 O   0  0  0  0  0  0  0  0  0  0  0  0
   23.0050   42.4686  -10.0629 C   0  0  2  0  0  0  0  0  0  0  0  0
   22.9434   40.9427  -10.3219 C   0  0  0  0  0  0  0  0  0  0  0  0
   22.1955   40.1685   -9.2458 C   0  0  0  0  0  0  0  0  0  0  0  0
   22.7440   40.0501   -7.9532 C   0  0  0  0  0  0  0  0  0  0  0  0
   22.0435   39.3508   -6.9537 C   0  0  0  0  0  0  0  0  0  0  0  0
   20.8029   38.7559   -7.2484 C   0  0  0  0  0  0  0  0  0  0  0  0
   20.2406   38.8566   -8.5363 C   0  0  0  0  0  0  0  0  0  0  0  0
   20.9473   39.5750   -9.5342 C   0  0  0  0  0  0  0  0  0  0  0  0
   19.0249   38.2333   -8.7320 O   0  0  0  0  0  0  0  0  0  0  0  0
   18.2861   38.5047   -9.9190 C   0  0  0  0  0  0  0  0  0  0  0  0
   17.6288   39.8738   -9.8957 C   0  0  0  0  0  0  0  0  0  0  0  0
   17.2416   40.5223   -8.7825 C   0  0  0  0  0  0  0  0  0  0  0  0
   16.5385   41.8641   -8.7828 C   0  0  0  0  0  0  0  0  0  0  0  0
   16.8684   42.7023   -7.6398 N   0  0  0  0  0  0  0  0  0  0  0  0
   17.8844   43.6515   -7.7690 C   0  0  0  0  0  0  0  0  0  0  0  0
   19.1563   43.3206   -8.2831 C   0  0  0  0  0  0  0  0  0  0  0  0
   20.1518   44.3241   -8.3286 C   0  0  0  0  0  0  0  0  0  0  0  0
   19.8112   45.6174   -7.8768 C   0  0  0  0  0  0  0  0  0  0  0  0
   18.5122   45.8521   -7.3925 C   0  0  0  0  0  0  0  0  0  0  0  0
   18.0913   47.4319   -6.8368 Cl  0  0  0  0  0  0  0  0  0  0  0  0
   17.5745   44.8879   -7.3322 N   0  0  0  0  0  0  0  0  0  0  0  0
   21.5588   44.0269   -8.7661 C   0  0  0  0  0  0  0  0  0  0  0  0
   22.4943   44.7365   -8.3946 O   0  0  0  0  0  0  0  0  0  0  0  0
   21.7156   42.9845   -9.5968 N   0  0  0  0  0  0  0  0  0  0  0  0
   23.3582   44.3731  -11.0476 H   0  0  0  0  0  0  0  0  0  0  0  0
   23.6937   42.5986   -9.2254 H   0  0  0  0  0  0  0  0  0  0  0  0
   25.5025   45.0996  -11.8403 H   0  0  0  0  0  0  0  0  0  0  0  0
   26.6753   44.0663  -12.3351 H   0  0  0  0  0  0  0  0  0  0  0  0
   25.2611   42.1489  -11.9220 H   0  0  0  0  0  0  0  0  0  0  0  0
   25.5604   43.0973  -10.4976 H   0  0  0  0  0  0  0  0  0  0  0  0
   23.2477   42.1155  -12.7288 H   0  0  0  0  0  0  0  0  0  0  0  0
   22.4596   40.7334  -11.2758 H   0  0  0  0  0  0  0  0  0  0  0  0
   23.9559   40.5474  -10.4084 H   0  0  0  0  0  0  0  0  0  0  0  0
   23.6998   40.4986   -7.7258 H   0  0  0  0  0  0  0  0  0  0  0  0
   22.4581   39.2655   -5.9604 H   0  0  0  0  0  0  0  0  0  0  0  0
   20.2722   38.2164   -6.4779 H   0  0  0  0  0  0  0  0  0  0  0  0
   20.5508   39.6836  -10.5312 H   0  0  0  0  0  0  0  0  0  0  0  0
   18.8927   38.3769  -10.8153 H   0  0  0  0  0  0  0  0  0  0  0  0
   17.4943   37.7600  -10.0009 H   0  0  0  0  0  0  0  0  0  0  0  0
   17.4325   40.3149  -10.8612 H   0  0  0  0  0  0  0  0  0  0  0  0
   17.3890   40.0605   -7.8144 H   0  0  0  0  0  0  0  0  0  0  0  0
   16.7345   42.3936   -9.7167 H   0  0  0  0  0  0  0  0  0  0  0  0
   15.4650   41.6751   -8.7468 H   0  0  0  0  0  0  0  0  0  0  0  0
   16.1019   42.9502   -7.0195 H   0  0  0  0  0  0  0  0  0  0  0  0
   19.3691   42.3035   -8.5776 H   0  0  0  0  0  0  0  0  0  0  0  0
   20.5396   46.4149   -7.8854 H   0  0  0  0  0  0  0  0  0  0  0  0
   20.8914   42.4702   -9.8687 H   0  0  0  0  0  0  0  0  0  0  0  0
  1  2  1  0  0  0  0
  1 31  1  0  0  0  0
  1 32  1  0  0  0  0
  2  3  1  0  0  0  0
  2 33  1  0  0  0  0
  2 34  1  0  0  0  0
  3 29  1  1  0  0  0
  3  4  1  0  0  0  0
  3  5  1  0  0  0  0
  4 35  1  0  0  0  0
  5 30  1  1  0  0  0
  5 28  1  0  0  0  0
  5  6  1  0  0  0  0
  6  7  1  0  0  0  0
  6 36  1  0  0  0  0
  6 37  1  0  0  0  0
  7 12  1  0  0  0  0
  7  8  2  0  0  0  0
  8  9  1  0  0  0  0
  8 38  1  0  0  0  0
  9 10  2  0  0  0  0
  9 39  1  0  0  0  0
 10 11  1  0  0  0  0
 10 40  1  0  0  0  0
 11 12  2  0  0  0  0
 11 13  1  0  0  0  0
 12 41  1  0  0  0  0
 13 14  1  0  0  0  0
 14 15  1  0  0  0  0
 14 42  1  0  0  0  0
 14 43  1  0  0  0  0
 15 16  2  0  0  0  0
 15 44  1  0  0  0  0
 16 17  1  0  0  0  0
 16 45  1  0  0  0  0
 17 18  1  0  0  0  0
 17 46  1  0  0  0  0
 17 47  1  0  0  0  0
 18 19  1  0  0  0  0
 18 48  1  0  0  0  0
 19 25  1  0  0  0  0
 19 20  2  0  0  0  0
 20 21  1  0  0  0  0
 20 49  1  0  0  0  0
 21 22  2  0  0  0  0
 21 26  1  0  0  0  0
 22 23  1  0  0  0  0
 22 50  1  0  0  0  0
 23 24  1  0  0  0  0
 23 25  2  0  0  0  0
 26 27  2  0  0  0  0
 26 28  1  0  0  0  0
 28 51  1  0  0  0  0
M  END
>  <s_m_source_file>
BACE_104.smi

>  <i_m_source_file_index>
1

>  <i_lp_mmshare_version>
42013

>  <i_f3d_flags>
0

>  <s_epik_input>
W05IMl1bQ0gyXVtDQEBIXShbT0hdKVtDQEhdKFtDSDJdMSlbTkhdQyg9TyljKFtjSF1jKENsKW4yKVtjSF1jMltOSF1bQ0gyXVxbQ0hdPVtDSF1cW0NIMl1PYyhbY0hdMylbY0hdW2NIXVtjSF1jMTM=

>  <s_epik_cmdline>
J2VwaWtfcHl0aG9uJywgJy1waCcsICc3LjAnLCAnLXRuJywgJzgnLCAnLW1hJywgJzIwMCcsICctaW1hZScsICc8aW5maWxlLm1hZT4nLCAnLW9tYWUnLCAnPG91dGZpbGUubWFlPic=

>  <r_lp_tautomer_probability>
1

>  <r_epik_Ionization_Penalty>
2.2995

>  <r_epik_Ionization_Penalty_Charging>
0.0000

>  <r_epik_Ionization_Penalty_Neutral>
2.2995

>  <r_epik_State_Penalty>
2.4501

>  <r_epik_Charging_Adjusted_Penalty>
2.45011

>  <i_epik_Tot_Q>
0

>  <i_epik_Tot_abs_Q>
0

>  <s_lp_Force_Field>
OPLS_2005

>  <r_lp_Energy>
23.9867

>  <b_lp_Chiralities_Consistent>
1

>  <s_lp_Variant>
BACE_104.smi:1-2

>  <chiral flag>
1

>  <version>
0

>  <s_i_glide_gridfile>
second_dock_grid_2

>  <i_i_glide_lignum>
213

>  <i_i_glide_rotatable_bonds>
3

>  <r_i_docking_score>
-1.72894

>  <r_i_glide_ligand_efficiency>
-0.0617479

>  <r_i_glide_ligand_efficiency_sa>
-0.187503

>  <r_i_glide_ligand_efficiency_ln>
-0.399091

>  <r_glide_XP_GScore>
-4.17904

>  <r_i_glide_gscore>
-4.17904

>  <r_i_glide_evdw>
-29.5686

>  <r_i_glide_ecoul>
-7.93415

>  <r_i_glide_energy>
-37.5027

>  <r_i_glide_einternal>
2.04413

>  <r_i_glide_emodel>
-41.0931

>  <r_glide_XP_HBond>
-0.889563

>  <i_i_glide_confnum>
1

>  <i_i_glide_posenum>
49

>  <r_i_glide_eff_state_penalty>
2.4501

>  <i_glide_XP_PoseRank>
1

$$$$
