BACE_71.smi:1
 OpenBabel09291822493D
Structure written by MMmdl.
 84 87  0  0  1  0  0  0  0  0999 V2000
   21.7418   38.7633   -9.3299 C   0  0  0  0  0  0  0  0  0  0  0  0
   22.0217   40.2425   -9.0025 C   0  0  0  0  0  0  0  0  0  0  0  0
   23.4342   40.6662   -9.4235 C   0  0  0  0  0  0  0  0  0  0  0  0
   21.7796   40.5873   -7.5362 C   0  0  0  0  0  0  0  0  0  0  0  0
   21.0529   41.7472   -7.1951 C   0  0  0  0  0  0  0  0  0  0  0  0
   20.8639   42.0995   -5.8424 C   0  0  0  0  0  0  0  0  0  0  0  0
   20.0714   43.3450   -5.4944 C   0  0  0  0  0  0  0  0  0  0  0  0
   20.8969   44.5242   -5.2397 N   0  0  0  0  0  0  0  0  0  0  0  0
   21.8620   44.9060   -6.2843 C   0  0  0  0  0  0  0  0  0  0  0  0
   22.2187   46.4069   -6.2124 C   0  0  1  0  0  0  0  0  0  0  0  0
   20.9769   47.0724   -6.0870 O   0  0  0  0  0  0  0  0  0  0  0  0
   23.2174   46.8398   -5.0946 C   0  0  2  0  0  0  0  0  0  0  0  0
   23.3282   48.3945   -4.9873 C   0  0  0  0  0  0  0  0  0  0  0  0
   23.8524   48.9622   -3.6527 C   0  0  2  0  0  0  0  0  0  0  0  0
   23.7361   50.5001   -3.5795 C   0  0  0  0  0  0  0  0  0  0  0  0
   25.1036   51.0272   -3.1290 C   0  0  0  0  0  0  0  0  0  0  0  0
   25.7705   49.8289   -2.4631 C   0  0  2  0  0  0  0  0  0  0  0  0
   27.2957   49.9332   -2.3435 C   0  0  0  0  0  0  0  0  0  0  0  0
   27.8425   48.9610   -1.2848 C   0  0  0  0  0  0  0  0  0  0  0  0
   29.3228   48.6063   -1.4583 C   0  0  0  0  0  0  0  0  0  0  0  0
   29.6276   47.6612   -2.6367 C   0  0  0  0  0  0  0  0  0  0  0  0
   29.1633   46.2049   -2.4371 C   0  0  0  0  0  0  0  0  0  0  0  0
   29.5489   45.3659   -3.5648 N   0  0  0  0  0  0  0  0  0  0  0  0
   28.8107   45.3826   -4.7617 C   0  0  0  0  0  0  0  0  0  0  0  0
   29.4862   44.9874   -5.9342 C   0  0  0  0  0  0  0  0  0  0  0  0
   28.8387   45.0085   -7.1871 C   0  0  0  0  0  0  0  0  0  0  0  0
   27.4939   45.4272   -7.2569 C   0  0  0  0  0  0  0  0  0  0  0  0
   26.7934   45.8308   -6.0991 C   0  0  0  0  0  0  0  0  0  0  0  0
   27.4558   45.7958   -4.8472 C   0  0  0  0  0  0  0  0  0  0  0  0
   25.4121   46.4070   -6.2483 C   0  0  0  0  0  0  0  0  0  0  0  0
   25.1200   47.0282   -7.2700 O   0  0  0  0  0  0  0  0  0  0  0  0
   24.5427   46.2063   -5.2395 N   0  0  0  0  0  0  0  0  0  0  0  0
   29.5834   44.6389   -8.4642 C   0  0  0  0  0  0  0  0  0  0  0  0
   28.8694   43.7723   -9.1852 F   0  0  0  0  0  0  0  0  0  0  0  0
   29.7673   45.7429   -9.1882 F   0  0  0  0  0  0  0  0  0  0  0  0
   30.7748   44.0954   -8.2108 F   0  0  0  0  0  0  0  0  0  0  0  0
   25.3189   48.6615   -3.3404 C   0  0  0  0  0  0  0  0  0  0  0  0
   21.3934   41.2888   -4.8158 C   0  0  0  0  0  0  0  0  0  0  0  0
   22.1107   40.1255   -5.1499 C   0  0  0  0  0  0  0  0  0  0  0  0
   22.3023   39.7804   -6.5043 C   0  0  0  0  0  0  0  0  0  0  0  0
   22.6189   46.7013   -7.1831 H   0  0  0  0  0  0  0  0  0  0  0  0
   22.8153   46.4749   -4.1519 H   0  0  0  0  0  0  0  0  0  0  0  0
   23.2582   48.5437   -2.8417 H   0  0  0  0  0  0  0  0  0  0  0  0
   25.3326   49.7212   -1.4679 H   0  0  0  0  0  0  0  0  0  0  0  0
   20.7333   38.4780   -9.0274 H   0  0  0  0  0  0  0  0  0  0  0  0
   22.4362   38.0883   -8.8299 H   0  0  0  0  0  0  0  0  0  0  0  0
   21.8250   38.5747  -10.4002 H   0  0  0  0  0  0  0  0  0  0  0  0
   21.3198   40.8275   -9.5980 H   0  0  0  0  0  0  0  0  0  0  0  0
   23.5721   41.7401   -9.2901 H   0  0  0  0  0  0  0  0  0  0  0  0
   23.6219   40.4383  -10.4725 H   0  0  0  0  0  0  0  0  0  0  0  0
   24.1948   40.1609   -8.8252 H   0  0  0  0  0  0  0  0  0  0  0  0
   20.6451   42.3738   -7.9749 H   0  0  0  0  0  0  0  0  0  0  0  0
   19.3701   43.5492   -6.3030 H   0  0  0  0  0  0  0  0  0  0  0  0
   19.4662   43.1297   -4.6136 H   0  0  0  0  0  0  0  0  0  0  0  0
   21.3214   44.4781   -4.3184 H   0  0  0  0  0  0  0  0  0  0  0  0
   22.7594   44.2870   -6.2319 H   0  0  0  0  0  0  0  0  0  0  0  0
   21.4267   44.7179   -7.2640 H   0  0  0  0  0  0  0  0  0  0  0  0
   20.3232   46.3866   -6.1019 H   0  0  0  0  0  0  0  0  0  0  0  0
   23.9045   48.7978   -5.8189 H   0  0  0  0  0  0  0  0  0  0  0  0
   22.3357   48.8291   -5.1072 H   0  0  0  0  0  0  0  0  0  0  0  0
   23.4569   50.9422   -4.5362 H   0  0  0  0  0  0  0  0  0  0  0  0
   22.9678   50.7829   -2.8577 H   0  0  0  0  0  0  0  0  0  0  0  0
   25.6857   51.3371   -4.0004 H   0  0  0  0  0  0  0  0  0  0  0  0
   25.0239   51.8856   -2.4609 H   0  0  0  0  0  0  0  0  0  0  0  0
   27.7497   49.7565   -3.3177 H   0  0  0  0  0  0  0  0  0  0  0  0
   27.5792   50.9484   -2.0688 H   0  0  0  0  0  0  0  0  0  0  0  0
   27.6958   49.4097   -0.2982 H   0  0  0  0  0  0  0  0  0  0  0  0
   27.2614   48.0457   -1.2699 H   0  0  0  0  0  0  0  0  0  0  0  0
   29.9049   49.5243   -1.5707 H   0  0  0  0  0  0  0  0  0  0  0  0
   29.6642   48.1514   -0.5339 H   0  0  0  0  0  0  0  0  0  0  0  0
   29.2091   48.0642   -3.5581 H   0  0  0  0  0  0  0  0  0  0  0  0
   30.7072   47.6450   -2.7873 H   0  0  0  0  0  0  0  0  0  0  0  0
   29.6469   45.7853   -1.5530 H   0  0  0  0  0  0  0  0  0  0  0  0
   28.0948   46.1471   -2.2364 H   0  0  0  0  0  0  0  0  0  0  0  0
   30.5527   45.3329   -3.6851 H   0  0  0  0  0  0  0  0  0  0  0  0
   30.5221   44.6831   -5.8768 H   0  0  0  0  0  0  0  0  0  0  0  0
   27.0108   45.4758   -8.2215 H   0  0  0  0  0  0  0  0  0  0  0  0
   26.9229   46.1204   -3.9686 H   0  0  0  0  0  0  0  0  0  0  0  0
   24.8561   45.6221   -4.4733 H   0  0  0  0  0  0  0  0  0  0  0  0
   25.4490   47.7017   -2.8475 H   0  0  0  0  0  0  0  0  0  0  0  0
   25.9020   48.6473   -4.2617 H   0  0  0  0  0  0  0  0  0  0  0  0
   21.2458   41.5530   -3.7790 H   0  0  0  0  0  0  0  0  0  0  0  0
   22.5150   39.4946   -4.3710 H   0  0  0  0  0  0  0  0  0  0  0  0
   22.8595   38.8922   -6.7482 H   0  0  0  0  0  0  0  0  0  0  0  0
  1  2  1  0  0  0  0
  1 45  1  0  0  0  0
  1 46  1  0  0  0  0
  1 47  1  0  0  0  0
  2  3  1  0  0  0  0
  2  4  1  0  0  0  0
  2 48  1  0  0  0  0
  3 49  1  0  0  0  0
  3 50  1  0  0  0  0
  3 51  1  0  0  0  0
  4 40  1  0  0  0  0
  4  5  2  0  0  0  0
  5  6  1  0  0  0  0
  5 52  1  0  0  0  0
  6  7  1  0  0  0  0
  6 38  2  0  0  0  0
  7  8  1  0  0  0  0
  7 53  1  0  0  0  0
  7 54  1  0  0  0  0
  8  9  1  0  0  0  0
  8 55  1  0  0  0  0
  9 10  1  0  0  0  0
  9 56  1  0  0  0  0
  9 57  1  0  0  0  0
 10 41  1  6  0  0  0
 10 11  1  0  0  0  0
 10 12  1  0  0  0  0
 11 58  1  0  0  0  0
 12 42  1  1  0  0  0
 12 32  1  0  0  0  0
 12 13  1  0  0  0  0
 13 14  1  0  0  0  0
 13 59  1  0  0  0  0
 13 60  1  0  0  0  0
 14 43  1  1  0  0  0
 14 37  1  0  0  0  0
 14 15  1  0  0  0  0
 15 16  1  0  0  0  0
 15 61  1  0  0  0  0
 15 62  1  0  0  0  0
 16 17  1  0  0  0  0
 16 63  1  0  0  0  0
 16 64  1  0  0  0  0
 17 44  1  1  0  0  0
 17 18  1  0  0  0  0
 17 37  1  0  0  0  0
 18 19  1  0  0  0  0
 18 65  1  0  0  0  0
 18 66  1  0  0  0  0
 19 20  1  0  0  0  0
 19 67  1  0  0  0  0
 19 68  1  0  0  0  0
 20 21  1  0  0  0  0
 20 69  1  0  0  0  0
 20 70  1  0  0  0  0
 21 22  1  0  0  0  0
 21 71  1  0  0  0  0
 21 72  1  0  0  0  0
 22 23  1  0  0  0  0
 22 73  1  0  0  0  0
 22 74  1  0  0  0  0
 23 24  1  0  0  0  0
 23 75  1  0  0  0  0
 24 29  1  0  0  0  0
 24 25  2  0  0  0  0
 25 26  1  0  0  0  0
 25 76  1  0  0  0  0
 26 27  2  0  0  0  0
 26 33  1  0  0  0  0
 27 28  1  0  0  0  0
 27 77  1  0  0  0  0
 28 29  2  0  0  0  0
 28 30  1  0  0  0  0
 29 78  1  0  0  0  0
 30 31  2  0  0  0  0
 30 32  1  0  0  0  0
 32 79  1  0  0  0  0
 33 34  1  0  0  0  0
 33 35  1  0  0  0  0
 33 36  1  0  0  0  0
 37 80  1  0  0  0  0
 37 81  1  0  0  0  0
 38 39  1  0  0  0  0
 38 82  1  0  0  0  0
 39 40  2  0  0  0  0
 39 83  1  0  0  0  0
 40 84  1  0  0  0  0
M  END
>  <s_m_source_file>
BACE_71.smi

>  <i_m_source_file_index>
1

>  <i_lp_mmshare_version>
42013

>  <i_f3d_flags>
0

>  <s_epik_input>
W0NIM11bQ0hdKFtDSDNdKWMxW2NIXWMoW2NIXVtjSF1bY0hdMSlbQ0gyXVtOSF1bQ0gyXVtDQEBIXShbT0hdKVtDQEhdKFtDSDJdW0NASF0yMylbTkhdQyg9TyljNFtjSF1jKEMoRikoRilGKVtjSF1jKFtjSF00KVtOSF1bQ0gyXVtDSDJdW0NIMl1bQ0gyXVtDSDJdW0NASF0oW0NIMl0zKVtDSDJdW0NIMl0y

>  <s_epik_cmdline>
J2VwaWtfcHl0aG9uJywgJy1waCcsICc3LjAnLCAnLXRuJywgJzgnLCAnLW1hJywgJzIwMCcsICctaW1hZScsICc8aW5maWxlLm1hZT4nLCAnLW9tYWUnLCAnPG91dGZpbGUubWFlPic=

>  <r_epik_Ionization_Penalty>
2.1318

>  <r_epik_Ionization_Penalty_Charging>
0.0000

>  <r_epik_Ionization_Penalty_Neutral>
2.1318

>  <r_epik_State_Penalty>
2.2702

>  <r_epik_Charging_Adjusted_Penalty>
2.27019

>  <i_epik_Tot_Q>
0

>  <i_epik_Tot_abs_Q>
0

>  <s_lp_Force_Field>
OPLS_2005

>  <r_lp_Energy>
53.0594

>  <b_lp_Chiralities_Consistent>
1

>  <s_lp_Variant>
BACE_71.smi:1-2

>  <chiral flag>
1

>  <version>
0

>  <s_i_glide_gridfile>
second_dock_grid_2

>  <i_i_glide_lignum>
143

>  <i_i_glide_rotatable_bonds>
8

>  <r_i_docking_score>
-1.70909

>  <r_i_glide_ligand_efficiency>
-0.0427271

>  <r_i_glide_ligand_efficiency_sa>
-0.146125

>  <r_i_glide_ligand_efficiency_ln>
-0.364498

>  <r_glide_XP_GScore>
-3.97929

>  <r_i_glide_gscore>
-3.97929

>  <r_i_glide_evdw>
-38.9791

>  <r_i_glide_ecoul>
-5.06223

>  <r_i_glide_energy>
-44.0413

>  <r_i_glide_einternal>
4.74134

>  <r_i_glide_emodel>
-61.0429

>  <r_glide_XP_HBond>
-0.365854

>  <i_i_glide_confnum>
1

>  <i_i_glide_posenum>
2

>  <r_i_glide_eff_state_penalty>
2.2702

>  <i_glide_XP_PoseRank>
1

$$$$
