BACE_37.smi:1
 OpenBabel09291822493D
Structure written by MMmdl.
 82 83  0  0  1  0  0  0  0  0999 V2000
   24.9982   43.8939   -6.6377 C   0  0  0  0  0  0  0  0  0  0  0  0
   23.5953   43.2768   -6.7550 C   0  0  2  0  0  0  0  0  0  0  0  0
   23.2052   43.0932   -8.2390 C   0  0  0  0  0  0  0  0  0  0  0  0
   23.8504   41.8718   -8.9221 C   0  0  0  0  0  0  0  0  0  0  0  0
   22.9846   41.3196  -10.0692 C   0  0  0  0  0  0  0  0  0  0  0  0
   21.7930   40.4819   -9.5596 C   0  0  0  0  0  0  0  0  0  0  0  0
   20.7377   40.1474  -10.6312 C   0  0  0  0  0  0  0  0  0  0  0  0
   19.9536   41.3525  -11.1888 C   0  0  0  0  0  0  0  0  0  0  0  0
   19.3386   42.1529  -10.1300 N   0  0  0  0  0  0  0  0  0  0  0  0
   19.6620   43.4217   -9.8311 C   0  0  0  0  0  0  0  0  0  0  0  0
   20.5010   44.0648  -10.4621 O   0  0  0  0  0  0  0  0  0  0  0  0
   18.9401   44.0485   -8.6283 C   0  0  0  0  0  0  0  0  0  0  0  0
   19.7460   45.1822   -7.9384 C   0  0  1  0  0  0  0  0  0  0  0  0
   19.5425   46.5447   -8.6324 C   0  0  0  0  0  0  0  0  0  0  0  0
   19.4333   45.2714   -6.4301 C   0  0  0  0  0  0  0  0  0  0  0  0
   18.5230   46.0007   -6.0412 O   0  0  0  0  0  0  0  0  0  0  0  0
   20.1783   44.5883   -5.5409 N   0  0  0  0  0  0  0  0  0  0  0  0
   21.1364   43.5115   -5.7987 C   0  0  1  0  0  0  0  0  0  0  0  0
   22.5590   44.1245   -5.9728 C   0  0  0  0  0  0  0  0  0  0  0  0
   21.0261   42.4573   -4.6614 C   0  0  2  0  0  0  0  0  0  0  0  0
   22.0934   42.6253   -3.7500 O   0  0  0  0  0  0  0  0  0  0  0  0
   21.1192   40.9965   -5.1585 C   0  0  0  0  0  0  0  0  0  0  0  0
   20.0592   40.6888   -6.1397 N   0  3  0  0  0  0  0  0  0  0  0  0
   19.9873   39.2632   -6.5113 C   0  0  0  0  0  0  0  0  0  0  0  0
   19.0583   39.0646   -7.6912 C   0  0  0  0  0  0  0  0  0  0  0  0
   19.5537   38.5474   -8.9037 C   0  0  0  0  0  0  0  0  0  0  0  0
   18.6840   38.3665   -9.9936 C   0  0  0  0  0  0  0  0  0  0  0  0
   17.3213   38.7020   -9.8776 C   0  0  0  0  0  0  0  0  0  0  0  0
   16.8033   39.2239   -8.6658 C   0  0  0  0  0  0  0  0  0  0  0  0
   17.6928   39.3970   -7.5783 C   0  0  0  0  0  0  0  0  0  0  0  0
   15.3204   39.6090   -8.4999 C   0  0  0  0  0  0  0  0  0  0  0  0
   15.1675   41.1417   -8.5921 C   0  0  0  0  0  0  0  0  0  0  0  0
   14.7283   39.1615   -7.1443 C   0  0  0  0  0  0  0  0  0  0  0  0
   14.4872   38.9466   -9.6170 C   0  0  0  0  0  0  0  0  0  0  0  0
   23.6545   42.2957   -6.2903 H   0  0  0  0  0  0  0  0  0  0  0  0
   20.8093   44.9675   -8.0279 H   0  0  0  0  0  0  0  0  0  0  0  0
   20.8150   43.0110   -6.7087 H   0  0  0  0  0  0  0  0  0  0  0  0
   20.0854   42.5985   -4.1272 H   0  0  0  0  0  0  0  0  0  0  0  0
   25.0302   44.8937   -7.0718 H   0  0  0  0  0  0  0  0  0  0  0  0
   25.7428   43.2853   -7.1512 H   0  0  0  0  0  0  0  0  0  0  0  0
   25.3068   43.9747   -5.5950 H   0  0  0  0  0  0  0  0  0  0  0  0
   22.1308   42.9872   -8.3214 H   0  0  0  0  0  0  0  0  0  0  0  0
   23.4282   43.9975   -8.8068 H   0  0  0  0  0  0  0  0  0  0  0  0
   24.8314   42.1569   -9.3030 H   0  0  0  0  0  0  0  0  0  0  0  0
   24.0290   41.0729   -8.2016 H   0  0  0  0  0  0  0  0  0  0  0  0
   22.6432   42.1507  -10.6861 H   0  0  0  0  0  0  0  0  0  0  0  0
   23.5976   40.6948  -10.7192 H   0  0  0  0  0  0  0  0  0  0  0  0
   22.1808   39.5485   -9.1503 H   0  0  0  0  0  0  0  0  0  0  0  0
   21.3030   40.9745   -8.7208 H   0  0  0  0  0  0  0  0  0  0  0  0
   21.2133   39.6160  -11.4563 H   0  0  0  0  0  0  0  0  0  0  0  0
   20.0244   39.4451  -10.1986 H   0  0  0  0  0  0  0  0  0  0  0  0
   20.6030   41.9563  -11.8240 H   0  0  0  0  0  0  0  0  0  0  0  0
   19.1577   40.9926  -11.8411 H   0  0  0  0  0  0  0  0  0  0  0  0
   18.6318   41.6991   -9.5698 H   0  0  0  0  0  0  0  0  0  0  0  0
   17.9708   44.4218   -8.9614 H   0  0  0  0  0  0  0  0  0  0  0  0
   18.7234   43.2502   -7.9161 H   0  0  0  0  0  0  0  0  0  0  0  0
   20.0924   47.3359   -8.1213 H   0  0  0  0  0  0  0  0  0  0  0  0
   18.4903   46.8312   -8.6549 H   0  0  0  0  0  0  0  0  0  0  0  0
   19.8962   46.5242   -9.6629 H   0  0  0  0  0  0  0  0  0  0  0  0
   19.9723   44.7611   -4.5676 H   0  0  0  0  0  0  0  0  0  0  0  0
   22.9551   44.3535   -4.9825 H   0  0  0  0  0  0  0  0  0  0  0  0
   22.4871   45.0910   -6.4731 H   0  0  0  0  0  0  0  0  0  0  0  0
   22.9084   42.6065   -4.2286 H   0  0  0  0  0  0  0  0  0  0  0  0
   22.0726   40.8084   -5.6520 H   0  0  0  0  0  0  0  0  0  0  0  0
   21.0587   40.3051   -4.3162 H   0  0  0  0  0  0  0  0  0  0  0  0
   19.1692   40.9638   -5.7485 H   0  0  0  0  0  0  0  0  0  0  0  0
   20.9828   38.8955   -6.7645 H   0  0  0  0  0  0  0  0  0  0  0  0
   19.6349   38.6776   -5.6610 H   0  0  0  0  0  0  0  0  0  0  0  0
   20.5982   38.2891   -9.0020 H   0  0  0  0  0  0  0  0  0  0  0  0
   19.0628   37.9708  -10.9247 H   0  0  0  0  0  0  0  0  0  0  0  0
   16.6947   38.5482  -10.7418 H   0  0  0  0  0  0  0  0  0  0  0  0
   17.3286   39.7935   -6.6422 H   0  0  0  0  0  0  0  0  0  0  0  0
   14.1287   41.4449   -8.4559 H   0  0  0  0  0  0  0  0  0  0  0  0
   15.4874   41.5310   -9.5586 H   0  0  0  0  0  0  0  0  0  0  0  0
   15.7575   41.6434   -7.8240 H   0  0  0  0  0  0  0  0  0  0  0  0
   15.2530   39.6184   -6.3043 H   0  0  0  0  0  0  0  0  0  0  0  0
   14.7701   38.0784   -7.0223 H   0  0  0  0  0  0  0  0  0  0  0  0
   13.6799   39.4494   -7.0577 H   0  0  0  0  0  0  0  0  0  0  0  0
   13.4275   39.1841   -9.5156 H   0  0  0  0  0  0  0  0  0  0  0  0
   14.5824   37.8606   -9.5884 H   0  0  0  0  0  0  0  0  0  0  0  0
   14.7939   39.2766  -10.6096 H   0  0  0  0  0  0  0  0  0  0  0  0
   20.2246   41.2329   -6.9743 H   0  0  0  0  0  0  0  0  0  0  0  0
  1  2  1  0  0  0  0
  1 39  1  0  0  0  0
  1 40  1  0  0  0  0
  1 41  1  0  0  0  0
  2 35  1  1  0  0  0
  2 19  1  0  0  0  0
  2  3  1  0  0  0  0
  3  4  1  0  0  0  0
  3 42  1  0  0  0  0
  3 43  1  0  0  0  0
  4  5  1  0  0  0  0
  4 44  1  0  0  0  0
  4 45  1  0  0  0  0
  5  6  1  0  0  0  0
  5 46  1  0  0  0  0
  5 47  1  0  0  0  0
  6  7  1  0  0  0  0
  6 48  1  0  0  0  0
  6 49  1  0  0  0  0
  7  8  1  0  0  0  0
  7 50  1  0  0  0  0
  7 51  1  0  0  0  0
  8  9  1  0  0  0  0
  8 52  1  0  0  0  0
  8 53  1  0  0  0  0
  9 10  1  0  0  0  0
  9 54  1  0  0  0  0
 10 11  2  0  0  0  0
 10 12  1  0  0  0  0
 12 13  1  0  0  0  0
 12 55  1  0  0  0  0
 12 56  1  0  0  0  0
 13 36  1  6  0  0  0
 13 14  1  0  0  0  0
 13 15  1  0  0  0  0
 14 57  1  0  0  0  0
 14 58  1  0  0  0  0
 14 59  1  0  0  0  0
 15 16  2  0  0  0  0
 15 17  1  0  0  0  0
 17 18  1  0  0  0  0
 17 60  1  0  0  0  0
 18 37  1  6  0  0  0
 18 19  1  0  0  0  0
 18 20  1  0  0  0  0
 19 61  1  0  0  0  0
 19 62  1  0  0  0  0
 20 38  1  1  0  0  0
 20 21  1  0  0  0  0
 20 22  1  0  0  0  0
 21 63  1  0  0  0  0
 22 23  1  0  0  0  0
 22 64  1  0  0  0  0
 22 65  1  0  0  0  0
 23 24  1  0  0  0  0
 23 66  1  0  0  0  0
 23 82  1  0  0  0  0
 24 25  1  0  0  0  0
 24 67  1  0  0  0  0
 24 68  1  0  0  0  0
 25 30  1  0  0  0  0
 25 26  2  0  0  0  0
 26 27  1  0  0  0  0
 26 69  1  0  0  0  0
 27 28  2  0  0  0  0
 27 70  1  0  0  0  0
 28 29  1  0  0  0  0
 28 71  1  0  0  0  0
 29 30  2  0  0  0  0
 29 31  1  0  0  0  0
 30 72  1  0  0  0  0
 31 32  1  0  0  0  0
 31 33  1  0  0  0  0
 31 34  1  0  0  0  0
 32 73  1  0  0  0  0
 32 74  1  0  0  0  0
 32 75  1  0  0  0  0
 33 76  1  0  0  0  0
 33 77  1  0  0  0  0
 33 78  1  0  0  0  0
 34 79  1  0  0  0  0
 34 80  1  0  0  0  0
 34 81  1  0  0  0  0
M  CHG  1  23   1
M  END
>  <s_m_source_file>
BACE_37.smi

>  <i_m_source_file_index>
1

>  <i_lp_mmshare_version>
42013

>  <i_f3d_flags>
0

>  <s_epik_input>
W0NIM11bQ0BASF0xW0NIMl1bQ0gyXVtDSDJdW0NIMl1bQ0gyXVtDSDJdW05IXUMoPU8pW0NIMl1bQ0BASF0oW0NIM10pQyg9TylbTkhdW0NAQEhdKFtDSDJdMSlbQ0BIXShbT0hdKVtDSDJdW05IXVtDSDJdYzJbY0hdW2NIXVtjSF1jKFtjSF0yKUMoW0NIM10pKFtDSDNdKVtDSDNd

>  <s_epik_cmdline>
J2VwaWtfcHl0aG9uJywgJy1waCcsICc3LjAnLCAnLXRuJywgJzgnLCAnLW1hJywgJzIwMCcsICctaW1hZScsICc8aW5maWxlLm1hZT4nLCAnLW9tYWUnLCAnPG91dGZpbGUubWFlPic=

>  <r_epik_Ionization_Penalty>
0.0172

>  <r_epik_Ionization_Penalty_Charging>
0.0172

>  <r_epik_Ionization_Penalty_Neutral>
0.0000

>  <r_epik_State_Penalty>
0.0136

>  <r_epik_Charging_Adjusted_Penalty>
0.0307473

>  <i_epik_Tot_Q>
1

>  <i_epik_Tot_abs_Q>
1

>  <s_lp_Force_Field>
OPLS_2005

>  <r_lp_Energy>
24.847

>  <b_lp_Chiralities_Consistent>
1

>  <s_lp_Variant>
BACE_37.smi:1-1

>  <chiral flag>
1

>  <version>
0

>  <s_i_glide_gridfile>
second_dock_grid_2

>  <i_i_glide_lignum>
65

>  <i_i_glide_rotatable_bonds>
7

>  <r_i_docking_score>
-4.88697

>  <r_i_glide_ligand_efficiency>
-0.143735

>  <r_i_glide_ligand_efficiency_sa>
-0.465644

>  <r_i_glide_ligand_efficiency_ln>
-1.07967

>  <r_glide_XP_GScore>
-4.90057

>  <r_i_glide_gscore>
-4.90057

>  <r_i_glide_evdw>
-35.396

>  <r_i_glide_ecoul>
-12.5563

>  <r_i_glide_energy>
-47.9523

>  <r_i_glide_einternal>
6.57027

>  <r_i_glide_emodel>
-65.2594

>  <r_glide_XP_HBond>
-0.603967

>  <i_i_glide_confnum>
1

>  <i_i_glide_posenum>
1

>  <r_i_glide_eff_state_penalty>
0.0136

>  <i_glide_XP_PoseRank>
1

$$$$
