BACE_15.smi:1
 OpenBabel09291822493D
Structure written by MMmdl.
 82 85  0  0  1  0  0  0  0  0999 V2000
   17.1645   50.4918  -10.4221 C   0  0  0  0  0  0  0  0  0  0  0  0
   17.7139   49.2148  -10.7079 O   0  0  0  0  0  0  0  0  0  0  0  0
   17.4321   48.2389   -9.7147 C   0  0  0  0  0  0  0  0  0  0  0  0
   18.0334   46.8799  -10.0273 C   0  0  0  0  0  0  0  0  0  0  0  0
   19.4173   46.6671   -9.8448 C   0  0  0  0  0  0  0  0  0  0  0  0
   19.9940   45.4105  -10.1492 C   0  0  0  0  0  0  0  0  0  0  0  0
   19.1656   44.3844  -10.6327 C   0  0  0  0  0  0  0  0  0  0  0  0
   17.7732   44.5671  -10.7662 C   0  0  0  0  0  0  0  0  0  0  0  0
   17.2123   45.8311  -10.4942 C   0  0  0  0  0  0  0  0  0  0  0  0
   16.9125   43.4106  -11.1704 C   0  0  0  0  0  0  0  0  0  0  0  0
   16.0322   43.5156  -12.0233 O   0  0  0  0  0  0  0  0  0  0  0  0
   17.1953   42.2904  -10.4899 N   0  0  0  0  0  0  0  0  0  0  0  0
   16.7033   40.9345  -10.7104 C   0  0  1  0  0  0  0  0  0  0  0  0
   17.6503   39.9146  -10.0177 C   0  0  0  0  0  0  0  0  0  0  0  0
   19.1338   40.1749  -10.2567 C   0  0  0  0  0  0  0  0  0  0  0  0
   19.8370   41.1073   -9.4611 C   0  0  0  0  0  0  0  0  0  0  0  0
   21.1902   41.4130   -9.7161 C   0  0  0  0  0  0  0  0  0  0  0  0
   21.8597   40.7138  -10.7519 C   0  0  0  0  0  0  0  0  0  0  0  0
   21.1728   39.7603  -11.5283 C   0  0  0  0  0  0  0  0  0  0  0  0
   19.8109   39.4985  -11.2904 C   0  0  0  0  0  0  0  0  0  0  0  0
   21.7660   42.4052   -8.9477 O   0  0  0  0  0  0  0  0  0  0  0  0
   23.1416   42.7041   -9.1547 C   0  0  0  0  0  0  0  0  0  0  0  0
   23.5785   43.8845   -8.2680 C   0  0  0  0  0  0  0  0  0  0  0  0
   23.4891   45.2739   -8.9336 C   0  0  0  0  0  0  0  0  0  0  0  0
   22.0761   45.8626   -9.0651 C   0  0  0  0  0  0  0  0  0  0  0  0
   21.3287   45.1080  -10.0048 O   0  0  0  0  0  0  0  0  0  0  0  0
   15.2096   40.8014  -10.3052 C   0  0  2  0  0  0  0  0  0  0  0  0
   14.3921   40.9259  -11.4524 O   0  0  0  0  0  0  0  0  0  0  0  0
   14.7409   41.8615   -9.2916 C   0  0  0  0  0  0  0  0  0  0  0  0
   15.3814   41.6859   -7.9892 N   0  0  0  0  0  0  0  0  0  0  0  0
   15.2179   40.3512   -7.4170 C   0  0  0  0  0  0  0  0  0  0  0  0
   16.2080   39.3431   -7.9687 C   0  0  0  0  0  0  0  0  0  0  0  0
   17.5782   39.4534   -7.6543 C   0  0  0  0  0  0  0  0  0  0  0  0
   18.5060   38.5124   -8.1524 C   0  0  0  0  0  0  0  0  0  0  0  0
   18.0495   37.4605   -8.9756 C   0  0  0  0  0  0  0  0  0  0  0  0
   16.6821   37.3485   -9.2926 C   0  0  0  0  0  0  0  0  0  0  0  0
   15.7615   38.2866   -8.7882 C   0  0  0  0  0  0  0  0  0  0  0  0
   19.9840   38.6195   -7.8001 C   0  0  0  0  0  0  0  0  0  0  0  0
   20.2714   39.8713   -6.9563 C   0  0  0  0  0  0  0  0  0  0  0  0
   20.8734   38.5621   -9.0519 C   0  0  0  0  0  0  0  0  0  0  0  0
   16.7833   40.7656  -11.7856 H   0  0  0  0  0  0  0  0  0  0  0  0
   15.0219   39.8153   -9.8786 H   0  0  0  0  0  0  0  0  0  0  0  0
   17.3911   51.1769  -11.2391 H   0  0  0  0  0  0  0  0  0  0  0  0
   17.5826   50.9149   -9.5081 H   0  0  0  0  0  0  0  0  0  0  0  0
   16.0798   50.4404  -10.3191 H   0  0  0  0  0  0  0  0  0  0  0  0
   17.7549   48.5924   -8.7340 H   0  0  0  0  0  0  0  0  0  0  0  0
   16.3496   48.1210   -9.6573 H   0  0  0  0  0  0  0  0  0  0  0  0
   20.0216   47.4839   -9.4804 H   0  0  0  0  0  0  0  0  0  0  0  0
   19.6116   43.4319  -10.8747 H   0  0  0  0  0  0  0  0  0  0  0  0
   16.1494   45.9880  -10.6104 H   0  0  0  0  0  0  0  0  0  0  0  0
   17.9202   42.3718   -9.7915 H   0  0  0  0  0  0  0  0  0  0  0  0
   17.4899   39.9218   -8.9391 H   0  0  0  0  0  0  0  0  0  0  0  0
   17.4142   38.9025  -10.3469 H   0  0  0  0  0  0  0  0  0  0  0  0
   19.3201   41.6334   -8.6716 H   0  0  0  0  0  0  0  0  0  0  0  0
   22.8979   40.8982  -10.9808 H   0  0  0  0  0  0  0  0  0  0  0  0
   21.6901   39.2388  -12.3201 H   0  0  0  0  0  0  0  0  0  0  0  0
   19.2881   38.7808  -11.9057 H   0  0  0  0  0  0  0  0  0  0  0  0
   23.7274   41.8221   -8.8908 H   0  0  0  0  0  0  0  0  0  0  0  0
   23.3470   42.9359  -10.2008 H   0  0  0  0  0  0  0  0  0  0  0  0
   23.0422   43.8717   -7.3184 H   0  0  0  0  0  0  0  0  0  0  0  0
   24.6268   43.7251   -8.0127 H   0  0  0  0  0  0  0  0  0  0  0  0
   24.0773   45.9675   -8.3317 H   0  0  0  0  0  0  0  0  0  0  0  0
   23.9730   45.2522   -9.9107 H   0  0  0  0  0  0  0  0  0  0  0  0
   21.5775   45.8718   -8.0945 H   0  0  0  0  0  0  0  0  0  0  0  0
   22.1615   46.8944   -9.4076 H   0  0  0  0  0  0  0  0  0  0  0  0
   13.5117   40.6736  -11.2197 H   0  0  0  0  0  0  0  0  0  0  0  0
   14.9357   42.8622   -9.6773 H   0  0  0  0  0  0  0  0  0  0  0  0
   13.6590   41.7873   -9.1750 H   0  0  0  0  0  0  0  0  0  0  0  0
   15.0432   42.3847   -7.3355 H   0  0  0  0  0  0  0  0  0  0  0  0
   15.3670   40.4021   -6.3382 H   0  0  0  0  0  0  0  0  0  0  0  0
   14.1980   39.9934   -7.5636 H   0  0  0  0  0  0  0  0  0  0  0  0
   17.9156   40.2602   -7.0200 H   0  0  0  0  0  0  0  0  0  0  0  0
   18.7449   36.7315   -9.3651 H   0  0  0  0  0  0  0  0  0  0  0  0
   16.3385   36.5401   -9.9207 H   0  0  0  0  0  0  0  0  0  0  0  0
   14.7127   38.1929   -9.0298 H   0  0  0  0  0  0  0  0  0  0  0  0
   20.2413   37.7550   -7.1864 H   0  0  0  0  0  0  0  0  0  0  0  0
   19.6698   39.8750   -6.0466 H   0  0  0  0  0  0  0  0  0  0  0  0
   20.0501   40.7871   -7.5053 H   0  0  0  0  0  0  0  0  0  0  0  0
   21.3191   39.9108   -6.6576 H   0  0  0  0  0  0  0  0  0  0  0  0
   20.6985   37.6447   -9.6146 H   0  0  0  0  0  0  0  0  0  0  0  0
   21.9295   38.5847   -8.7816 H   0  0  0  0  0  0  0  0  0  0  0  0
   20.6865   39.4038   -9.7195 H   0  0  0  0  0  0  0  0  0  0  0  0
  1  2  1  0  0  0  0
  1 43  1  0  0  0  0
  1 44  1  0  0  0  0
  1 45  1  0  0  0  0
  2  3  1  0  0  0  0
  3  4  1  0  0  0  0
  3 46  1  0  0  0  0
  3 47  1  0  0  0  0
  4  9  1  0  0  0  0
  4  5  2  0  0  0  0
  5  6  1  0  0  0  0
  5 48  1  0  0  0  0
  6 26  1  0  0  0  0
  6  7  2  0  0  0  0
  7  8  1  0  0  0  0
  7 49  1  0  0  0  0
  8  9  2  0  0  0  0
  8 10  1  0  0  0  0
  9 50  1  0  0  0  0
 10 11  2  0  0  0  0
 10 12  1  0  0  0  0
 12 13  1  0  0  0  0
 12 51  1  0  0  0  0
 13 41  1  6  0  0  0
 13 14  1  0  0  0  0
 13 27  1  0  0  0  0
 14 15  1  0  0  0  0
 14 52  1  0  0  0  0
 14 53  1  0  0  0  0
 15 20  1  0  0  0  0
 15 16  2  0  0  0  0
 16 17  1  0  0  0  0
 16 54  1  0  0  0  0
 17 18  2  0  0  0  0
 17 21  1  0  0  0  0
 18 19  1  0  0  0  0
 18 55  1  0  0  0  0
 19 20  2  0  0  0  0
 19 56  1  0  0  0  0
 20 57  1  0  0  0  0
 21 22  1  0  0  0  0
 22 23  1  0  0  0  0
 22 58  1  0  0  0  0
 22 59  1  0  0  0  0
 23 24  1  0  0  0  0
 23 60  1  0  0  0  0
 23 61  1  0  0  0  0
 24 25  1  0  0  0  0
 24 62  1  0  0  0  0
 24 63  1  0  0  0  0
 25 26  1  0  0  0  0
 25 64  1  0  0  0  0
 25 65  1  0  0  0  0
 27 42  1  1  0  0  0
 27 28  1  0  0  0  0
 27 29  1  0  0  0  0
 28 66  1  0  0  0  0
 29 30  1  0  0  0  0
 29 67  1  0  0  0  0
 29 68  1  0  0  0  0
 30 31  1  0  0  0  0
 30 69  1  0  0  0  0
 31 32  1  0  0  0  0
 31 70  1  0  0  0  0
 31 71  1  0  0  0  0
 32 37  1  0  0  0  0
 32 33  2  0  0  0  0
 33 34  1  0  0  0  0
 33 72  1  0  0  0  0
 34 35  2  0  0  0  0
 34 38  1  0  0  0  0
 35 36  1  0  0  0  0
 35 73  1  0  0  0  0
 36 37  2  0  0  0  0
 36 74  1  0  0  0  0
 37 75  1  0  0  0  0
 38 39  1  0  0  0  0
 38 40  1  0  0  0  0
 38 76  1  0  0  0  0
 39 77  1  0  0  0  0
 39 78  1  0  0  0  0
 39 79  1  0  0  0  0
 40 80  1  0  0  0  0
 40 81  1  0  0  0  0
 40 82  1  0  0  0  0
M  END
>  <s_m_source_file>
BACE_15.smi

>  <i_m_source_file_index>
1

>  <i_lp_mmshare_version>
42013

>  <i_f3d_flags>
0

>  <s_epik_input>
W2NIXTFbY0hdW2NIXWMoW0NIXShbQ0gzXSlbQ0gzXSlbY0hdYzFbQ0gyXVtOSF1bQ0gyXVtDQEBIXShbT0hdKVtDQEBIXShbTkhdQyg9TyljKFtjSF0yKVtjSF1jKFtjSF1jMjMpW0NIMl1PW0NIM10pW0NIMl1jNFtjSF1jKFtjSF1bY0hdW2NIXTQpT1tDSDJdW0NIMl1bQ0gyXVtDSDJdTzM=

>  <s_epik_cmdline>
J2VwaWtfcHl0aG9uJywgJy1waCcsICc3LjAnLCAnLXRuJywgJzgnLCAnLW1hJywgJzIwMCcsICctaW1hZScsICc8aW5maWxlLm1hZT4nLCAnLW9tYWUnLCAnPG91dGZpbGUubWFlPic=

>  <r_lp_tautomer_probability>
1

>  <r_epik_Ionization_Penalty>
2.0439

>  <r_epik_Ionization_Penalty_Charging>
0.0000

>  <r_epik_Ionization_Penalty_Neutral>
2.0439

>  <r_epik_State_Penalty>
2.1759

>  <r_epik_Charging_Adjusted_Penalty>
2.17586

>  <i_epik_Tot_Q>
0

>  <i_epik_Tot_abs_Q>
0

>  <s_lp_Force_Field>
OPLS_2005

>  <r_lp_Energy>
42.2366

>  <b_lp_Chiralities_Consistent>
1

>  <s_lp_Variant>
BACE_15.smi:1-2

>  <chiral flag>
1

>  <version>
0

>  <s_i_glide_gridfile>
second_dock_grid_2

>  <i_i_glide_lignum>
27

>  <i_i_glide_rotatable_bonds>
9

>  <r_i_docking_score>
-3.1099

>  <r_i_glide_ligand_efficiency>
-0.0777475

>  <r_i_glide_ligand_efficiency_sa>
-0.265893

>  <r_i_glide_ligand_efficiency_ln>
-0.66325

>  <r_glide_XP_GScore>
-5.2858

>  <r_i_glide_gscore>
-5.2858

>  <r_i_glide_evdw>
-37.5843

>  <r_i_glide_ecoul>
-16.029

>  <r_i_glide_energy>
-53.6134

>  <r_i_glide_einternal>
3.23411

>  <r_i_glide_emodel>
-80.7552

>  <r_glide_XP_HBond>
-1.37086

>  <i_i_glide_confnum>
1

>  <i_i_glide_posenum>
6

>  <r_i_glide_eff_state_penalty>
2.1759

>  <i_glide_XP_PoseRank>
1

$$$$
