BACE_31.smi:1
 OpenBabel09291822493D
Structure written by MMmdl.
 91 92  0  0  1  0  0  0  0  0999 V2000
   23.0181   39.9495   -7.9314 C   0  0  0  0  0  0  0  0  0  0  0  0
   21.5061   40.0477   -7.7501 C   0  0  2  0  0  0  0  0  0  0  0  0
   21.0894   39.2237   -6.5163 C   0  0  0  0  0  0  0  0  0  0  0  0
   21.7336   39.7325   -5.2108 C   0  0  0  0  0  0  0  0  0  0  0  0
   21.0710   41.0117   -4.6555 C   0  0  0  0  0  0  0  0  0  0  0  0
   21.8562   41.6953   -3.5158 C   0  0  0  0  0  0  0  0  0  0  0  0
   23.2375   42.2743   -3.9082 C   0  0  0  0  0  0  0  0  0  0  0  0
   23.2508   43.2071   -5.1395 C   0  0  0  0  0  0  0  0  0  0  0  0
   22.3970   44.4845   -4.9801 C   0  0  0  0  0  0  0  0  0  0  0  0
   22.3496   45.3727   -6.2495 C   0  0  0  0  0  0  0  0  0  0  0  0
   21.5823   44.7590   -7.4283 C   0  0  0  0  0  0  0  0  0  0  0  0
   20.4776   44.2744   -7.2460 O   0  0  0  0  0  0  0  0  0  0  0  0
   22.1867   44.8017   -8.6256 N   0  0  0  0  0  0  0  0  0  0  0  0
   23.5030   45.4035   -8.6954 C   0  0  0  0  0  0  0  0  0  0  0  0
   21.6173   44.1425   -9.8218 C   0  0  1  0  0  0  0  0  0  0  0  0
   22.1156   44.8684  -11.0682 C   0  0  0  0  0  0  0  0  0  0  0  0
   22.0819   42.6724   -9.9256 C   0  0  0  0  0  0  0  0  0  0  0  0
   23.2493   42.3643   -9.7501 O   0  0  0  0  0  0  0  0  0  0  0  0
   21.1381   41.7755  -10.2446 N   0  0  0  0  0  0  0  0  0  0  0  0
   21.3154   40.3221  -10.3262 C   0  0  1  0  0  0  0  0  0  0  0  0
   20.8031   39.6127   -9.0534 C   0  0  0  0  0  0  0  0  0  0  0  0
   20.5297   39.8072  -11.5287 C   0  0  2  0  0  0  0  0  0  0  0  0
   21.2610   40.0346  -12.7202 O   0  0  0  0  0  0  0  0  0  0  0  0
   19.1499   40.4844  -11.6857 C   0  0  0  0  0  0  0  0  0  0  0  0
   18.5123   40.6943  -10.3763 N   0  0  0  0  0  0  0  0  0  0  0  0
   17.2423   41.4597  -10.3033 C   0  0  0  0  0  0  0  0  0  0  0  0
   16.0800   40.6281  -10.8968 C   0  0  0  0  0  0  0  0  0  0  0  0
   16.9440   41.8073   -8.8235 C   0  0  0  0  0  0  0  0  0  0  0  0
   17.3863   42.7365  -11.1131 C   0  0  0  0  0  0  0  0  0  0  0  0
   17.8050   42.7656  -12.3893 N   0  0  0  0  0  0  0  0  0  0  0  0
   17.8268   44.0454  -12.9262 N   0  0  0  0  0  0  0  0  0  0  0  0
   17.3966   44.9700  -12.0613 C   0  0  0  0  0  0  0  0  0  0  0  0
   17.3318   46.4333  -12.3950 C   0  0  0  0  0  0  0  0  0  0  0  0
   17.5723   47.4434  -11.2307 C   0  0  0  0  0  0  0  0  0  0  0  0
   19.0721   47.4152  -10.8638 C   0  0  0  0  0  0  0  0  0  0  0  0
   17.2128   48.8757  -11.6840 C   0  0  0  0  0  0  0  0  0  0  0  0
   16.7561   47.0976   -9.9641 C   0  0  0  0  0  0  0  0  0  0  0  0
   16.9347   44.3282  -10.4886 S   0  0  0  0  0  0  0  0  0  0  0  0
   21.2962   41.1024   -7.5717 H   0  0  0  0  0  0  0  0  0  0  0  0
   20.5300   44.2151   -9.8501 H   0  0  0  0  0  0  0  0  0  0  0  0
   22.3531   40.0458  -10.5134 H   0  0  0  0  0  0  0  0  0  0  0  0
   20.3798   38.7318  -11.4211 H   0  0  0  0  0  0  0  0  0  0  0  0
   23.5523   40.2383   -7.0266 H   0  0  0  0  0  0  0  0  0  0  0  0
   23.3762   40.6063   -8.7232 H   0  0  0  0  0  0  0  0  0  0  0  0
   23.3263   38.9336   -8.1814 H   0  0  0  0  0  0  0  0  0  0  0  0
   20.0043   39.2132   -6.4139 H   0  0  0  0  0  0  0  0  0  0  0  0
   21.3830   38.1860   -6.6748 H   0  0  0  0  0  0  0  0  0  0  0  0
   22.7979   39.8925   -5.3828 H   0  0  0  0  0  0  0  0  0  0  0  0
   21.6746   38.9532   -4.4510 H   0  0  0  0  0  0  0  0  0  0  0  0
   20.9002   41.7358   -5.4521 H   0  0  0  0  0  0  0  0  0  0  0  0
   20.0749   40.7567   -4.2937 H   0  0  0  0  0  0  0  0  0  0  0  0
   21.9855   40.9907   -2.6943 H   0  0  0  0  0  0  0  0  0  0  0  0
   21.2423   42.4972   -3.1058 H   0  0  0  0  0  0  0  0  0  0  0  0
   23.6522   42.8063   -3.0520 H   0  0  0  0  0  0  0  0  0  0  0  0
   23.9290   41.4515   -4.0901 H   0  0  0  0  0  0  0  0  0  0  0  0
   22.9319   42.6460   -6.0179 H   0  0  0  0  0  0  0  0  0  0  0  0
   24.2810   43.4967   -5.3468 H   0  0  0  0  0  0  0  0  0  0  0  0
   21.3805   44.2284   -4.6812 H   0  0  0  0  0  0  0  0  0  0  0  0
   22.7992   45.0713   -4.1543 H   0  0  0  0  0  0  0  0  0  0  0  0
   23.3640   45.6379   -6.5474 H   0  0  0  0  0  0  0  0  0  0  0  0
   21.8576   46.3168   -6.0156 H   0  0  0  0  0  0  0  0  0  0  0  0
   23.8734   45.5233   -9.7117 H   0  0  0  0  0  0  0  0  0  0  0  0
   24.2381   44.8072   -8.1538 H   0  0  0  0  0  0  0  0  0  0  0  0
   23.4949   46.4129   -8.2820 H   0  0  0  0  0  0  0  0  0  0  0  0
   21.6969   44.4311  -11.9756 H   0  0  0  0  0  0  0  0  0  0  0  0
   23.2019   44.8313  -11.1561 H   0  0  0  0  0  0  0  0  0  0  0  0
   21.8241   45.9193  -11.0563 H   0  0  0  0  0  0  0  0  0  0  0  0
   20.2035   42.1288  -10.3921 H   0  0  0  0  0  0  0  0  0  0  0  0
   19.7282   39.7668   -8.9595 H   0  0  0  0  0  0  0  0  0  0  0  0
   20.9329   38.5389   -9.1883 H   0  0  0  0  0  0  0  0  0  0  0  0
   22.1830   39.9749  -12.5220 H   0  0  0  0  0  0  0  0  0  0  0  0
   19.2917   41.4480  -12.1737 H   0  0  0  0  0  0  0  0  0  0  0  0
   18.5229   39.8889  -12.3483 H   0  0  0  0  0  0  0  0  0  0  0  0
   18.3703   39.7877   -9.9425 H   0  0  0  0  0  0  0  0  0  0  0  0
   15.8722   39.7276  -10.3186 H   0  0  0  0  0  0  0  0  0  0  0  0
   16.2906   40.3223  -11.9227 H   0  0  0  0  0  0  0  0  0  0  0  0
   15.1492   41.1958  -10.9148 H   0  0  0  0  0  0  0  0  0  0  0  0
   16.8073   40.9205   -8.2054 H   0  0  0  0  0  0  0  0  0  0  0  0
   16.0262   42.3849   -8.7138 H   0  0  0  0  0  0  0  0  0  0  0  0
   17.7522   42.3922   -8.3817 H   0  0  0  0  0  0  0  0  0  0  0  0
   18.0819   46.5997  -13.1695 H   0  0  0  0  0  0  0  0  0  0  0  0
   16.3764   46.6354  -12.8816 H   0  0  0  0  0  0  0  0  0  0  0  0
   19.3804   46.4337  -10.5011 H   0  0  0  0  0  0  0  0  0  0  0  0
   19.3089   48.1359  -10.0799 H   0  0  0  0  0  0  0  0  0  0  0  0
   19.6989   47.6556  -11.7236 H   0  0  0  0  0  0  0  0  0  0  0  0
   16.1552   48.9709  -11.9303 H   0  0  0  0  0  0  0  0  0  0  0  0
   17.7814   49.1744  -12.5656 H   0  0  0  0  0  0  0  0  0  0  0  0
   17.4242   49.6067  -10.9024 H   0  0  0  0  0  0  0  0  0  0  0  0
   15.6816   47.1827  -10.1285 H   0  0  0  0  0  0  0  0  0  0  0  0
   16.9997   47.7693   -9.1399 H   0  0  0  0  0  0  0  0  0  0  0  0
   16.9610   46.0828   -9.6209 H   0  0  0  0  0  0  0  0  0  0  0  0
  1  2  1  0  0  0  0
  1 43  1  0  0  0  0
  1 44  1  0  0  0  0
  1 45  1  0  0  0  0
  2 39  1  1  0  0  0
  2 21  1  0  0  0  0
  2  3  1  0  0  0  0
  3  4  1  0  0  0  0
  3 46  1  0  0  0  0
  3 47  1  0  0  0  0
  4  5  1  0  0  0  0
  4 48  1  0  0  0  0
  4 49  1  0  0  0  0
  5  6  1  0  0  0  0
  5 50  1  0  0  0  0
  5 51  1  0  0  0  0
  6  7  1  0  0  0  0
  6 52  1  0  0  0  0
  6 53  1  0  0  0  0
  7  8  1  0  0  0  0
  7 54  1  0  0  0  0
  7 55  1  0  0  0  0
  8  9  1  0  0  0  0
  8 56  1  0  0  0  0
  8 57  1  0  0  0  0
  9 10  1  0  0  0  0
  9 58  1  0  0  0  0
  9 59  1  0  0  0  0
 10 11  1  0  0  0  0
 10 60  1  0  0  0  0
 10 61  1  0  0  0  0
 11 12  2  0  0  0  0
 11 13  1  0  0  0  0
 13 14  1  0  0  0  0
 13 15  1  0  0  0  0
 14 62  1  0  0  0  0
 14 63  1  0  0  0  0
 14 64  1  0  0  0  0
 15 40  1  1  0  0  0
 15 16  1  0  0  0  0
 15 17  1  0  0  0  0
 16 65  1  0  0  0  0
 16 66  1  0  0  0  0
 16 67  1  0  0  0  0
 17 18  2  0  0  0  0
 17 19  1  0  0  0  0
 19 20  1  0  0  0  0
 19 68  1  0  0  0  0
 20 41  1  6  0  0  0
 20 21  1  0  0  0  0
 20 22  1  0  0  0  0
 21 69  1  0  0  0  0
 21 70  1  0  0  0  0
 22 42  1  1  0  0  0
 22 23  1  0  0  0  0
 22 24  1  0  0  0  0
 23 71  1  0  0  0  0
 24 25  1  0  0  0  0
 24 72  1  0  0  0  0
 24 73  1  0  0  0  0
 25 26  1  0  0  0  0
 25 74  1  0  0  0  0
 26 27  1  0  0  0  0
 26 28  1  0  0  0  0
 26 29  1  0  0  0  0
 27 75  1  0  0  0  0
 27 76  1  0  0  0  0
 27 77  1  0  0  0  0
 28 78  1  0  0  0  0
 28 79  1  0  0  0  0
 28 80  1  0  0  0  0
 29 38  1  0  0  0  0
 29 30  2  0  0  0  0
 30 31  1  0  0  0  0
 31 32  2  0  0  0  0
 32 33  1  0  0  0  0
 32 38  1  0  0  0  0
 33 34  1  0  0  0  0
 33 81  1  0  0  0  0
 33 82  1  0  0  0  0
 34 35  1  0  0  0  0
 34 36  1  0  0  0  0
 34 37  1  0  0  0  0
 35 83  1  0  0  0  0
 35 84  1  0  0  0  0
 35 85  1  0  0  0  0
 36 86  1  0  0  0  0
 36 87  1  0  0  0  0
 36 88  1  0  0  0  0
 37 89  1  0  0  0  0
 37 90  1  0  0  0  0
 37 91  1  0  0  0  0
M  END
>  <s_m_source_file>
BACE_31.smi

>  <i_m_source_file_index>
1

>  <i_lp_mmshare_version>
42013

>  <i_f3d_flags>
0

>  <s_epik_input>
W0NIM11bQ0BASF0xW0NIMl1bQ0gyXVtDSDJdW0NIMl1bQ0gyXVtDSDJdW0NIMl1bQ0gyXUMoPU8pTihbQ0gzXSlbQ0BASF0oW0NIM10pQyg9TylbTkhdW0NAQEhdKFtDSDJdMSlbQ0BIXShbT0hdKVtDSDJdW05IXUMoW0NIM10pKFtDSDNdKWMybm5jKHMyKVtDSDJdQyhbQ0gzXSkoW0NIM10pW0NIM10=

>  <s_epik_cmdline>
J2VwaWtfcHl0aG9uJywgJy1waCcsICc3LjAnLCAnLXRuJywgJzgnLCAnLW1hJywgJzIwMCcsICctaW1hZScsICc8aW5maWxlLm1hZT4nLCAnLW9tYWUnLCAnPG91dGZpbGUubWFlPic=

>  <r_lp_tautomer_probability>
1

>  <r_epik_Ionization_Penalty>
0.9438

>  <r_epik_Ionization_Penalty_Charging>
0.0000

>  <r_epik_Ionization_Penalty_Neutral>
0.9438

>  <r_epik_State_Penalty>
0.9874

>  <r_epik_Charging_Adjusted_Penalty>
0.987402

>  <i_epik_Tot_Q>
0

>  <i_epik_Tot_abs_Q>
0

>  <s_lp_Force_Field>
OPLS_2005

>  <r_lp_Energy>
36.7378

>  <b_lp_Chiralities_Consistent>
1

>  <s_lp_Variant>
BACE_31.smi:1-2

>  <chiral flag>
1

>  <version>
0

>  <s_i_glide_gridfile>
second_dock_grid_2

>  <i_i_glide_lignum>
54

>  <i_i_glide_rotatable_bonds>
8

>  <r_i_docking_score>
-2.91865

>  <r_i_glide_ligand_efficiency>
-0.0768066

>  <r_i_glide_ligand_efficiency_sa>
-0.258222

>  <r_i_glide_ligand_efficiency_ln>
-0.629347

>  <r_glide_XP_GScore>
-3.90605

>  <r_i_glide_gscore>
-3.90605

>  <r_i_glide_evdw>
-36.4019

>  <r_i_glide_ecoul>
-5.74688

>  <r_i_glide_energy>
-42.1488

>  <r_i_glide_einternal>
11.8419

>  <r_i_glide_emodel>
-51.8153

>  <r_glide_XP_HBond>
-1.33

>  <i_i_glide_confnum>
1

>  <i_i_glide_posenum>
3

>  <r_i_glide_eff_state_penalty>
0.9874

>  <i_glide_XP_PoseRank>
1

$$$$
