BACE_24.smi:1
 OpenBabel09291822493D
Structure written by MMmdl.
 85 86  0  0  1  0  0  0  0  0999 V2000
   20.2505   42.4080   -1.3822 C   0  0  0  0  0  0  0  0  0  0  0  0
   20.5388   41.3492   -2.4625 C   0  0  0  0  0  0  0  0  0  0  0  0
   21.6996   41.6582   -3.2350 O   0  0  0  0  0  0  0  0  0  0  0  0
   21.6291   42.6605   -4.1817 C   0  0  0  0  0  0  0  0  0  0  0  0
   22.8111   43.0031   -4.8701 C   0  0  0  0  0  0  0  0  0  0  0  0
   22.8340   44.0413   -5.8309 C   0  0  0  0  0  0  0  0  0  0  0  0
   24.0951   44.2255   -6.6743 C   0  0  0  0  0  0  0  0  0  0  0  0
   24.2856   43.1207   -7.6284 N   0  0  0  0  0  0  0  0  0  0  0  0
   23.1314   42.9000   -8.5049 C   0  0  0  0  0  0  0  0  0  0  0  0
   23.1782   41.6248   -9.3696 C   0  0  1  0  0  0  0  0  0  0  0  0
   23.6604   40.5498   -8.5801 O   0  0  0  0  0  0  0  0  0  0  0  0
   21.7391   41.2661   -9.8315 C   0  0  2  0  0  0  0  0  0  0  0  0
   21.6629   40.0256  -10.7515 C   0  0  0  0  0  0  0  0  0  0  0  0
   20.2433   39.4758  -11.0436 C   0  0  2  0  0  0  0  0  0  0  0  0
   19.4393   40.3309  -12.0394 C   0  0  0  0  0  0  0  0  0  0  0  0
   19.4421   39.1522   -9.7595 C   0  0  0  0  0  0  0  0  0  0  0  0
   18.2037   38.2707  -10.0018 C   0  0  0  0  0  0  0  0  0  0  0  0
   17.3923   37.9384   -8.7349 C   0  0  0  0  0  0  0  0  0  0  0  0
   16.6689   39.1271   -8.0704 C   0  0  0  0  0  0  0  0  0  0  0  0
   15.6465   39.8503   -8.9733 C   0  0  0  0  0  0  0  0  0  0  0  0
   16.1104   41.2517   -9.4070 C   0  0  0  0  0  0  0  0  0  0  0  0
   15.1594   41.9193  -10.4198 C   0  0  0  0  0  0  0  0  0  0  0  0
   15.4487   43.4146  -10.6812 C   0  0  0  0  0  0  0  0  0  0  0  0
   16.8594   43.6577  -11.2559 C   0  0  0  0  0  0  0  0  0  0  0  0
   17.0390   43.3495  -12.4371 O   0  0  0  0  0  0  0  0  0  0  0  0
   17.8468   44.1493  -10.4592 N   0  0  0  0  0  0  0  0  0  0  0  0
   17.5351   44.7784   -9.1654 C   0  0  0  0  0  0  0  0  0  0  0  0
   19.2770   44.0530  -10.8551 C   0  0  1  0  0  0  0  0  0  0  0  0
   19.9048   45.4501  -11.0300 C   0  0  0  0  0  0  0  0  0  0  0  0
   20.0972   43.1480   -9.9088 C   0  0  0  0  0  0  0  0  0  0  0  0
   19.8490   43.1006   -8.7044 O   0  0  0  0  0  0  0  0  0  0  0  0
   21.0606   42.3987  -10.4753 N   0  0  0  0  0  0  0  0  0  0  0  0
   21.6543   44.7992   -6.0699 C   0  0  0  0  0  0  0  0  0  0  0  0
   20.4600   44.4146   -5.4254 C   0  0  0  0  0  0  0  0  0  0  0  0
   20.4413   43.3501   -4.5088 C   0  0  0  0  0  0  0  0  0  0  0  0
   21.6332   46.0145   -7.0020 C   0  0  0  0  0  0  0  0  0  0  0  0
   20.4470   46.6259   -6.9878 F   0  0  0  0  0  0  0  0  0  0  0  0
   22.5403   46.9053   -6.5999 F   0  0  0  0  0  0  0  0  0  0  0  0
   21.8921   45.6684   -8.2608 F   0  0  0  0  0  0  0  0  0  0  0  0
   23.8442   41.7694  -10.2212 H   0  0  0  0  0  0  0  0  0  0  0  0
   21.1950   41.0096   -8.9205 H   0  0  0  0  0  0  0  0  0  0  0  0
   20.4150   38.5375  -11.5621 H   0  0  0  0  0  0  0  0  0  0  0  0
   19.3532   43.5824  -11.8367 H   0  0  0  0  0  0  0  0  0  0  0  0
   19.4097   42.1033   -0.7572 H   0  0  0  0  0  0  0  0  0  0  0  0
   20.0016   43.3780   -1.8078 H   0  0  0  0  0  0  0  0  0  0  0  0
   21.1146   42.5502   -0.7357 H   0  0  0  0  0  0  0  0  0  0  0  0
   19.6679   41.1702   -3.0938 H   0  0  0  0  0  0  0  0  0  0  0  0
   20.7267   40.3983   -1.9677 H   0  0  0  0  0  0  0  0  0  0  0  0
   23.7123   42.4403   -4.6773 H   0  0  0  0  0  0  0  0  0  0  0  0
   24.9494   44.2758   -5.9984 H   0  0  0  0  0  0  0  0  0  0  0  0
   24.0811   45.1748   -7.2040 H   0  0  0  0  0  0  0  0  0  0  0  0
   25.1280   43.2591   -8.1796 H   0  0  0  0  0  0  0  0  0  0  0  0
   22.9953   43.7629   -9.1582 H   0  0  0  0  0  0  0  0  0  0  0  0
   22.2327   42.8239   -7.8968 H   0  0  0  0  0  0  0  0  0  0  0  0
   23.9324   39.8411   -9.1495 H   0  0  0  0  0  0  0  0  0  0  0  0
   22.1748   40.2352  -11.6897 H   0  0  0  0  0  0  0  0  0  0  0  0
   22.2307   39.2152  -10.2936 H   0  0  0  0  0  0  0  0  0  0  0  0
   18.6075   39.7619  -12.4383 H   0  0  0  0  0  0  0  0  0  0  0  0
   20.0495   40.6510  -12.8843 H   0  0  0  0  0  0  0  0  0  0  0  0
   18.9967   41.2088  -11.5771 H   0  0  0  0  0  0  0  0  0  0  0  0
   20.0948   38.6425   -9.0488 H   0  0  0  0  0  0  0  0  0  0  0  0
   19.1367   40.0792   -9.2765 H   0  0  0  0  0  0  0  0  0  0  0  0
   18.5361   37.3310  -10.4429 H   0  0  0  0  0  0  0  0  0  0  0  0
   17.5458   38.7321  -10.7361 H   0  0  0  0  0  0  0  0  0  0  0  0
   16.6473   37.1838   -8.9893 H   0  0  0  0  0  0  0  0  0  0  0  0
   18.0441   37.4637   -8.0004 H   0  0  0  0  0  0  0  0  0  0  0  0
   17.3917   39.8341   -7.6633 H   0  0  0  0  0  0  0  0  0  0  0  0
   16.1385   38.7369   -7.1995 H   0  0  0  0  0  0  0  0  0  0  0  0
   15.4077   39.2399   -9.8454 H   0  0  0  0  0  0  0  0  0  0  0  0
   14.7074   39.9542   -8.4259 H   0  0  0  0  0  0  0  0  0  0  0  0
   17.1107   41.1852   -9.8354 H   0  0  0  0  0  0  0  0  0  0  0  0
   16.1967   41.8757   -8.5176 H   0  0  0  0  0  0  0  0  0  0  0  0
   15.1944   41.3653  -11.3576 H   0  0  0  0  0  0  0  0  0  0  0  0
   14.1353   41.8261  -10.0577 H   0  0  0  0  0  0  0  0  0  0  0  0
   15.2420   43.9834   -9.7779 H   0  0  0  0  0  0  0  0  0  0  0  0
   14.7302   43.7832  -11.4138 H   0  0  0  0  0  0  0  0  0  0  0  0
   18.4046   45.2350   -8.6944 H   0  0  0  0  0  0  0  0  0  0  0  0
   17.1481   44.0450   -8.4561 H   0  0  0  0  0  0  0  0  0  0  0  0
   16.7972   45.5713   -9.2865 H   0  0  0  0  0  0  0  0  0  0  0  0
   20.9226   45.3713  -11.4150 H   0  0  0  0  0  0  0  0  0  0  0  0
   19.9564   46.0059  -10.0937 H   0  0  0  0  0  0  0  0  0  0  0  0
   19.3328   46.0468  -11.7403 H   0  0  0  0  0  0  0  0  0  0  0  0
   21.2263   42.5131  -11.4638 H   0  0  0  0  0  0  0  0  0  0  0  0
   19.5356   44.9351   -5.6279 H   0  0  0  0  0  0  0  0  0  0  0  0
   19.4974   43.1063   -4.0480 H   0  0  0  0  0  0  0  0  0  0  0  0
  1  2  1  0  0  0  0
  1 44  1  0  0  0  0
  1 45  1  0  0  0  0
  1 46  1  0  0  0  0
  2  3  1  0  0  0  0
  2 47  1  0  0  0  0
  2 48  1  0  0  0  0
  3  4  1  0  0  0  0
  4 35  1  0  0  0  0
  4  5  2  0  0  0  0
  5  6  1  0  0  0  0
  5 49  1  0  0  0  0
  6  7  1  0  0  0  0
  6 33  2  0  0  0  0
  7  8  1  0  0  0  0
  7 50  1  0  0  0  0
  7 51  1  0  0  0  0
  8  9  1  0  0  0  0
  8 52  1  0  0  0  0
  9 10  1  0  0  0  0
  9 53  1  0  0  0  0
  9 54  1  0  0  0  0
 10 40  1  6  0  0  0
 10 11  1  0  0  0  0
 10 12  1  0  0  0  0
 11 55  1  0  0  0  0
 12 41  1  1  0  0  0
 12 32  1  0  0  0  0
 12 13  1  0  0  0  0
 13 14  1  0  0  0  0
 13 56  1  0  0  0  0
 13 57  1  0  0  0  0
 14 42  1  6  0  0  0
 14 15  1  0  0  0  0
 14 16  1  0  0  0  0
 15 58  1  0  0  0  0
 15 59  1  0  0  0  0
 15 60  1  0  0  0  0
 16 17  1  0  0  0  0
 16 61  1  0  0  0  0
 16 62  1  0  0  0  0
 17 18  1  0  0  0  0
 17 63  1  0  0  0  0
 17 64  1  0  0  0  0
 18 19  1  0  0  0  0
 18 65  1  0  0  0  0
 18 66  1  0  0  0  0
 19 20  1  0  0  0  0
 19 67  1  0  0  0  0
 19 68  1  0  0  0  0
 20 21  1  0  0  0  0
 20 69  1  0  0  0  0
 20 70  1  0  0  0  0
 21 22  1  0  0  0  0
 21 71  1  0  0  0  0
 21 72  1  0  0  0  0
 22 23  1  0  0  0  0
 22 73  1  0  0  0  0
 22 74  1  0  0  0  0
 23 24  1  0  0  0  0
 23 75  1  0  0  0  0
 23 76  1  0  0  0  0
 24 25  2  0  0  0  0
 24 26  1  0  0  0  0
 26 27  1  0  0  0  0
 26 28  1  0  0  0  0
 27 77  1  0  0  0  0
 27 78  1  0  0  0  0
 27 79  1  0  0  0  0
 28 43  1  6  0  0  0
 28 29  1  0  0  0  0
 28 30  1  0  0  0  0
 29 80  1  0  0  0  0
 29 81  1  0  0  0  0
 29 82  1  0  0  0  0
 30 31  2  0  0  0  0
 30 32  1  0  0  0  0
 32 83  1  0  0  0  0
 33 34  1  0  0  0  0
 33 36  1  0  0  0  0
 34 35  2  0  0  0  0
 34 84  1  0  0  0  0
 35 85  1  0  0  0  0
 36 37  1  0  0  0  0
 36 38  1  0  0  0  0
 36 39  1  0  0  0  0
M  END
>  <s_m_source_file>
BACE_24.smi

>  <i_m_source_file_index>
1

>  <i_lp_mmshare_version>
42013

>  <i_f3d_flags>
0

>  <s_epik_input>
W0NIM11bQ0gyXU9jMVtjSF1jKGMoQyhGKShGKUYpW2NIXVtjSF0xKVtDSDJdW05IXVtDSDJdW0NAQEhdKFtPSF0pW0NAQEhdMltDSDJdW0NASF0oW0NIM10pW0NIMl1bQ0gyXVtDSDJdW0NIMl1bQ0gyXVtDSDJdW0NIMl1bQ0gyXUMoPU8pTihbQ0gzXSlbQ0BASF0oW0NIM10pQyg9TylbTkhdMg==

>  <s_epik_cmdline>
J2VwaWtfcHl0aG9uJywgJy1waCcsICc3LjAnLCAnLXRuJywgJzgnLCAnLW1hJywgJzIwMCcsICctaW1hZScsICc8aW5maWxlLm1hZT4nLCAnLW9tYWUnLCAnPG91dGZpbGUubWFlPic=

>  <r_lp_tautomer_probability>
1

>  <r_epik_Ionization_Penalty>
1.7755

>  <r_epik_Ionization_Penalty_Charging>
0.0000

>  <r_epik_Ionization_Penalty_Neutral>
1.7755

>  <r_epik_State_Penalty>
1.8873

>  <r_epik_Charging_Adjusted_Penalty>
1.88729

>  <i_epik_Tot_Q>
0

>  <i_epik_Tot_abs_Q>
0

>  <s_lp_Force_Field>
OPLS_2005

>  <r_lp_Energy>
51.3576

>  <b_lp_Chiralities_Consistent>
1

>  <s_lp_Variant>
BACE_24.smi:1-2

>  <chiral flag>
1

>  <version>
0

>  <s_i_glide_gridfile>
second_dock_grid_2

>  <i_i_glide_lignum>
40

>  <i_i_glide_rotatable_bonds>
9

>  <r_i_docking_score>
-3.12172

>  <r_i_glide_ligand_efficiency>
-0.0800441

>  <r_i_glide_ligand_efficiency_sa>
-0.271446

>  <r_i_glide_ligand_efficiency_ln>
-0.669385

>  <r_glide_XP_GScore>
-5.00902

>  <r_i_glide_gscore>
-5.00902

>  <r_i_glide_evdw>
-38.5678

>  <r_i_glide_ecoul>
-7.2631

>  <r_i_glide_energy>
-45.8309

>  <r_i_glide_einternal>
8.4172

>  <r_i_glide_emodel>
-59.4744

>  <r_glide_XP_HBond>
-0.713029

>  <i_i_glide_confnum>
1

>  <i_i_glide_posenum>
10

>  <r_i_glide_eff_state_penalty>
1.8873

>  <i_glide_XP_PoseRank>
1

$$$$
