BACE_93.smi:1
 OpenBabel09291822493D
Structure written by MMmdl.
 94 97  0  0  1  0  0  0  0  0999 V2000
   24.6785   46.4683  -10.3590 C   0  0  0  0  0  0  0  0  0  0  0  0
   23.6728   45.4061   -9.8734 C   0  0  2  0  0  0  0  0  0  0  0  0
   22.7334   44.9208  -10.9992 C   0  0  0  0  0  0  0  0  0  0  0  0
   23.3992   43.8433  -11.8633 C   0  0  0  0  0  0  0  0  0  0  0  0
   24.0600   44.1810  -12.8407 O   0  0  0  0  0  0  0  0  0  0  0  0
   23.2319   42.5500  -11.5518 N   0  0  0  0  0  0  0  0  0  0  0  0
   22.7183   42.0032  -10.3011 C   0  0  0  0  0  0  0  0  0  0  0  0
   23.5464   40.7791   -9.8853 C   0  0  0  0  0  0  0  0  0  0  0  0
   23.4174   40.4353   -8.3954 C   0  0  0  0  0  0  0  0  0  0  0  0
   22.0393   39.8783   -7.9995 C   0  0  0  0  0  0  0  0  0  0  0  0
   21.9733   39.6901   -6.5916 O   0  0  0  0  0  0  0  0  0  0  0  0
   21.8630   40.7946   -5.7717 C   0  0  0  0  0  0  0  0  0  0  0  0
   21.5940   42.1137   -6.2260 C   0  0  0  0  0  0  0  0  0  0  0  0
   21.5074   43.1867   -5.3143 C   0  0  0  0  0  0  0  0  0  0  0  0
   21.1871   44.5956   -5.7998 C   0  0  0  0  0  0  0  0  0  0  0  0
   22.3992   45.4486   -6.2580 C   0  0  2  0  0  0  0  0  0  0  0  0
   22.7959   45.0666   -7.6142 N   0  0  0  0  0  0  0  0  0  0  0  0
   22.8767   45.9031   -8.6620 C   0  0  0  0  0  0  0  0  0  0  0  0
   22.4138   47.0430   -8.6503 O   0  0  0  0  0  0  0  0  0  0  0  0
   23.6381   45.3745   -5.3291 C   0  0  2  0  0  0  0  0  0  0  0  0
   23.2600   45.8163   -4.0402 O   0  0  0  0  0  0  0  0  0  0  0  0
   24.8281   46.2610   -5.7689 C   0  0  0  0  0  0  0  0  0  0  0  0
   26.1161   45.7510   -5.2401 N   0  3  0  0  0  0  0  0  0  0  0  0
   27.3098   46.6432   -5.2571 C   0  0  0  0  0  0  0  0  0  0  0  0
   27.3057   47.6069   -6.4875 C   0  0  0  0  0  0  0  0  0  0  0  0
   28.6137   48.4074   -6.6205 C   0  0  0  0  0  0  0  0  0  0  0  0
   29.8173   47.4692   -6.7778 C   0  0  0  0  0  0  0  0  0  0  0  0
   29.8820   46.4641   -5.6210 C   0  0  0  0  0  0  0  0  0  0  0  0
   28.5439   45.7109   -5.4560 C   0  0  0  0  0  0  0  0  0  0  0  0
   27.3307   47.4089   -3.9109 C   0  0  0  0  0  0  0  0  0  0  0  0
   26.4514   48.4979   -3.6908 C   0  0  0  0  0  0  0  0  0  0  0  0
   26.3918   49.1883   -2.4569 C   0  0  0  0  0  0  0  0  0  0  0  0
   27.2971   48.8164   -1.4378 C   0  0  0  0  0  0  0  0  0  0  0  0
   28.1882   47.7500   -1.6380 C   0  0  0  0  0  0  0  0  0  0  0  0
   28.1867   47.0346   -2.8464 C   0  0  0  0  0  0  0  0  0  0  0  0
   25.3827   50.3361   -2.2719 C   0  0  0  0  0  0  0  0  0  0  0  0
   23.9684   49.8880   -2.7015 C   0  0  0  0  0  0  0  0  0  0  0  0
   25.2664   50.8096   -0.8034 C   0  0  0  0  0  0  0  0  0  0  0  0
   25.8379   51.5182   -3.1446 C   0  0  0  0  0  0  0  0  0  0  0  0
   21.6807   42.9400   -3.9368 C   0  0  0  0  0  0  0  0  0  0  0  0
   21.9415   41.6371   -3.4768 C   0  0  0  0  0  0  0  0  0  0  0  0
   22.0323   40.5727   -4.3909 C   0  0  0  0  0  0  0  0  0  0  0  0
   24.2689   44.5611   -9.5234 H   0  0  0  0  0  0  0  0  0  0  0  0
   22.0573   46.4851   -6.2683 H   0  0  0  0  0  0  0  0  0  0  0  0
   23.9663   44.3347   -5.2632 H   0  0  0  0  0  0  0  0  0  0  0  0
   25.3433   46.0589  -11.1197 H   0  0  0  0  0  0  0  0  0  0  0  0
   25.3034   46.8279   -9.5409 H   0  0  0  0  0  0  0  0  0  0  0  0
   24.1712   47.3301  -10.7932 H   0  0  0  0  0  0  0  0  0  0  0  0
   21.7908   44.5386  -10.6044 H   0  0  0  0  0  0  0  0  0  0  0  0
   22.4533   45.7575  -11.6399 H   0  0  0  0  0  0  0  0  0  0  0  0
   23.6457   41.8758  -12.1946 H   0  0  0  0  0  0  0  0  0  0  0  0
   22.7608   42.7425   -9.5034 H   0  0  0  0  0  0  0  0  0  0  0  0
   21.6696   41.7359  -10.4263 H   0  0  0  0  0  0  0  0  0  0  0  0
   23.2599   39.9192  -10.4901 H   0  0  0  0  0  0  0  0  0  0  0  0
   24.6017   40.9633  -10.0934 H   0  0  0  0  0  0  0  0  0  0  0  0
   23.6647   41.3196   -7.8103 H   0  0  0  0  0  0  0  0  0  0  0  0
   24.1704   39.6951   -8.1274 H   0  0  0  0  0  0  0  0  0  0  0  0
   21.2128   40.4913   -8.3592 H   0  0  0  0  0  0  0  0  0  0  0  0
   21.9025   38.9026   -8.4656 H   0  0  0  0  0  0  0  0  0  0  0  0
   21.4408   42.3262   -7.2719 H   0  0  0  0  0  0  0  0  0  0  0  0
   20.6855   45.1163   -4.9825 H   0  0  0  0  0  0  0  0  0  0  0  0
   20.4440   44.5396   -6.5967 H   0  0  0  0  0  0  0  0  0  0  0  0
   23.1567   44.1301   -7.7312 H   0  0  0  0  0  0  0  0  0  0  0  0
   23.8412   45.3821   -3.4221 H   0  0  0  0  0  0  0  0  0  0  0  0
   24.6348   47.2895   -5.4697 H   0  0  0  0  0  0  0  0  0  0  0  0
   24.9351   46.2778   -6.8510 H   0  0  0  0  0  0  0  0  0  0  0  0
   26.3456   44.9280   -5.7781 H   0  0  0  0  0  0  0  0  0  0  0  0
   27.1753   47.0274   -7.4021 H   0  0  0  0  0  0  0  0  0  0  0  0
   26.4733   48.3080   -6.4687 H   0  0  0  0  0  0  0  0  0  0  0  0
   28.7537   49.0470   -5.7476 H   0  0  0  0  0  0  0  0  0  0  0  0
   28.5547   49.0724   -7.4837 H   0  0  0  0  0  0  0  0  0  0  0  0
   29.7458   46.9337   -7.7258 H   0  0  0  0  0  0  0  0  0  0  0  0
   30.7417   48.0486   -6.8180 H   0  0  0  0  0  0  0  0  0  0  0  0
   30.1540   46.9925   -4.7073 H   0  0  0  0  0  0  0  0  0  0  0  0
   30.6884   45.7529   -5.8015 H   0  0  0  0  0  0  0  0  0  0  0  0
   28.3963   45.1191   -6.3621 H   0  0  0  0  0  0  0  0  0  0  0  0
   28.6218   44.9715   -4.6578 H   0  0  0  0  0  0  0  0  0  0  0  0
   25.7971   48.8207   -4.4795 H   0  0  0  0  0  0  0  0  0  0  0  0
   27.3259   49.3231   -0.4865 H   0  0  0  0  0  0  0  0  0  0  0  0
   28.8619   47.4568   -0.8459 H   0  0  0  0  0  0  0  0  0  0  0  0
   28.8722   46.2070   -2.9236 H   0  0  0  0  0  0  0  0  0  0  0  0
   23.9049   49.6461   -3.7617 H   0  0  0  0  0  0  0  0  0  0  0  0
   23.2300   50.6686   -2.5154 H   0  0  0  0  0  0  0  0  0  0  0  0
   23.6602   49.0026   -2.1443 H   0  0  0  0  0  0  0  0  0  0  0  0
   26.2024   51.2129   -0.4219 H   0  0  0  0  0  0  0  0  0  0  0  0
   24.9601   49.9972   -0.1430 H   0  0  0  0  0  0  0  0  0  0  0  0
   24.5260   51.6046   -0.7035 H   0  0  0  0  0  0  0  0  0  0  0  0
   26.8869   51.7500   -2.9579 H   0  0  0  0  0  0  0  0  0  0  0  0
   25.2606   52.4169   -2.9321 H   0  0  0  0  0  0  0  0  0  0  0  0
   25.7458   51.2978   -4.2086 H   0  0  0  0  0  0  0  0  0  0  0  0
   21.6036   43.7498   -3.2269 H   0  0  0  0  0  0  0  0  0  0  0  0
   22.0647   41.4545   -2.4212 H   0  0  0  0  0  0  0  0  0  0  0  0
   22.2311   39.5746   -4.0305 H   0  0  0  0  0  0  0  0  0  0  0  0
   25.9721   45.4531   -4.2796 H   0  0  0  0  0  0  0  0  0  0  0  0
  1  2  1  0  0  0  0
  1 46  1  0  0  0  0
  1 47  1  0  0  0  0
  1 48  1  0  0  0  0
  2 43  1  1  0  0  0
  2 18  1  0  0  0  0
  2  3  1  0  0  0  0
  3  4  1  0  0  0  0
  3 49  1  0  0  0  0
  3 50  1  0  0  0  0
  4  5  2  0  0  0  0
  4  6  1  0  0  0  0
  6  7  1  0  0  0  0
  6 51  1  0  0  0  0
  7  8  1  0  0  0  0
  7 52  1  0  0  0  0
  7 53  1  0  0  0  0
  8  9  1  0  0  0  0
  8 54  1  0  0  0  0
  8 55  1  0  0  0  0
  9 10  1  0  0  0  0
  9 56  1  0  0  0  0
  9 57  1  0  0  0  0
 10 11  1  0  0  0  0
 10 58  1  0  0  0  0
 10 59  1  0  0  0  0
 11 12  1  0  0  0  0
 12 42  1  0  0  0  0
 12 13  2  0  0  0  0
 13 14  1  0  0  0  0
 13 60  1  0  0  0  0
 14 15  1  0  0  0  0
 14 40  2  0  0  0  0
 15 16  1  0  0  0  0
 15 61  1  0  0  0  0
 15 62  1  0  0  0  0
 16 44  1  6  0  0  0
 16 17  1  0  0  0  0
 16 20  1  0  0  0  0
 17 18  1  0  0  0  0
 17 63  1  0  0  0  0
 18 19  2  0  0  0  0
 20 45  1  1  0  0  0
 20 21  1  0  0  0  0
 20 22  1  0  0  0  0
 21 64  1  0  0  0  0
 22 23  1  0  0  0  0
 22 65  1  0  0  0  0
 22 66  1  0  0  0  0
 23 24  1  0  0  0  0
 23 67  1  0  0  0  0
 23 94  1  0  0  0  0
 24 29  1  0  0  0  0
 24 25  1  0  0  0  0
 24 30  1  0  0  0  0
 25 26  1  0  0  0  0
 25 68  1  0  0  0  0
 25 69  1  0  0  0  0
 26 27  1  0  0  0  0
 26 70  1  0  0  0  0
 26 71  1  0  0  0  0
 27 28  1  0  0  0  0
 27 72  1  0  0  0  0
 27 73  1  0  0  0  0
 28 29  1  0  0  0  0
 28 74  1  0  0  0  0
 28 75  1  0  0  0  0
 29 76  1  0  0  0  0
 29 77  1  0  0  0  0
 30 35  1  0  0  0  0
 30 31  2  0  0  0  0
 31 32  1  0  0  0  0
 31 78  1  0  0  0  0
 32 33  2  0  0  0  0
 32 36  1  0  0  0  0
 33 34  1  0  0  0  0
 33 79  1  0  0  0  0
 34 35  2  0  0  0  0
 34 80  1  0  0  0  0
 35 81  1  0  0  0  0
 36 37  1  0  0  0  0
 36 38  1  0  0  0  0
 36 39  1  0  0  0  0
 37 82  1  0  0  0  0
 37 83  1  0  0  0  0
 37 84  1  0  0  0  0
 38 85  1  0  0  0  0
 38 86  1  0  0  0  0
 38 87  1  0  0  0  0
 39 88  1  0  0  0  0
 39 89  1  0  0  0  0
 39 90  1  0  0  0  0
 40 41  1  0  0  0  0
 40 91  1  0  0  0  0
 41 42  2  0  0  0  0
 41 92  1  0  0  0  0
 42 93  1  0  0  0  0
M  CHG  1  23   1
M  END
>  <s_m_source_file>
BACE_93.smi

>  <i_m_source_file_index>
1

>  <i_lp_mmshare_version>
42013

>  <i_f3d_flags>
0

>  <s_epik_input>
TzFbQ0gyXVtDSDJdW0NIMl1bQ0gyXVtOSF1DKD1PKVtDSDJdW0NAQEhdKFtDSDNdKUMoPU8pW05IXVtDQEBIXShbQ0gyXWMoW2NIXWMxMilbY0hdW2NIXVtjSF0yKVtDQEhdKFtPSF0pW0NIMl1bTkhdQzMoW0NIMl1bQ0gyXVtDSDJdW0NIMl1bQ0gyXTMpYzRbY0hdYyhDKFtDSDNdKShbQ0gzXSlbQ0gzXSlbY0hdW2NIXVtjSF00

>  <s_epik_cmdline>
J2VwaWtfcHl0aG9uJywgJy1waCcsICc3LjAnLCAnLXRuJywgJzgnLCAnLW1hJywgJzIwMCcsICctaW1hZScsICc8aW5maWxlLm1hZT4nLCAnLW9tYWUnLCAnPG91dGZpbGUubWFlPic=

>  <r_lp_tautomer_probability>
1

>  <r_epik_Ionization_Penalty>
0.0120

>  <r_epik_Ionization_Penalty_Charging>
0.0120

>  <r_epik_Ionization_Penalty_Neutral>
0.0000

>  <r_epik_State_Penalty>
0.0092

>  <r_epik_Charging_Adjusted_Penalty>
0.0211899

>  <i_epik_Tot_Q>
1

>  <i_epik_Tot_abs_Q>
1

>  <s_lp_Force_Field>
OPLS_2005

>  <r_lp_Energy>
42.4445

>  <b_lp_Chiralities_Consistent>
1

>  <s_lp_Variant>
BACE_93.smi:1-1

>  <chiral flag>
1

>  <version>
0

>  <s_i_glide_gridfile>
second_dock_grid_2

>  <i_i_glide_lignum>
188

>  <i_i_glide_rotatable_bonds>
7

>  <r_i_docking_score>
-5.70836

>  <r_i_glide_ligand_efficiency>
-0.135913

>  <r_i_glide_ligand_efficiency_sa>
-0.472439

>  <r_i_glide_ligand_efficiency_ln>
-1.20489

>  <r_glide_XP_GScore>
-5.71756

>  <r_i_glide_gscore>
-5.71756

>  <r_i_glide_evdw>
-33.7303

>  <r_i_glide_ecoul>
-14.7585

>  <r_i_glide_energy>
-48.4888

>  <r_i_glide_einternal>
3.86643

>  <r_i_glide_emodel>
-67.0147

>  <r_glide_XP_HBond>
-1.80063

>  <i_i_glide_confnum>
1

>  <i_i_glide_posenum>
1

>  <r_i_glide_eff_state_penalty>
0.0092

>  <i_glide_XP_PoseRank>
1

$$$$
