BACE_12.smi:1
 OpenBabel09291822493D
Structure written by MMmdl.
 79 82  0  0  1  0  0  0  0  0999 V2000
   20.1285   44.8598   -5.5167 C   0  0  0  0  0  0  0  0  0  0  0  0
   18.8595   45.1586   -6.0772 O   0  0  0  0  0  0  0  0  0  0  0  0
   18.7433   44.9055   -7.4221 C   0  0  0  0  0  0  0  0  0  0  0  0
   17.6282   44.2008   -7.8979 C   0  0  0  0  0  0  0  0  0  0  0  0
   17.5770   43.8769   -9.2706 C   0  0  0  0  0  0  0  0  0  0  0  0
   18.5985   44.3497  -10.1163 C   0  0  0  0  0  0  0  0  0  0  0  0
   19.6875   45.0451   -9.5387 C   0  0  0  0  0  0  0  0  0  0  0  0
   20.8114   45.4644  -10.2606 N   0  0  0  0  0  0  0  0  0  0  0  0
   21.2107   44.8141  -11.5027 C   0  0  0  0  0  0  0  0  0  0  0  0
   22.1348   43.5956  -11.2926 C   0  0  0  0  0  0  0  0  0  0  0  0
   21.4272   42.3194  -10.8094 C   0  0  0  0  0  0  0  0  0  0  0  0
   20.6171   41.5978  -11.9014 C   0  0  0  0  0  0  0  0  0  0  0  0
   19.7970   40.4667  -11.3151 C   0  0  0  0  0  0  0  0  0  0  0  0
   20.4383   39.2927  -10.8759 C   0  0  0  0  0  0  0  0  0  0  0  0
   19.6860   38.2715  -10.2700 C   0  0  0  0  0  0  0  0  0  0  0  0
   18.2975   38.4158  -10.0986 C   0  0  0  0  0  0  0  0  0  0  0  0
   17.6422   39.5925  -10.5197 C   0  0  0  0  0  0  0  0  0  0  0  0
   16.1254   39.7363  -10.3596 C   0  0  0  0  0  0  0  0  0  0  0  0
   15.6065   40.6513   -9.2095 C   0  0  2  0  0  0  0  0  0  0  0  0
   16.4067   41.8568   -9.0114 N   0  0  0  0  0  0  0  0  0  0  0  0
   16.5393   42.9332   -9.7929 C   0  0  0  0  0  0  0  0  0  0  0  0
   15.9897   43.0895  -10.8853 O   0  0  0  0  0  0  0  0  0  0  0  0
   15.3954   39.9443   -7.8285 C   0  0  2  0  0  0  0  0  0  0  0  0
   15.2601   40.9478   -6.8393 O   0  0  0  0  0  0  0  0  0  0  0  0
   16.5279   39.0291   -7.3167 C   0  0  0  0  0  0  0  0  0  0  0  0
   17.8210   39.7470   -7.2400 N   0  3  0  0  0  0  0  0  0  0  0  0
   18.9398   38.9451   -6.7011 C   0  0  0  0  0  0  0  0  0  0  0  0
   20.1420   39.8243   -6.3952 C   0  0  0  0  0  0  0  0  0  0  0  0
   20.9315   40.3537   -7.4343 C   0  0  0  0  0  0  0  0  0  0  0  0
   22.0137   41.2013   -7.1378 C   0  0  0  0  0  0  0  0  0  0  0  0
   22.3065   41.5373   -5.8038 C   0  0  0  0  0  0  0  0  0  0  0  0
   21.5218   41.0289   -4.7394 C   0  0  0  0  0  0  0  0  0  0  0  0
   20.4606   40.1503   -5.0610 C   0  0  0  0  0  0  0  0  0  0  0  0
   21.8028   41.4149   -3.2764 C   0  0  0  0  0  0  0  0  0  0  0  0
   20.5201   41.5362   -2.4271 C   0  0  0  0  0  0  0  0  0  0  0  0
   22.6399   42.7029   -3.1219 C   0  0  0  0  0  0  0  0  0  0  0  0
   18.4025   40.5939  -11.1674 C   0  0  0  0  0  0  0  0  0  0  0  0
   19.7516   45.3197   -8.2232 N   0  0  0  0  0  0  0  0  0  0  0  0
   14.6131   40.9933   -9.5063 H   0  0  0  0  0  0  0  0  0  0  0  0
   14.4685   39.3670   -7.8580 H   0  0  0  0  0  0  0  0  0  0  0  0
   20.0654   44.9805   -4.4381 H   0  0  0  0  0  0  0  0  0  0  0  0
   20.9312   45.5055   -5.8915 H   0  0  0  0  0  0  0  0  0  0  0  0
   20.3898   43.8160   -5.7097 H   0  0  0  0  0  0  0  0  0  0  0  0
   16.8672   43.8570   -7.2098 H   0  0  0  0  0  0  0  0  0  0  0  0
   18.5596   44.1077  -11.1647 H   0  0  0  0  0  0  0  0  0  0  0  0
   21.5532   45.8747   -9.7097 H   0  0  0  0  0  0  0  0  0  0  0  0
   20.3386   44.5528  -12.0920 H   0  0  0  0  0  0  0  0  0  0  0  0
   21.7502   45.5584  -12.0882 H   0  0  0  0  0  0  0  0  0  0  0  0
   22.6491   43.3689  -12.2288 H   0  0  0  0  0  0  0  0  0  0  0  0
   22.9183   43.8580  -10.5792 H   0  0  0  0  0  0  0  0  0  0  0  0
   22.1827   41.6269  -10.4287 H   0  0  0  0  0  0  0  0  0  0  0  0
   20.7909   42.5501   -9.9554 H   0  0  0  0  0  0  0  0  0  0  0  0
   19.9544   42.2920  -12.4216 H   0  0  0  0  0  0  0  0  0  0  0  0
   21.2916   41.1980  -12.6602 H   0  0  0  0  0  0  0  0  0  0  0  0
   21.5067   39.1827  -10.9842 H   0  0  0  0  0  0  0  0  0  0  0  0
   20.1840   37.3804   -9.9238 H   0  0  0  0  0  0  0  0  0  0  0  0
   17.7428   37.5946   -9.6681 H   0  0  0  0  0  0  0  0  0  0  0  0
   15.7594   40.1449  -11.3025 H   0  0  0  0  0  0  0  0  0  0  0  0
   15.6696   38.7485  -10.2804 H   0  0  0  0  0  0  0  0  0  0  0  0
   16.8258   41.9418   -8.0984 H   0  0  0  0  0  0  0  0  0  0  0  0
   14.5724   40.7457   -6.2081 H   0  0  0  0  0  0  0  0  0  0  0  0
   16.2682   38.6757   -6.3176 H   0  0  0  0  0  0  0  0  0  0  0  0
   16.6091   38.1351   -7.9305 H   0  0  0  0  0  0  0  0  0  0  0  0
   18.0683   40.1059   -8.1507 H   0  0  0  0  0  0  0  0  0  0  0  0
   18.6180   38.4483   -5.7855 H   0  0  0  0  0  0  0  0  0  0  0  0
   19.2179   38.1590   -7.4025 H   0  0  0  0  0  0  0  0  0  0  0  0
   20.7048   40.1332   -8.4610 H   0  0  0  0  0  0  0  0  0  0  0  0
   22.6143   41.6125   -7.9379 H   0  0  0  0  0  0  0  0  0  0  0  0
   23.1384   42.1983   -5.6233 H   0  0  0  0  0  0  0  0  0  0  0  0
   19.8369   39.7502   -4.2791 H   0  0  0  0  0  0  0  0  0  0  0  0
   22.3939   40.6037   -2.8486 H   0  0  0  0  0  0  0  0  0  0  0  0
   20.0322   40.5705   -2.2922 H   0  0  0  0  0  0  0  0  0  0  0  0
   19.7982   42.2256   -2.8743 H   0  0  0  0  0  0  0  0  0  0  0  0
   20.7428   41.9045   -1.4236 H   0  0  0  0  0  0  0  0  0  0  0  0
   23.6319   42.6125   -3.5713 H   0  0  0  0  0  0  0  0  0  0  0  0
   22.8052   42.9436   -2.0698 H   0  0  0  0  0  0  0  0  0  0  0  0
   22.1369   43.5616   -3.5694 H   0  0  0  0  0  0  0  0  0  0  0  0
   17.9153   41.4740  -11.5521 H   0  0  0  0  0  0  0  0  0  0  0  0
   17.6750   40.5200   -6.5937 H   0  0  0  0  0  0  0  0  0  0  0  0
  1  2  1  0  0  0  0
  1 41  1  0  0  0  0
  1 42  1  0  0  0  0
  1 43  1  0  0  0  0
  2  3  1  0  0  0  0
  3 38  1  0  0  0  0
  3  4  2  0  0  0  0
  4  5  1  0  0  0  0
  4 44  1  0  0  0  0
  5 21  1  0  0  0  0
  5  6  2  0  0  0  0
  6  7  1  0  0  0  0
  6 45  1  0  0  0  0
  7  8  1  0  0  0  0
  7 38  2  0  0  0  0
  8  9  1  0  0  0  0
  8 46  1  0  0  0  0
  9 10  1  0  0  0  0
  9 47  1  0  0  0  0
  9 48  1  0  0  0  0
 10 11  1  0  0  0  0
 10 49  1  0  0  0  0
 10 50  1  0  0  0  0
 11 12  1  0  0  0  0
 11 51  1  0  0  0  0
 11 52  1  0  0  0  0
 12 13  1  0  0  0  0
 12 53  1  0  0  0  0
 12 54  1  0  0  0  0
 13 37  1  0  0  0  0
 13 14  2  0  0  0  0
 14 15  1  0  0  0  0
 14 55  1  0  0  0  0
 15 16  2  0  0  0  0
 15 56  1  0  0  0  0
 16 17  1  0  0  0  0
 16 57  1  0  0  0  0
 17 18  1  0  0  0  0
 17 37  2  0  0  0  0
 18 19  1  0  0  0  0
 18 58  1  0  0  0  0
 18 59  1  0  0  0  0
 19 39  1  6  0  0  0
 19 20  1  0  0  0  0
 19 23  1  0  0  0  0
 20 21  1  0  0  0  0
 20 60  1  0  0  0  0
 21 22  2  0  0  0  0
 23 40  1  6  0  0  0
 23 24  1  0  0  0  0
 23 25  1  0  0  0  0
 24 61  1  0  0  0  0
 25 26  1  0  0  0  0
 25 62  1  0  0  0  0
 25 63  1  0  0  0  0
 26 27  1  0  0  0  0
 26 64  1  0  0  0  0
 26 79  1  0  0  0  0
 27 28  1  0  0  0  0
 27 65  1  0  0  0  0
 27 66  1  0  0  0  0
 28 33  1  0  0  0  0
 28 29  2  0  0  0  0
 29 30  1  0  0  0  0
 29 67  1  0  0  0  0
 30 31  2  0  0  0  0
 30 68  1  0  0  0  0
 31 32  1  0  0  0  0
 31 69  1  0  0  0  0
 32 33  2  0  0  0  0
 32 34  1  0  0  0  0
 33 70  1  0  0  0  0
 34 35  1  0  0  0  0
 34 36  1  0  0  0  0
 34 71  1  0  0  0  0
 35 72  1  0  0  0  0
 35 73  1  0  0  0  0
 35 74  1  0  0  0  0
 36 75  1  0  0  0  0
 36 76  1  0  0  0  0
 36 77  1  0  0  0  0
 37 78  1  0  0  0  0
M  CHG  1  26   1
M  END
>  <s_m_source_file>
BACE_12.smi

>  <i_m_source_file_index>
1

>  <i_lp_mmshare_version>
42013

>  <i_f3d_flags>
0

>  <s_epik_input>
W0NIM11PYyhbY0hdYzEyKW5jKFtjSF0xKVtOSF1bQ0gyXVtDSDJdW0NIMl1bQ0gyXWMzW2NIXVtjSF1bY0hdYyhbY0hdMylbQ0gyXVtDQEhdKFtOSF1DMj1PKVtDQEhdKFtPSF0pW0NIMl1bTkhdW0NIMl1jNFtjSF1bY0hdW2NIXWMoW2NIXTQpW0NIXShbQ0gzXSlbQ0gzXQ==

>  <s_epik_cmdline>
J2VwaWtfcHl0aG9uJywgJy1waCcsICc3LjAnLCAnLXRuJywgJzgnLCAnLW1hJywgJzIwMCcsICctaW1hZScsICc8aW5maWxlLm1hZT4nLCAnLW9tYWUnLCAnPG91dGZpbGUubWFlPic=

>  <r_lp_tautomer_probability>
1

>  <r_epik_Ionization_Penalty>
0.0201

>  <r_epik_Ionization_Penalty_Charging>
0.0201

>  <r_epik_Ionization_Penalty_Neutral>
0.0000

>  <r_epik_State_Penalty>
0.0161

>  <r_epik_Charging_Adjusted_Penalty>
0.0361071

>  <i_epik_Tot_Q>
1

>  <i_epik_Tot_abs_Q>
1

>  <s_lp_Force_Field>
OPLS_2005

>  <r_lp_Energy>
20.6554

>  <b_lp_Chiralities_Consistent>
1

>  <s_lp_Variant>
BACE_12.smi:1-1

>  <chiral flag>
1

>  <version>
0

>  <s_i_glide_gridfile>
second_dock_grid_2

>  <i_i_glide_lignum>
20

>  <i_i_glide_rotatable_bonds>
8

>  <r_i_docking_score>
-6.41052

>  <r_i_glide_ligand_efficiency>
-0.168698

>  <r_i_glide_ligand_efficiency_sa>
-0.567158

>  <r_i_glide_ligand_efficiency_ln>
-1.3823

>  <r_glide_XP_GScore>
-6.42662

>  <r_i_glide_gscore>
-6.42662

>  <r_i_glide_evdw>
-41.2222

>  <r_i_glide_ecoul>
-13.0481

>  <r_i_glide_energy>
-54.2703

>  <r_i_glide_einternal>
13.3454

>  <r_i_glide_emodel>
-69.8275

>  <r_glide_XP_HBond>
0

>  <i_i_glide_confnum>
1

>  <i_i_glide_posenum>
2

>  <r_i_glide_eff_state_penalty>
0.0161

>  <i_glide_XP_PoseRank>
1

$$$$
