BACE_56.smi:1
 OpenBabel09291822493D
Structure written by MMmdl.
 89 92  0  0  1  0  0  0  0  0999 V2000
   25.9523   44.7278  -12.3268 C   0  0  0  0  0  0  0  0  0  0  0  0
   26.7329   43.6614  -11.5380 C   0  0  2  0  0  0  0  0  0  0  0  0
   27.7890   43.0242  -12.4754 C   0  0  0  0  0  0  0  0  0  0  0  0
   28.7848   42.0148  -11.8485 C   0  0  0  0  0  0  0  0  0  0  0  0
   30.0617   42.6166  -11.2234 C   0  0  0  0  0  0  0  0  0  0  0  0
   29.8253   43.4674   -9.9657 C   0  0  0  0  0  0  0  0  0  0  0  0
   31.1170   43.8495   -9.2201 C   0  0  0  0  0  0  0  0  0  0  0  0
   30.8357   44.6493   -7.9405 C   0  0  0  0  0  0  0  0  0  0  0  0
   30.4426   46.1104   -8.1999 C   0  0  0  0  0  0  0  0  0  0  0  0
   29.8466   46.7287   -7.0260 N   0  0  0  0  0  0  0  0  0  0  0  0
   28.5552   46.3751   -6.5990 C   0  0  0  0  0  0  0  0  0  0  0  0
   27.6099   45.7378   -7.4434 C   0  0  0  0  0  0  0  0  0  0  0  0
   26.3141   45.4221   -6.9705 C   0  0  0  0  0  0  0  0  0  0  0  0
   25.9670   45.7533   -5.6426 C   0  0  0  0  0  0  0  0  0  0  0  0
   26.9053   46.3700   -4.7946 C   0  0  0  0  0  0  0  0  0  0  0  0
   28.1913   46.6803   -5.2718 C   0  0  0  0  0  0  0  0  0  0  0  0
   25.2804   44.8260   -7.8831 C   0  0  0  0  0  0  0  0  0  0  0  0
   24.1063   45.1897   -7.8203 O   0  0  0  0  0  0  0  0  0  0  0  0
   25.7070   43.8692   -8.7244 N   0  0  0  0  0  0  0  0  0  0  0  0
   24.8840   43.2175   -9.7482 C   0  0  1  0  0  0  0  0  0  0  0  0
   25.7765   42.6328  -10.8729 C   0  0  0  0  0  0  0  0  0  0  0  0
   23.8799   42.2170   -9.1017 C   0  0  2  0  0  0  0  0  0  0  0  0
   24.4557   40.9505   -8.8452 O   0  0  0  0  0  0  0  0  0  0  0  0
   22.5192   42.0757   -9.8279 C   0  0  0  0  0  0  0  0  0  0  0  0
   22.4622   40.9884  -10.8397 N   0  3  0  0  0  0  0  0  0  0  0  0
   21.0894   40.5509  -11.2252 C   0  0  0  0  0  0  0  0  0  0  0  0
   20.3605   41.6764  -11.9847 C   0  0  0  0  0  0  0  0  0  0  0  0
   20.3858   40.9473  -13.2338 O   0  0  0  0  0  0  0  0  0  0  0  0
   21.0827   39.8531  -12.5901 C   0  0  0  0  0  0  0  0  0  0  0  0
   20.3752   39.7956  -10.0855 C   0  0  0  0  0  0  0  0  0  0  0  0
   18.9616   39.6829  -10.0742 C   0  0  0  0  0  0  0  0  0  0  0  0
   18.2736   39.0360   -9.0150 C   0  0  0  0  0  0  0  0  0  0  0  0
   19.0362   38.4754   -7.9665 C   0  0  0  0  0  0  0  0  0  0  0  0
   20.4395   38.5513   -7.9786 C   0  0  0  0  0  0  0  0  0  0  0  0
   21.1073   39.1830   -9.0399 C   0  0  0  0  0  0  0  0  0  0  0  0
   16.7351   38.9067   -8.9849 C   0  0  0  0  0  0  0  0  0  0  0  0
   16.0364   39.7810  -10.0518 C   0  0  0  0  0  0  0  0  0  0  0  0
   16.3503   37.4361   -9.2364 C   0  0  0  0  0  0  0  0  0  0  0  0
   16.1788   39.3342   -7.6060 C   0  0  0  0  0  0  0  0  0  0  0  0
   27.2652   44.1905  -10.7561 H   0  0  0  0  0  0  0  0  0  0  0  0
   24.2862   44.0128  -10.1902 H   0  0  0  0  0  0  0  0  0  0  0  0
   23.6189   42.5975   -8.1134 H   0  0  0  0  0  0  0  0  0  0  0  0
   25.2948   45.3110  -11.6843 H   0  0  0  0  0  0  0  0  0  0  0  0
   25.3407   44.2765  -13.1082 H   0  0  0  0  0  0  0  0  0  0  0  0
   26.6314   45.4346  -12.8028 H   0  0  0  0  0  0  0  0  0  0  0  0
   27.2501   42.5501  -13.2961 H   0  0  0  0  0  0  0  0  0  0  0  0
   28.3683   43.8130  -12.9566 H   0  0  0  0  0  0  0  0  0  0  0  0
   29.1169   41.3553  -12.6523 H   0  0  0  0  0  0  0  0  0  0  0  0
   28.3015   41.3506  -11.1346 H   0  0  0  0  0  0  0  0  0  0  0  0
   30.5996   43.2015  -11.9698 H   0  0  0  0  0  0  0  0  0  0  0  0
   30.7242   41.7897  -10.9651 H   0  0  0  0  0  0  0  0  0  0  0  0
   29.1542   42.9397   -9.2833 H   0  0  0  0  0  0  0  0  0  0  0  0
   29.3245   44.3862  -10.2604 H   0  0  0  0  0  0  0  0  0  0  0  0
   31.6575   42.9500   -8.9425 H   0  0  0  0  0  0  0  0  0  0  0  0
   31.7849   44.4080   -9.8788 H   0  0  0  0  0  0  0  0  0  0  0  0
   31.7200   44.6374   -7.3044 H   0  0  0  0  0  0  0  0  0  0  0  0
   30.0540   44.1475   -7.3691 H   0  0  0  0  0  0  0  0  0  0  0  0
   31.3386   46.6733   -8.4689 H   0  0  0  0  0  0  0  0  0  0  0  0
   29.7710   46.2113   -9.0513 H   0  0  0  0  0  0  0  0  0  0  0  0
   30.4757   47.1436   -6.3515 H   0  0  0  0  0  0  0  0  0  0  0  0
   27.8570   45.5170   -8.4688 H   0  0  0  0  0  0  0  0  0  0  0  0
   24.9794   45.5321   -5.2619 H   0  0  0  0  0  0  0  0  0  0  0  0
   26.6347   46.6076   -3.7765 H   0  0  0  0  0  0  0  0  0  0  0  0
   28.8948   47.1635   -4.6121 H   0  0  0  0  0  0  0  0  0  0  0  0
   26.6801   43.6084   -8.6782 H   0  0  0  0  0  0  0  0  0  0  0  0
   25.1541   42.1737  -11.6404 H   0  0  0  0  0  0  0  0  0  0  0  0
   26.3574   41.8227  -10.4408 H   0  0  0  0  0  0  0  0  0  0  0  0
   24.8937   40.6136   -9.6151 H   0  0  0  0  0  0  0  0  0  0  0  0
   22.2280   43.0250  -10.2744 H   0  0  0  0  0  0  0  0  0  0  0  0
   21.7649   41.8768   -9.0685 H   0  0  0  0  0  0  0  0  0  0  0  0
   22.9298   40.1891  -10.4388 H   0  0  0  0  0  0  0  0  0  0  0  0
   19.3436   41.8788  -11.6529 H   0  0  0  0  0  0  0  0  0  0  0  0
   20.9177   42.6102  -12.0408 H   0  0  0  0  0  0  0  0  0  0  0  0
   20.4852   38.9413  -12.5889 H   0  0  0  0  0  0  0  0  0  0  0  0
   22.0591   39.6709  -13.0363 H   0  0  0  0  0  0  0  0  0  0  0  0
   18.4047   40.0932  -10.8991 H   0  0  0  0  0  0  0  0  0  0  0  0
   18.5532   37.9572   -7.1491 H   0  0  0  0  0  0  0  0  0  0  0  0
   21.0068   38.1120   -7.1704 H   0  0  0  0  0  0  0  0  0  0  0  0
   22.1876   39.1935   -9.0086 H   0  0  0  0  0  0  0  0  0  0  0  0
   16.2927   40.8357   -9.9338 H   0  0  0  0  0  0  0  0  0  0  0  0
   14.9494   39.7020   -9.9740 H   0  0  0  0  0  0  0  0  0  0  0  0
   16.3018   39.4758  -11.0642 H   0  0  0  0  0  0  0  0  0  0  0  0
   16.7274   36.7795   -8.4494 H   0  0  0  0  0  0  0  0  0  0  0  0
   16.7499   37.0751  -10.1829 H   0  0  0  0  0  0  0  0  0  0  0  0
   15.2682   37.3163   -9.2670 H   0  0  0  0  0  0  0  0  0  0  0  0
   16.5072   38.6763   -6.7995 H   0  0  0  0  0  0  0  0  0  0  0  0
   15.0879   39.3035   -7.5877 H   0  0  0  0  0  0  0  0  0  0  0  0
   16.4791   40.3519   -7.3473 H   0  0  0  0  0  0  0  0  0  0  0  0
   22.9659   41.2584  -11.6753 H   0  0  0  0  0  0  0  0  0  0  0  0
  1  2  1  0  0  0  0
  1 43  1  0  0  0  0
  1 44  1  0  0  0  0
  1 45  1  0  0  0  0
  2 40  1  1  0  0  0
  2 21  1  0  0  0  0
  2  3  1  0  0  0  0
  3  4  1  0  0  0  0
  3 46  1  0  0  0  0
  3 47  1  0  0  0  0
  4  5  1  0  0  0  0
  4 48  1  0  0  0  0
  4 49  1  0  0  0  0
  5  6  1  0  0  0  0
  5 50  1  0  0  0  0
  5 51  1  0  0  0  0
  6  7  1  0  0  0  0
  6 52  1  0  0  0  0
  6 53  1  0  0  0  0
  7  8  1  0  0  0  0
  7 54  1  0  0  0  0
  7 55  1  0  0  0  0
  8  9  1  0  0  0  0
  8 56  1  0  0  0  0
  8 57  1  0  0  0  0
  9 10  1  0  0  0  0
  9 58  1  0  0  0  0
  9 59  1  0  0  0  0
 10 11  1  0  0  0  0
 10 60  1  0  0  0  0
 11 16  1  0  0  0  0
 11 12  2  0  0  0  0
 12 13  1  0  0  0  0
 12 61  1  0  0  0  0
 13 14  2  0  0  0  0
 13 17  1  0  0  0  0
 14 15  1  0  0  0  0
 14 62  1  0  0  0  0
 15 16  2  0  0  0  0
 15 63  1  0  0  0  0
 16 64  1  0  0  0  0
 17 18  2  0  0  0  0
 17 19  1  0  0  0  0
 19 20  1  0  0  0  0
 19 65  1  0  0  0  0
 20 41  1  6  0  0  0
 20 21  1  0  0  0  0
 20 22  1  0  0  0  0
 21 66  1  0  0  0  0
 21 67  1  0  0  0  0
 22 42  1  1  0  0  0
 22 23  1  0  0  0  0
 22 24  1  0  0  0  0
 23 68  1  0  0  0  0
 24 25  1  0  0  0  0
 24 69  1  0  0  0  0
 24 70  1  0  0  0  0
 25 26  1  0  0  0  0
 25 71  1  0  0  0  0
 25 89  1  0  0  0  0
 26 29  1  0  0  0  0
 26 27  1  0  0  0  0
 26 30  1  0  0  0  0
 27 28  1  0  0  0  0
 27 72  1  0  0  0  0
 27 73  1  0  0  0  0
 28 29  1  0  0  0  0
 29 74  1  0  0  0  0
 29 75  1  0  0  0  0
 30 35  1  0  0  0  0
 30 31  2  0  0  0  0
 31 32  1  0  0  0  0
 31 76  1  0  0  0  0
 32 33  2  0  0  0  0
 32 36  1  0  0  0  0
 33 34  1  0  0  0  0
 33 77  1  0  0  0  0
 34 35  2  0  0  0  0
 34 78  1  0  0  0  0
 35 79  1  0  0  0  0
 36 37  1  0  0  0  0
 36 38  1  0  0  0  0
 36 39  1  0  0  0  0
 37 80  1  0  0  0  0
 37 81  1  0  0  0  0
 37 82  1  0  0  0  0
 38 83  1  0  0  0  0
 38 84  1  0  0  0  0
 38 85  1  0  0  0  0
 39 86  1  0  0  0  0
 39 87  1  0  0  0  0
 39 88  1  0  0  0  0
M  CHG  1  25   1
M  END
>  <s_m_source_file>
BACE_56.smi

>  <i_m_source_file_index>
1

>  <i_lp_mmshare_version>
42013

>  <i_f3d_flags>
0

>  <s_epik_input>
W05IXTFbQ0gyXVtDSDJdW0NIMl1bQ0gyXVtDSDJdW0NIMl1bQ0gyXVtDQEBIXShbQ0gzXSlbQ0gyXVtDQEhdKFtOSF1DKD1PKWMoW2NIXWMxMilbY0hdW2NIXVtjSF0yKVtDQEhdKFtPSF0pW0NIMl1bTkhdQzMoW0NIMl1PW0NIMl0zKWM0W2NIXWMoQyhbQ0gzXSkoW0NIM10pW0NIM10pW2NIXVtjSF1bY0hdNA==

>  <s_epik_cmdline>
J2VwaWtfcHl0aG9uJywgJy1waCcsICc3LjAnLCAnLXRuJywgJzgnLCAnLW1hJywgJzIwMCcsICctaW1hZScsICc8aW5maWxlLm1hZT4nLCAnLW9tYWUnLCAnPG91dGZpbGUubWFlPic=

>  <r_epik_Ionization_Penalty>
0.2027

>  <r_epik_Ionization_Penalty_Charging>
0.2020

>  <r_epik_Ionization_Penalty_Neutral>
0.0007

>  <r_epik_State_Penalty>
0.1919

>  <r_epik_Charging_Adjusted_Penalty>
0.393931

>  <i_epik_Tot_Q>
1

>  <i_epik_Tot_abs_Q>
1

>  <s_lp_Force_Field>
OPLS_2005

>  <r_lp_Energy>
47.8303

>  <b_lp_Chiralities_Consistent>
1

>  <s_lp_Variant>
BACE_56.smi:1-1

>  <chiral flag>
1

>  <version>
0

>  <s_i_glide_gridfile>
second_dock_grid_2

>  <i_i_glide_lignum>
108

>  <i_i_glide_rotatable_bonds>
7

>  <r_i_docking_score>
-1.8395

>  <r_i_glide_ligand_efficiency>
-0.0471667

>  <r_i_glide_ligand_efficiency_sa>
-0.159952

>  <r_i_glide_ligand_efficiency_ln>
-0.394441

>  <r_glide_XP_GScore>
-2.0314

>  <r_i_glide_gscore>
-2.0314

>  <r_i_glide_evdw>
-37.5927

>  <r_i_glide_ecoul>
-10.1176

>  <r_i_glide_energy>
-47.7103

>  <r_i_glide_einternal>
7.03498

>  <r_i_glide_emodel>
-59.5246

>  <r_glide_XP_HBond>
-0.96

>  <i_i_glide_confnum>
1

>  <i_i_glide_posenum>
9

>  <r_i_glide_eff_state_penalty>
0.1919

>  <i_glide_XP_PoseRank>
1

$$$$
