BACE_7.smi:1
 OpenBabel10031817133D
Structure written by MMmdl.
 99103  0  0  1  0  0  0  0  0999 V2000
   17.8666   38.1612   -7.0167 C   0  0  0  0  0  0  0  0  0  0  0  0
   17.9953   38.6696   -8.4614 C   0  0  2  0  0  0  0  0  0  0  0  0
   16.9902   37.9811   -9.4117 C   0  0  0  0  0  0  0  0  0  0  0  0
   15.5849   38.6125   -9.3541 C   0  0  0  0  0  0  0  0  0  0  0  0
   15.4838   39.9759  -10.0746 C   0  0  0  0  0  0  0  0  0  0  0  0
   14.3345   40.8375   -9.5232 C   0  0  0  0  0  0  0  0  0  0  0  0
   14.1687   42.2199  -10.1847 C   0  0  0  0  0  0  0  0  0  0  0  0
   15.3649   43.0777  -10.0372 N   0  0  0  0  0  0  0  0  0  0  0  0
   15.4911   43.8661   -8.9394 C   0  0  0  0  0  0  0  0  0  0  0  0
   14.5327   44.4353   -8.4132 O   0  0  0  0  0  0  0  0  0  0  0  0
   16.8669   44.0281   -8.3495 C   0  0  0  0  0  0  0  0  0  0  0  0
   17.3196   45.3009   -7.9438 C   0  0  0  0  0  0  0  0  0  0  0  0
   18.6144   45.4495   -7.4035 C   0  0  0  0  0  0  0  0  0  0  0  0
   19.4558   44.3320   -7.2556 C   0  0  0  0  0  0  0  0  0  0  0  0
   19.0171   43.0493   -7.6346 C   0  0  0  0  0  0  0  0  0  0  0  0
   17.7050   42.9022   -8.1524 C   0  0  0  0  0  0  0  0  0  0  0  0
   19.9288   41.8730   -7.4326 C   0  0  0  0  0  0  0  0  0  0  0  0
   20.7300   41.8387   -6.4983 O   0  0  0  0  0  0  0  0  0  0  0  0
   19.8387   40.9166   -8.3665 N   0  0  0  0  0  0  0  0  0  0  0  0
   20.4296   39.5793   -8.2930 C   0  0  1  0  0  0  0  0  0  0  0  0
   19.4555   38.5948   -8.9845 C   0  0  0  0  0  0  0  0  0  0  0  0
   21.8685   39.5156   -8.8856 C   0  0  1  0  0  0  0  0  0  0  0  0
   22.1464   40.4713  -10.0744 C   0  0  0  0  0  0  0  0  0  0  0  0
   23.5782   40.5547  -10.4400 N   0  3  0  0  0  0  0  0  0  0  0  0
   24.3367   41.6120   -9.7326 C   0  0  0  0  0  0  0  0  0  0  0  0
   25.5019   42.0960  -10.5670 C   0  0  0  0  0  0  0  0  0  0  0  0
   26.7347   41.4232  -10.5134 C   0  0  0  0  0  0  0  0  0  0  0  0
   27.8196   41.8805  -11.2804 C   0  0  0  0  0  0  0  0  0  0  0  0
   27.6781   43.0195  -12.0974 C   0  0  0  0  0  0  0  0  0  0  0  0
   26.4439   43.7064  -12.1677 C   0  0  0  0  0  0  0  0  0  0  0  0
   25.3567   43.2211  -11.4046 C   0  0  0  0  0  0  0  0  0  0  0  0
   26.2478   44.9424  -13.0495 C   0  0  0  0  0  0  0  0  0  0  0  0
   27.4988   45.3594  -13.8466 C   0  0  0  0  0  0  0  0  0  0  0  0
   25.7321   46.1441  -12.2371 C   0  0  0  0  0  0  0  0  0  0  0  0
   22.7982   39.7220   -7.8386 O   0  0  0  0  0  0  0  0  0  0  0  0
   19.1180   46.7402   -6.9912 C   0  0  0  0  0  0  0  0  0  0  0  0
   18.6941   47.5232   -5.9980 N   0  0  0  0  0  0  0  0  0  0  0  0
   19.6105   48.5641   -5.9746 C   0  0  0  0  0  0  0  0  0  0  0  0
   20.5234   48.3709   -6.9805 C   0  0  0  0  0  0  0  0  0  0  0  0
   20.2265   47.2111   -7.6285 O   0  0  0  0  0  0  0  0  0  0  0  0
   16.0556   43.4159  -11.3063 C   0  0  2  0  0  0  0  0  0  0  0  0
   17.5866   43.2026  -11.2948 C   0  0  0  0  0  0  0  0  0  0  0  0
   15.5930   44.7557  -11.9066 C   0  0  0  0  0  0  0  0  0  0  0  0
   16.5051   45.7966  -12.2061 C   0  0  0  0  0  0  0  0  0  0  0  0
   16.0614   46.9881  -12.8137 C   0  0  0  0  0  0  0  0  0  0  0  0
   14.7016   47.1580  -13.1318 C   0  0  0  0  0  0  0  0  0  0  0  0
   13.7792   46.1449  -12.8191 C   0  0  0  0  0  0  0  0  0  0  0  0
   14.2233   44.9533  -12.2059 C   0  0  0  0  0  0  0  0  0  0  0  0
   17.7012   39.7108   -8.4270 H   0  0  0  0  0  0  0  0  0  0  0  0
   20.4841   39.2792   -7.2467 H   0  0  0  0  0  0  0  0  0  0  0  0
   22.0582   38.4918   -9.2158 H   0  0  0  0  0  0  0  0  0  0  0  0
   15.7357   42.6813  -12.0399 H   0  0  0  0  0  0  0  0  0  0  0  0
   18.0598   37.0896   -6.9483 H   0  0  0  0  0  0  0  0  0  0  0  0
   16.8589   38.3368   -6.6352 H   0  0  0  0  0  0  0  0  0  0  0  0
   18.5407   38.6737   -6.3310 H   0  0  0  0  0  0  0  0  0  0  0  0
   17.3444   38.0260  -10.4401 H   0  0  0  0  0  0  0  0  0  0  0  0
   16.9287   36.9204   -9.1647 H   0  0  0  0  0  0  0  0  0  0  0  0
   14.8608   37.9291   -9.7967 H   0  0  0  0  0  0  0  0  0  0  0  0
   15.2842   38.7130   -8.3098 H   0  0  0  0  0  0  0  0  0  0  0  0
   16.4157   40.5278   -9.9763 H   0  0  0  0  0  0  0  0  0  0  0  0
   15.3509   39.8114  -11.1430 H   0  0  0  0  0  0  0  0  0  0  0  0
   13.4018   40.2830   -9.6393 H   0  0  0  0  0  0  0  0  0  0  0  0
   14.4645   40.9736   -8.4472 H   0  0  0  0  0  0  0  0  0  0  0  0
   13.8961   42.0689  -11.2270 H   0  0  0  0  0  0  0  0  0  0  0  0
   13.2936   42.7041   -9.7479 H   0  0  0  0  0  0  0  0  0  0  0  0
   16.6829   46.1645   -8.0632 H   0  0  0  0  0  0  0  0  0  0  0  0
   20.4447   44.4603   -6.8357 H   0  0  0  0  0  0  0  0  0  0  0  0
   17.3351   41.9223   -8.4066 H   0  0  0  0  0  0  0  0  0  0  0  0
   19.1606   41.0665   -9.0986 H   0  0  0  0  0  0  0  0  0  0  0  0
   19.8232   37.5719   -8.8877 H   0  0  0  0  0  0  0  0  0  0  0  0
   19.4594   38.8086  -10.0557 H   0  0  0  0  0  0  0  0  0  0  0  0
   21.6022   40.1052  -10.9455 H   0  0  0  0  0  0  0  0  0  0  0  0
   21.7722   41.4774   -9.8921 H   0  0  0  0  0  0  0  0  0  0  0  0
   24.0310   39.6584  -10.2811 H   0  0  0  0  0  0  0  0  0  0  0  0
   23.6976   42.4692   -9.5102 H   0  0  0  0  0  0  0  0  0  0  0  0
   24.7002   41.2410   -8.7735 H   0  0  0  0  0  0  0  0  0  0  0  0
   26.8628   40.5529   -9.8864 H   0  0  0  0  0  0  0  0  0  0  0  0
   28.7615   41.3538  -11.2426 H   0  0  0  0  0  0  0  0  0  0  0  0
   28.5387   43.3390  -12.6637 H   0  0  0  0  0  0  0  0  0  0  0  0
   24.4013   43.7213  -11.4578 H   0  0  0  0  0  0  0  0  0  0  0  0
   25.4766   44.6743  -13.7757 H   0  0  0  0  0  0  0  0  0  0  0  0
   27.8617   44.5502  -14.4792 H   0  0  0  0  0  0  0  0  0  0  0  0
   28.3095   45.6572  -13.1820 H   0  0  0  0  0  0  0  0  0  0  0  0
   27.2805   46.2079  -14.4961 H   0  0  0  0  0  0  0  0  0  0  0  0
   24.7656   45.9428  -11.7725 H   0  0  0  0  0  0  0  0  0  0  0  0
   25.6023   47.0212  -12.8724 H   0  0  0  0  0  0  0  0  0  0  0  0
   26.4316   46.4133  -11.4437 H   0  0  0  0  0  0  0  0  0  0  0  0
   23.5256   39.1261   -7.9545 H   0  0  0  0  0  0  0  0  0  0  0  0
   19.5563   49.3503   -5.2429 H   0  0  0  0  0  0  0  0  0  0  0  0
   21.3933   48.9135   -7.3236 H   0  0  0  0  0  0  0  0  0  0  0  0
   17.9909   43.2660  -12.3041 H   0  0  0  0  0  0  0  0  0  0  0  0
   17.8437   42.2146  -10.9129 H   0  0  0  0  0  0  0  0  0  0  0  0
   18.1117   43.9416  -10.6931 H   0  0  0  0  0  0  0  0  0  0  0  0
   17.5579   45.6986  -11.9897 H   0  0  0  0  0  0  0  0  0  0  0  0
   16.7709   47.7669  -13.0496 H   0  0  0  0  0  0  0  0  0  0  0  0
   14.3695   48.0661  -13.6157 H   0  0  0  0  0  0  0  0  0  0  0  0
   12.7361   46.2676  -13.0664 H   0  0  0  0  0  0  0  0  0  0  0  0
   13.5003   44.1810  -11.9923 H   0  0  0  0  0  0  0  0  0  0  0  0
   23.6489   40.7648  -11.4306 H   0  0  0  0  0  0  0  0  0  0  0  0
  1  2  1  0  0  0  0
  1 53  1  0  0  0  0
  1 54  1  0  0  0  0
  1 55  1  0  0  0  0
  2 49  1  1  0  0  0
  2 21  1  0  0  0  0
  2  3  1  0  0  0  0
  3  4  1  0  0  0  0
  3 56  1  0  0  0  0
  3 57  1  0  0  0  0
  4  5  1  0  0  0  0
  4 58  1  0  0  0  0
  4 59  1  0  0  0  0
  5  6  1  0  0  0  0
  5 60  1  0  0  0  0
  5 61  1  0  0  0  0
  6  7  1  0  0  0  0
  6 62  1  0  0  0  0
  6 63  1  0  0  0  0
  7  8  1  0  0  0  0
  7 64  1  0  0  0  0
  7 65  1  0  0  0  0
  8  9  1  0  0  0  0
  8 41  1  0  0  0  0
  9 10  2  0  0  0  0
  9 11  1  0  0  0  0
 11 16  1  0  0  0  0
 11 12  2  0  0  0  0
 12 13  1  0  0  0  0
 12 66  1  0  0  0  0
 13 14  2  0  0  0  0
 13 36  1  0  0  0  0
 14 15  1  0  0  0  0
 14 67  1  0  0  0  0
 15 16  2  0  0  0  0
 15 17  1  0  0  0  0
 16 68  1  0  0  0  0
 17 18  2  0  0  0  0
 17 19  1  0  0  0  0
 19 20  1  0  0  0  0
 19 69  1  0  0  0  0
 20 50  1  1  0  0  0
 20 21  1  0  0  0  0
 20 22  1  0  0  0  0
 21 70  1  0  0  0  0
 21 71  1  0  0  0  0
 22 51  1  6  0  0  0
 22 23  1  0  0  0  0
 22 35  1  0  0  0  0
 23 24  1  0  0  0  0
 23 72  1  0  0  0  0
 23 73  1  0  0  0  0
 24 25  1  0  0  0  0
 24 74  1  0  0  0  0
 24 99  1  0  0  0  0
 25 26  1  0  0  0  0
 25 75  1  0  0  0  0
 25 76  1  0  0  0  0
 26 31  1  0  0  0  0
 26 27  2  0  0  0  0
 27 28  1  0  0  0  0
 27 77  1  0  0  0  0
 28 29  2  0  0  0  0
 28 78  1  0  0  0  0
 29 30  1  0  0  0  0
 29 79  1  0  0  0  0
 30 31  2  0  0  0  0
 30 32  1  0  0  0  0
 31 80  1  0  0  0  0
 32 33  1  0  0  0  0
 32 34  1  0  0  0  0
 32 81  1  0  0  0  0
 33 82  1  0  0  0  0
 33 83  1  0  0  0  0
 33 84  1  0  0  0  0
 34 85  1  0  0  0  0
 34 86  1  0  0  0  0
 34 87  1  0  0  0  0
 35 88  1  0  0  0  0
 36 40  1  0  0  0  0
 36 37  2  0  0  0  0
 37 38  1  0  0  0  0
 38 39  2  0  0  0  0
 38 89  1  0  0  0  0
 39 40  1  0  0  0  0
 39 90  1  0  0  0  0
 41 52  1  6  0  0  0
 41 42  1  0  0  0  0
 41 43  1  0  0  0  0
 42 91  1  0  0  0  0
 42 92  1  0  0  0  0
 42 93  1  0  0  0  0
 43 48  1  0  0  0  0
 43 44  2  0  0  0  0
 44 45  1  0  0  0  0
 44 94  1  0  0  0  0
 45 46  2  0  0  0  0
 45 95  1  0  0  0  0
 46 47  1  0  0  0  0
 46 96  1  0  0  0  0
 47 48  2  0  0  0  0
 47 97  1  0  0  0  0
 48 98  1  0  0  0  0
M  CHG  1  24   1
M  END
>  <s_m_source_file>
BACE_7.smi

>  <i_m_source_file_index>
1

>  <i_lp_mmshare_version>
42013

>  <i_f3d_flags>
0

>  <s_epik_input>
W2NIXTFbY0hdW2NIXVtjSF1bY0hdYzFbQ0BASF0oW0NIM10pTihDMj1PKVtDSDJdW0NIMl1bQ0gyXVtDSDJdW0NIMl1bQ0BASF0oW0NIM10pW0NIMl1bQ0BIXShbTkhdQyg9TyljKFtjSF0zKVtjSF1jKFtjSF1jMjMpLWM0bltjSF1bY0hdbzQpW0NASF0oW09IXSlbQ0gyXVtOSF1bQ0gyXWM1W2NIXVtjSF1bY0hdYyhbY0hdNSlbQ0hdKFtDSDNdKVtDSDNd

>  <s_epik_cmdline>
J2VwaWtfcHl0aG9uJywgJy1waCcsICc3LjAnLCAnLXRuJywgJzgnLCAnLW1hJywgJzIwMCcsICctaW1hZScsICc8aW5maWxlLm1hZT4nLCAnLW9tYWUnLCAnPG91dGZpbGUubWFlPic=

>  <r_epik_Ionization_Penalty>
0.0165

>  <r_epik_Ionization_Penalty_Charging>
0.0165

>  <r_epik_Ionization_Penalty_Neutral>
0

>  <r_epik_State_Penalty>
0.013

>  <r_epik_Charging_Adjusted_Penalty>
0.0295552

>  <i_epik_Tot_Q>
1

>  <i_epik_Tot_abs_Q>
1

>  <s_lp_Force_Field>
OPLS_2005

>  <r_lp_Energy>
54.1327

>  <b_lp_Chiralities_Consistent>
1

>  <s_lp_Variant>
BACE_7.smi:1-1

>  <chiral flag>
1

>  <version>
0

>  <r_i_glide_lipo>
-0.655821

>  <r_i_glide_hbond>
-0.111534

>  <r_i_glide_metal>
-0

>  <r_i_glide_rewards>
0

>  <r_i_glide_erotb>
0.24809

>  <r_i_glide_esite>
-0.0271944

>  <s_i_glide_gridfile>
second_dock_grid_2

>  <i_i_glide_lignum>
14

>  <i_i_glide_rotatable_bonds>
10

>  <r_i_docking_score>
-2.425

>  <r_i_glide_ligand_efficiency>
-0.0505208

>  <r_i_glide_ligand_efficiency_sa>
-0.183605

>  <r_i_glide_ligand_efficiency_ln>
-0.497823

>  <r_glide_XP_GScore>
-2.438

>  <r_i_glide_gscore>
-2.438

>  <r_i_glide_evdw>
-50.2075

>  <r_i_glide_ecoul>
-11.4788

>  <r_i_glide_energy>
-61.6863

>  <r_i_glide_einternal>
6.14835

>  <r_i_glide_emodel>
-90.0892

>  <r_glide_XP_HBond>
-0.48

>  <i_i_glide_confnum>
1

>  <i_i_glide_posenum>
6

>  <r_i_glide_eff_state_penalty>
0.013

>  <i_glide_XP_PoseRank>
5

>  <chiral flag>
1

$$$$
