BACE_10.smi:1
 OpenBabel10031817133D
Structure written by MMmdl.
 86 88  0  0  1  0  0  0  0  0999 V2000
   20.8722   38.5990   -7.2491 C   0  0  0  0  0  0  0  0  0  0  0  0
   20.2094   39.4491   -8.3471 C   0  0  2  0  0  0  0  0  0  0  0  0
   19.4980   38.5464   -9.3876 C   0  0  0  0  0  0  0  0  0  0  0  0
   18.1714   37.9515   -8.8916 C   0  0  0  0  0  0  0  0  0  0  0  0
   17.3446   39.0386   -8.5140 O   0  0  0  0  0  0  0  0  0  0  0  0
   16.0139   38.6795   -8.1940 C   0  0  0  0  0  0  0  0  0  0  0  0
   15.4055   39.7931   -7.3313 C   0  0  0  0  0  0  0  0  0  0  0  0
   15.5777   41.2025   -7.9235 C   0  0  0  0  0  0  0  0  0  0  0  0
   14.9536   41.3534   -9.3182 C   0  0  0  0  0  0  0  0  0  0  0  0
   15.1462   42.6894   -9.8567 N   0  0  0  0  0  0  0  0  0  0  0  0
   16.2852   43.0556  -10.5913 C   0  0  0  0  0  0  0  0  0  0  0  0
   16.3032   44.3526  -11.1433 C   0  0  0  0  0  0  0  0  0  0  0  0
   17.3723   44.7762  -11.9541 C   0  0  0  0  0  0  0  0  0  0  0  0
   18.4416   43.8966  -12.2049 C   0  0  0  0  0  0  0  0  0  0  0  0
   18.4534   42.6007  -11.6503 C   0  0  0  0  0  0  0  0  0  0  0  0
   17.3799   42.1869  -10.8303 C   0  0  0  0  0  0  0  0  0  0  0  0
   19.5393   41.6472  -12.0551 C   0  0  0  0  0  0  0  0  0  0  0  0
   19.6608   41.3503  -13.2391 O   0  0  0  0  0  0  0  0  0  0  0  0
   20.3789   41.1352  -11.1417 N   0  0  0  0  0  0  0  0  0  0  0  0
   20.6634   41.6005   -9.7860 C   0  0  1  0  0  0  0  0  0  0  0  0
   21.2456   40.4199   -8.9595 C   0  0  0  0  0  0  0  0  0  0  0  0
   21.6465   42.8165   -9.8074 C   0  0  1  0  0  0  0  0  0  0  0  0
   22.7273   42.8387  -10.9215 C   0  0  0  0  0  0  0  0  0  0  0  0
   23.6963   41.7235  -10.8202 N   0  3  0  0  0  0  0  0  0  0  0  0
   24.7474   41.8327   -9.7803 C   0  0  0  0  0  0  0  0  0  0  0  0
   25.8446   42.8074  -10.1601 C   0  0  0  0  0  0  0  0  0  0  0  0
   25.7128   44.1822   -9.8646 C   0  0  0  0  0  0  0  0  0  0  0  0
   26.7269   45.0826  -10.2291 C   0  0  0  0  0  0  0  0  0  0  0  0
   27.8879   44.6155  -10.8710 C   0  0  0  0  0  0  0  0  0  0  0  0
   28.0494   43.2389  -11.1466 C   0  0  0  0  0  0  0  0  0  0  0  0
   27.0197   42.3399  -10.7885 C   0  0  0  0  0  0  0  0  0  0  0  0
   29.3538   42.7625  -11.7772 C   0  0  0  0  0  0  0  0  0  0  0  0
   29.1952   41.5510  -12.7143 C   0  0  0  0  0  0  0  0  0  0  0  0
   30.4083   42.5019  -10.6943 C   0  0  0  0  0  0  0  0  0  0  0  0
   20.8849   44.0020   -9.8974 O   0  0  0  0  0  0  0  0  0  0  0  0
   17.3773   46.1706  -12.5471 C   0  0  0  0  0  0  0  0  0  0  0  0
   16.0721   46.5967  -12.9170 O   0  0  0  0  0  0  0  0  0  0  0  0
   16.0706   47.8832  -13.5034 C   0  0  0  0  0  0  0  0  0  0  0  0
   19.4617   40.0714   -7.8505 H   0  0  0  0  0  0  0  0  0  0  0  0
   19.7382   41.9091   -9.2930 H   0  0  0  0  0  0  0  0  0  0  0  0
   22.1364   42.8962   -8.8362 H   0  0  0  0  0  0  0  0  0  0  0  0
   21.6543   37.9604   -7.6619 H   0  0  0  0  0  0  0  0  0  0  0  0
   20.1463   37.9658   -6.7390 H   0  0  0  0  0  0  0  0  0  0  0  0
   21.3320   39.2275   -6.4840 H   0  0  0  0  0  0  0  0  0  0  0  0
   19.2457   39.1098  -10.2804 H   0  0  0  0  0  0  0  0  0  0  0  0
   20.1686   37.7512   -9.7182 H   0  0  0  0  0  0  0  0  0  0  0  0
   17.7008   37.3775   -9.6939 H   0  0  0  0  0  0  0  0  0  0  0  0
   18.3238   37.2752   -8.0477 H   0  0  0  0  0  0  0  0  0  0  0  0
   15.4445   38.5233   -9.1097 H   0  0  0  0  0  0  0  0  0  0  0  0
   15.9849   37.7487   -7.6400 H   0  0  0  0  0  0  0  0  0  0  0  0
   14.3473   39.5849   -7.1609 H   0  0  0  0  0  0  0  0  0  0  0  0
   15.8705   39.7722   -6.3441 H   0  0  0  0  0  0  0  0  0  0  0  0
   15.1268   41.9208   -7.2403 H   0  0  0  0  0  0  0  0  0  0  0  0
   16.6373   41.4522   -7.9596 H   0  0  0  0  0  0  0  0  0  0  0  0
   15.3443   40.6114  -10.0110 H   0  0  0  0  0  0  0  0  0  0  0  0
   13.8813   41.1623   -9.2548 H   0  0  0  0  0  0  0  0  0  0  0  0
   14.4141   43.3645   -9.6920 H   0  0  0  0  0  0  0  0  0  0  0  0
   15.4800   45.0272  -10.9596 H   0  0  0  0  0  0  0  0  0  0  0  0
   19.2526   44.2183  -12.8375 H   0  0  0  0  0  0  0  0  0  0  0  0
   17.3922   41.1846  -10.4218 H   0  0  0  0  0  0  0  0  0  0  0  0
   20.9794   40.4050  -11.4927 H   0  0  0  0  0  0  0  0  0  0  0  0
   21.8028   40.8410   -8.1228 H   0  0  0  0  0  0  0  0  0  0  0  0
   21.9829   39.8563   -9.5328 H   0  0  0  0  0  0  0  0  0  0  0  0
   22.2573   42.7854  -11.9041 H   0  0  0  0  0  0  0  0  0  0  0  0
   23.2569   43.7905  -10.9248 H   0  0  0  0  0  0  0  0  0  0  0  0
   23.1725   40.8792  -10.6376 H   0  0  0  0  0  0  0  0  0  0  0  0
   24.3183   42.0999   -8.8131 H   0  0  0  0  0  0  0  0  0  0  0  0
   25.1889   40.8434   -9.6488 H   0  0  0  0  0  0  0  0  0  0  0  0
   24.8335   44.5512   -9.3571 H   0  0  0  0  0  0  0  0  0  0  0  0
   26.6215   46.1351  -10.0070 H   0  0  0  0  0  0  0  0  0  0  0  0
   28.6669   45.3168  -11.1332 H   0  0  0  0  0  0  0  0  0  0  0  0
   27.1324   41.2826  -10.9756 H   0  0  0  0  0  0  0  0  0  0  0  0
   29.7228   43.5786  -12.4009 H   0  0  0  0  0  0  0  0  0  0  0  0
   28.4601   41.7616  -13.4884 H   0  0  0  0  0  0  0  0  0  0  0  0
   28.8869   40.6495  -12.1843 H   0  0  0  0  0  0  0  0  0  0  0  0
   30.1341   41.3187  -13.2198 H   0  0  0  0  0  0  0  0  0  0  0  0
   30.6240   43.4079  -10.1287 H   0  0  0  0  0  0  0  0  0  0  0  0
   31.3447   42.1504  -11.1293 H   0  0  0  0  0  0  0  0  0  0  0  0
   30.0588   41.7531   -9.9857 H   0  0  0  0  0  0  0  0  0  0  0  0
   21.4040   44.7339   -9.5979 H   0  0  0  0  0  0  0  0  0  0  0  0
   17.7961   46.8573  -11.8105 H   0  0  0  0  0  0  0  0  0  0  0  0
   18.0314   46.1899  -13.4188 H   0  0  0  0  0  0  0  0  0  0  0  0
   15.0548   48.1612  -13.7837 H   0  0  0  0  0  0  0  0  0  0  0  0
   16.6870   47.9068  -14.4035 H   0  0  0  0  0  0  0  0  0  0  0  0
   16.4443   48.6339  -12.8038 H   0  0  0  0  0  0  0  0  0  0  0  0
   24.1357   41.5883  -11.7280 H   0  0  0  0  0  0  0  0  0  0  0  0
  1  2  1  0  0  0  0
  1 42  1  0  0  0  0
  1 43  1  0  0  0  0
  1 44  1  0  0  0  0
  2 39  1  1  0  0  0
  2 21  1  0  0  0  0
  2  3  1  0  0  0  0
  3  4  1  0  0  0  0
  3 45  1  0  0  0  0
  3 46  1  0  0  0  0
  4  5  1  0  0  0  0
  4 47  1  0  0  0  0
  4 48  1  0  0  0  0
  5  6  1  0  0  0  0
  6  7  1  0  0  0  0
  6 49  1  0  0  0  0
  6 50  1  0  0  0  0
  7  8  1  0  0  0  0
  7 51  1  0  0  0  0
  7 52  1  0  0  0  0
  8  9  1  0  0  0  0
  8 53  1  0  0  0  0
  8 54  1  0  0  0  0
  9 10  1  0  0  0  0
  9 55  1  0  0  0  0
  9 56  1  0  0  0  0
 10 11  1  0  0  0  0
 10 57  1  0  0  0  0
 11 16  1  0  0  0  0
 11 12  2  0  0  0  0
 12 13  1  0  0  0  0
 12 58  1  0  0  0  0
 13 14  2  0  0  0  0
 13 36  1  0  0  0  0
 14 15  1  0  0  0  0
 14 59  1  0  0  0  0
 15 16  2  0  0  0  0
 15 17  1  0  0  0  0
 16 60  1  0  0  0  0
 17 18  2  0  0  0  0
 17 19  1  0  0  0  0
 19 20  1  0  0  0  0
 19 61  1  0  0  0  0
 20 40  1  1  0  0  0
 20 21  1  0  0  0  0
 20 22  1  0  0  0  0
 21 62  1  0  0  0  0
 21 63  1  0  0  0  0
 22 41  1  1  0  0  0
 22 23  1  0  0  0  0
 22 35  1  0  0  0  0
 23 24  1  0  0  0  0
 23 64  1  0  0  0  0
 23 65  1  0  0  0  0
 24 25  1  0  0  0  0
 24 66  1  0  0  0  0
 24 86  1  0  0  0  0
 25 26  1  0  0  0  0
 25 67  1  0  0  0  0
 25 68  1  0  0  0  0
 26 31  1  0  0  0  0
 26 27  2  0  0  0  0
 27 28  1  0  0  0  0
 27 69  1  0  0  0  0
 28 29  2  0  0  0  0
 28 70  1  0  0  0  0
 29 30  1  0  0  0  0
 29 71  1  0  0  0  0
 30 31  2  0  0  0  0
 30 32  1  0  0  0  0
 31 72  1  0  0  0  0
 32 33  1  0  0  0  0
 32 34  1  0  0  0  0
 32 73  1  0  0  0  0
 33 74  1  0  0  0  0
 33 75  1  0  0  0  0
 33 76  1  0  0  0  0
 34 77  1  0  0  0  0
 34 78  1  0  0  0  0
 34 79  1  0  0  0  0
 35 80  1  0  0  0  0
 36 37  1  0  0  0  0
 36 81  1  0  0  0  0
 36 82  1  0  0  0  0
 37 38  1  0  0  0  0
 38 83  1  0  0  0  0
 38 84  1  0  0  0  0
 38 85  1  0  0  0  0
M  CHG  1  24   1
M  END
>  <s_m_source_file>
BACE_10.smi

>  <i_m_source_file_index>
1

>  <i_lp_mmshare_version>
42013

>  <i_f3d_flags>
0

>  <s_epik_input>
W05IXTFbQ0gyXVtDSDJdW0NIMl1bQ0gyXU9bQ0gyXVtDSDJdW0NAQEhdKFtDSDNdKVtDSDJdW0NASF0oW05IXUMoPU8pYyhbY0hdMilbY0hdYyhbY0hdYzEyKVtDSDJdT1tDSDNdKVtDQEhdKFtPSF0pW0NIMl1bTkhdW0NIMl1jM1tjSF1bY0hdW2NIXWMoW2NIXTMpW0NIXShbQ0gzXSlbQ0gzXQ==

>  <s_epik_cmdline>
J2VwaWtfcHl0aG9uJywgJy1waCcsICc3LjAnLCAnLXRuJywgJzgnLCAnLW1hJywgJzIwMCcsICctaW1hZScsICc8aW5maWxlLm1hZT4nLCAnLW9tYWUnLCAnPG91dGZpbGUubWFlPic=

>  <r_epik_Ionization_Penalty>
0.0171

>  <r_epik_Ionization_Penalty_Charging>
0.0167

>  <r_epik_Ionization_Penalty_Neutral>
0.0004

>  <r_epik_State_Penalty>
0.0132

>  <r_epik_Charging_Adjusted_Penalty>
0.0299522

>  <i_epik_Tot_Q>
1

>  <i_epik_Tot_abs_Q>
1

>  <s_lp_Force_Field>
OPLS_2005

>  <r_lp_Energy>
35.5902

>  <b_lp_Chiralities_Consistent>
1

>  <s_lp_Variant>
BACE_10.smi:1-1

>  <chiral flag>
1

>  <version>
0

>  <r_i_glide_lipo>
-0.737388

>  <r_i_glide_hbond>
-0.0549666

>  <r_i_glide_metal>
-0

>  <r_i_glide_rewards>
0

>  <r_i_glide_erotb>
0.445295

>  <r_i_glide_esite>
-0.000706045

>  <s_i_glide_gridfile>
second_dock_grid_2

>  <i_i_glide_lignum>
20

>  <i_i_glide_rotatable_bonds>
9

>  <r_i_docking_score>
-3.74629

>  <r_i_glide_ligand_efficiency>
-0.0985866

>  <r_i_glide_ligand_efficiency_sa>
-0.331446

>  <r_i_glide_ligand_efficiency_ln>
-0.807811

>  <r_glide_XP_GScore>
-3.75949

>  <r_i_glide_gscore>
-3.75949

>  <r_i_glide_evdw>
-38.4642

>  <r_i_glide_ecoul>
-11.7704

>  <r_i_glide_energy>
-50.2346

>  <r_i_glide_einternal>
4.50035

>  <r_i_glide_emodel>
-66.3817

>  <r_glide_XP_HBond>
-0.7

>  <i_i_glide_confnum>
1

>  <i_i_glide_posenum>
5

>  <r_i_glide_eff_state_penalty>
0.0132

>  <i_glide_XP_PoseRank>
2

>  <chiral flag>
1

$$$$
