BACE_19.smi:1
 OpenBabel10031817133D
Structure written by MMmdl.
 76 77  0  0  1  0  0  0  0  0999 V2000
   22.0984   42.5522   -3.1788 C   0  0  0  0  0  0  0  0  0  0  0  0
   22.9284   41.6914   -4.1375 C   0  0  0  0  0  0  0  0  0  0  0  0
   22.1729   40.4513   -4.6467 C   0  0  0  0  0  0  0  0  0  0  0  0
   21.5108   40.6349   -6.0211 C   0  0  0  0  0  0  0  0  0  0  0  0
   22.5064   40.7438   -7.0888 N   0  0  0  0  0  0  0  0  0  0  0  0
   22.8605   41.8831   -7.7068 C   0  0  0  0  0  0  0  0  0  0  0  0
   22.3499   42.9706   -7.4378 O   0  0  0  0  0  0  0  0  0  0  0  0
   23.9767   41.7873   -8.7656 C   0  0  2  0  0  0  0  0  0  0  0  0
   24.8471   43.0604   -8.7528 C   0  0  0  0  0  0  0  0  0  0  0  0
   23.5287   41.4101  -10.2124 C   0  0  0  0  0  0  0  0  0  0  0  0
   22.1368   41.8381  -10.7597 C   0  0  1  0  0  0  0  0  0  0  0  0
   20.9094   41.0379  -10.2250 C   0  0  2  0  0  0  0  0  0  0  0  0
   21.0001   39.5137  -10.5344 C   0  0  0  0  0  0  0  0  0  0  0  0
   19.8689   38.5914  -10.0208 C   0  0  1  0  0  0  0  0  0  0  0  0
   19.6380   38.6966   -8.4919 C   0  0  0  0  0  0  0  0  0  0  0  0
   18.4296   37.9280   -7.9058 C   0  0  0  0  0  0  0  0  0  0  0  0
   17.0854   38.5521   -8.2445 C   0  0  0  0  0  0  0  0  0  0  0  0
   16.0739   37.7698   -8.8374 C   0  0  0  0  0  0  0  0  0  0  0  0
   14.8600   38.3647   -9.2234 C   0  0  0  0  0  0  0  0  0  0  0  0
   14.6636   39.7463   -9.0569 C   0  0  0  0  0  0  0  0  0  0  0  0
   15.6702   40.5367   -8.4644 C   0  0  0  0  0  0  0  0  0  0  0  0
   16.8603   39.9272   -8.0198 C   0  0  0  0  0  0  0  0  0  0  0  0
   15.4653   42.0303   -8.2952 C   0  0  0  0  0  0  0  0  0  0  0  0
   16.7159   43.0304   -9.2310 S   0  0  0  0  0  0  0  0  0  0  0  0
   16.2047   44.4060   -9.3376 O   0  0  0  0  0  0  0  0  0  0  0  0
   18.0451   42.8028   -8.6465 O   0  0  0  0  0  0  0  0  0  0  0  0
   16.6951   42.2815  -10.9313 C   0  0  0  0  0  0  0  0  0  0  0  0
   17.8419   42.7382  -11.8831 C   0  0  2  0  0  0  0  0  0  0  0  0
   19.1274   41.8887  -11.8084 C   0  0  0  0  0  0  0  0  0  0  0  0
   19.6485   41.4643  -12.8404 O   0  0  0  0  0  0  0  0  0  0  0  0
   19.6369   41.6666  -10.5906 N   0  0  0  0  0  0  0  0  0  0  0  0
   18.1704   44.2401  -11.8335 C   0  0  0  0  0  0  0  0  0  0  0  0
   18.6107   38.7308  -10.8765 C   0  0  0  0  0  0  0  0  0  0  0  0
   21.9729   43.2332  -10.5847 O   0  0  0  0  0  0  0  0  0  0  0  0
   24.6383   40.9839   -8.4395 H   0  0  0  0  0  0  0  0  0  0  0  0
   22.1696   41.6800  -11.8389 H   0  0  0  0  0  0  0  0  0  0  0  0
   20.8845   41.1428   -9.1505 H   0  0  0  0  0  0  0  0  0  0  0  0
   20.2168   37.5755  -10.2004 H   0  0  0  0  0  0  0  0  0  0  0  0
   17.4651   42.5509  -12.8884 H   0  0  0  0  0  0  0  0  0  0  0  0
   22.6721   43.4124   -2.8340 H   0  0  0  0  0  0  0  0  0  0  0  0
   21.7927   41.9842   -2.3000 H   0  0  0  0  0  0  0  0  0  0  0  0
   21.1983   42.9277   -3.6651 H   0  0  0  0  0  0  0  0  0  0  0  0
   23.2729   42.3115   -4.9606 H   0  0  0  0  0  0  0  0  0  0  0  0
   23.8355   41.3601   -3.6399 H   0  0  0  0  0  0  0  0  0  0  0  0
   22.8600   39.6077   -4.7021 H   0  0  0  0  0  0  0  0  0  0  0  0
   21.4187   40.1541   -3.9163 H   0  0  0  0  0  0  0  0  0  0  0  0
   20.8931   39.7601   -6.2189 H   0  0  0  0  0  0  0  0  0  0  0  0
   20.8256   41.4856   -6.0111 H   0  0  0  0  0  0  0  0  0  0  0  0
   22.9662   39.8914   -7.3715 H   0  0  0  0  0  0  0  0  0  0  0  0
   25.1642   43.3182   -7.7413 H   0  0  0  0  0  0  0  0  0  0  0  0
   24.3111   43.9164   -9.1620 H   0  0  0  0  0  0  0  0  0  0  0  0
   25.7507   42.9214   -9.3465 H   0  0  0  0  0  0  0  0  0  0  0  0
   24.2727   41.8177  -10.8975 H   0  0  0  0  0  0  0  0  0  0  0  0
   23.6547   40.3371  -10.3416 H   0  0  0  0  0  0  0  0  0  0  0  0
   21.1235   39.3706  -11.6081 H   0  0  0  0  0  0  0  0  0  0  0  0
   21.9158   39.1249  -10.0945 H   0  0  0  0  0  0  0  0  0  0  0  0
   20.5381   38.3170   -8.0079 H   0  0  0  0  0  0  0  0  0  0  0  0
   19.5644   39.7366   -8.1869 H   0  0  0  0  0  0  0  0  0  0  0  0
   18.4524   36.8933   -8.2440 H   0  0  0  0  0  0  0  0  0  0  0  0
   18.5067   37.8985   -6.8185 H   0  0  0  0  0  0  0  0  0  0  0  0
   16.2236   36.7123   -8.9889 H   0  0  0  0  0  0  0  0  0  0  0  0
   14.0690   37.7607   -9.6399 H   0  0  0  0  0  0  0  0  0  0  0  0
   13.7256   40.1856   -9.3660 H   0  0  0  0  0  0  0  0  0  0  0  0
   17.6152   40.5274   -7.5343 H   0  0  0  0  0  0  0  0  0  0  0  0
   14.4676   42.3229   -8.6187 H   0  0  0  0  0  0  0  0  0  0  0  0
   15.5554   42.2788   -7.2400 H   0  0  0  0  0  0  0  0  0  0  0  0
   16.6922   41.2013  -10.8308 H   0  0  0  0  0  0  0  0  0  0  0  0
   15.7271   42.5393  -11.3547 H   0  0  0  0  0  0  0  0  0  0  0  0
   19.1277   42.0770   -9.8114 H   0  0  0  0  0  0  0  0  0  0  0  0
   18.8769   44.5136  -12.6177 H   0  0  0  0  0  0  0  0  0  0  0  0
   18.6191   44.5257  -10.8807 H   0  0  0  0  0  0  0  0  0  0  0  0
   17.2753   44.8441  -11.9780 H   0  0  0  0  0  0  0  0  0  0  0  0
   17.9858   39.5454  -10.5354 H   0  0  0  0  0  0  0  0  0  0  0  0
   18.0176   37.8202  -10.8396 H   0  0  0  0  0  0  0  0  0  0  0  0
   18.8543   38.9364  -11.9173 H   0  0  0  0  0  0  0  0  0  0  0  0
   22.7325   43.6690  -10.9388 H   0  0  0  0  0  0  0  0  0  0  0  0
  1  2  1  0  0  0  0
  1 40  1  0  0  0  0
  1 41  1  0  0  0  0
  1 42  1  0  0  0  0
  2  3  1  0  0  0  0
  2 43  1  0  0  0  0
  2 44  1  0  0  0  0
  3  4  1  0  0  0  0
  3 45  1  0  0  0  0
  3 46  1  0  0  0  0
  4  5  1  0  0  0  0
  4 47  1  0  0  0  0
  4 48  1  0  0  0  0
  5  6  1  0  0  0  0
  5 49  1  0  0  0  0
  6  7  2  0  0  0  0
  6  8  1  0  0  0  0
  8 35  1  1  0  0  0
  8  9  1  0  0  0  0
  8 10  1  0  0  0  0
  9 50  1  0  0  0  0
  9 51  1  0  0  0  0
  9 52  1  0  0  0  0
 10 11  1  0  0  0  0
 10 53  1  0  0  0  0
 10 54  1  0  0  0  0
 11 36  1  6  0  0  0
 11 12  1  0  0  0  0
 11 34  1  0  0  0  0
 12 37  1  1  0  0  0
 12 31  1  0  0  0  0
 12 13  1  0  0  0  0
 13 14  1  0  0  0  0
 13 55  1  0  0  0  0
 13 56  1  0  0  0  0
 14 38  1  6  0  0  0
 14 15  1  0  0  0  0
 14 33  1  0  0  0  0
 15 16  1  0  0  0  0
 15 57  1  0  0  0  0
 15 58  1  0  0  0  0
 16 17  1  0  0  0  0
 16 59  1  0  0  0  0
 16 60  1  0  0  0  0
 17 22  1  0  0  0  0
 17 18  2  0  0  0  0
 18 19  1  0  0  0  0
 18 61  1  0  0  0  0
 19 20  2  0  0  0  0
 19 62  1  0  0  0  0
 20 21  1  0  0  0  0
 20 63  1  0  0  0  0
 21 22  2  0  0  0  0
 21 23  1  0  0  0  0
 22 64  1  0  0  0  0
 23 24  1  0  0  0  0
 23 65  1  0  0  0  0
 23 66  1  0  0  0  0
 24 25  2  0  0  0  0
 24 26  2  0  0  0  0
 24 27  1  0  0  0  0
 27 28  1  0  0  0  0
 27 67  1  0  0  0  0
 27 68  1  0  0  0  0
 28 39  1  6  0  0  0
 28 29  1  0  0  0  0
 28 32  1  0  0  0  0
 29 30  2  0  0  0  0
 29 31  1  0  0  0  0
 31 69  1  0  0  0  0
 32 70  1  0  0  0  0
 32 71  1  0  0  0  0
 32 72  1  0  0  0  0
 33 73  1  0  0  0  0
 33 74  1  0  0  0  0
 33 75  1  0  0  0  0
 34 76  1  0  0  0  0
M  END
>  <s_m_source_file>
BACE_19.smi

>  <i_m_source_file_index>
1

>  <i_lp_mmshare_version>
42013

>  <i_f3d_flags>
0

>  <s_epik_input>
W0NIM11bQ0gyXVtDSDJdW0NIMl1bTkhdQyg9TylbQ0BIXShbQ0gzXSlbQ0gyXVtDQEhdKFtPSF0pW0NASF0oW0NIMl1bQ0BIXShbQ0gzXSlbQ0gyXVtDSDJdMSlbTkhdQyg9TylbQ0BIXShbQ0gzXSlbQ0gyXVMoPU8pKD1PKVtDSDJdYyhbY0hdMilbY0hdW2NIXVtjSF1jMTI=

>  <s_epik_cmdline>
J2VwaWtfcHl0aG9uJywgJy1waCcsICc3LjAnLCAnLXRuJywgJzgnLCAnLW1hJywgJzIwMCcsICctaW1hZScsICc8aW5maWxlLm1hZT4nLCAnLW9tYWUnLCAnPG91dGZpbGUubWFlPic=

>  <r_lp_tautomer_probability>
1

>  <r_epik_Ionization_Penalty>
0

>  <r_epik_Ionization_Penalty_Charging>
0

>  <r_epik_Ionization_Penalty_Neutral>
0

>  <r_epik_State_Penalty>
-0

>  <r_epik_Charging_Adjusted_Penalty>
0

>  <i_epik_Tot_Q>
0

>  <i_epik_Tot_abs_Q>
0

>  <s_lp_Force_Field>
OPLS_2005

>  <r_lp_Energy>
20.3216

>  <b_lp_Chiralities_Consistent>
1

>  <s_lp_Variant>
BACE_19.smi:1-1

>  <chiral flag>
1

>  <version>
0

>  <r_i_glide_lipo>
-1.11123

>  <r_i_glide_hbond>
-0.357278

>  <r_i_glide_metal>
-0

>  <r_i_glide_rewards>
-0.0961787

>  <r_i_glide_erotb>
0.582966

>  <r_i_glide_esite>
-0.165645

>  <s_i_glide_gridfile>
second_dock_grid_2

>  <i_i_glide_lignum>
36

>  <i_i_glide_rotatable_bonds>
9

>  <r_i_docking_score>
-2.84772

>  <r_i_glide_ligand_efficiency>
-0.0837564

>  <r_i_glide_ligand_efficiency_sa>
-0.271338

>  <r_i_glide_ligand_efficiency_ln>
-0.629141

>  <r_glide_XP_GScore>
-2.84772

>  <r_i_glide_gscore>
-2.84772

>  <r_i_glide_evdw>
-41.3952

>  <r_i_glide_ecoul>
-3.69497

>  <r_i_glide_energy>
-45.0902

>  <r_i_glide_einternal>
2.71101

>  <r_i_glide_emodel>
-59.4246

>  <r_glide_XP_HBond>
-0.585493

>  <i_i_glide_confnum>
1

>  <i_i_glide_posenum>
32

>  <r_i_glide_eff_state_penalty>
-0

>  <i_glide_XP_PoseRank>
9

>  <chiral flag>
1

$$$$
