BACE_3.smi:1
 OpenBabel10031817133D
Structure written by MMmdl.
 85 86  0  0  1  0  0  0  0  0999 V2000
   21.9125   39.5046   -8.7384 C   0  0  0  0  0  0  0  0  0  0  0  0
   22.8224   40.5727   -8.6822 C   0  0  0  0  0  0  0  0  0  0  0  0
   22.8732   41.3852   -7.5342 C   0  0  0  0  0  0  0  0  0  0  0  0
   22.0369   41.1250   -6.4240 C   0  0  0  0  0  0  0  0  0  0  0  0
   22.1627   41.9650   -5.1586 C   0  0  0  0  0  0  0  0  0  0  0  0
   20.8554   42.6992   -4.8167 C   0  0  0  0  0  0  0  0  0  0  0  0
   22.6563   41.1201   -3.9693 C   0  0  0  0  0  0  0  0  0  0  0  0
   21.1047   40.0668   -6.5044 C   0  0  0  0  0  0  0  0  0  0  0  0
   21.0379   39.2630   -7.6628 C   0  0  0  0  0  0  0  0  0  0  0  0
   20.0177   38.1537   -7.7642 C   0  0  0  0  0  0  0  0  0  0  0  0
   18.7731   38.6426   -8.3361 N   0  0  0  0  0  0  0  0  0  0  0  0
   17.5658   38.0556   -7.7512 C   0  0  0  0  0  0  0  0  0  0  0  0
   16.2773   38.4091   -8.5396 C   0  0  0  0  0  0  0  0  0  0  0  0
   15.2374   38.1500   -7.6405 O   0  0  0  0  0  0  0  0  0  0  0  0
   16.2190   37.5285   -9.6390 O   0  0  0  0  0  0  0  0  0  0  0  0
   16.1299   39.8919   -9.0162 C   0  0  1  0  0  0  0  0  0  0  0  0
   16.9521   40.1599  -10.2047 N   0  0  0  0  0  0  0  0  0  0  0  0
   17.9790   41.0239  -10.2680 C   0  0  0  0  0  0  0  0  0  0  0  0
   18.3984   41.6335   -9.2809 O   0  0  0  0  0  0  0  0  0  0  0  0
   18.6139   41.2372  -11.6543 C   0  0  2  0  0  0  0  0  0  0  0  0
   19.7261   40.1867  -11.8731 C   0  0  0  0  0  0  0  0  0  0  0  0
   14.6590   40.3000   -9.3300 C   0  0  0  0  0  0  0  0  0  0  0  0
   14.3418   41.7998   -9.5622 C   0  0  2  0  0  0  0  0  0  0  0  0
   14.8506   42.3246  -10.9084 C   0  0  0  0  0  0  0  0  0  0  0  0
   14.7133   42.6677   -8.3356 C   0  0  0  0  0  0  0  0  0  0  0  0
   14.6400   44.1951   -8.5245 C   0  0  0  0  0  0  0  0  0  0  0  0
   16.0548   44.7761   -8.6737 C   0  0  0  0  0  0  0  0  0  0  0  0
   16.0744   46.2260   -9.1580 C   0  0  0  0  0  0  0  0  0  0  0  0
   17.4930   46.8249   -9.2317 C   0  0  0  0  0  0  0  0  0  0  0  0
   18.4642   46.0411  -10.1371 C   0  0  0  0  0  0  0  0  0  0  0  0
   18.0577   46.0348  -11.6207 C   0  0  0  0  0  0  0  0  0  0  0  0
   18.8630   45.0426  -12.4761 C   0  0  0  0  0  0  0  0  0  0  0  0
   18.3695   43.5907  -12.3585 C   0  0  0  0  0  0  0  0  0  0  0  0
   17.2607   43.3534  -12.8433 O   0  0  0  0  0  0  0  0  0  0  0  0
   19.1372   42.6239  -11.7823 N   0  0  0  0  0  0  0  0  0  0  0  0
   20.4598   42.9210  -11.2027 C   0  0  0  0  0  0  0  0  0  0  0  0
   16.4670   40.4854   -8.1706 H   0  0  0  0  0  0  0  0  0  0  0  0
   17.8550   41.0379  -12.4143 H   0  0  0  0  0  0  0  0  0  0  0  0
   13.2563   41.8445   -9.6511 H   0  0  0  0  0  0  0  0  0  0  0  0
   21.8871   38.8747   -9.6149 H   0  0  0  0  0  0  0  0  0  0  0  0
   23.4786   40.7609   -9.5185 H   0  0  0  0  0  0  0  0  0  0  0  0
   23.5879   42.1906   -7.4980 H   0  0  0  0  0  0  0  0  0  0  0  0
   22.9160   42.7353   -5.3423 H   0  0  0  0  0  0  0  0  0  0  0  0
   20.5300   43.3200   -5.6504 H   0  0  0  0  0  0  0  0  0  0  0  0
   20.9798   43.3442   -3.9459 H   0  0  0  0  0  0  0  0  0  0  0  0
   20.0619   41.9899   -4.5942 H   0  0  0  0  0  0  0  0  0  0  0  0
   23.6130   40.6418   -4.1963 H   0  0  0  0  0  0  0  0  0  0  0  0
   21.9467   40.3307   -3.7088 H   0  0  0  0  0  0  0  0  0  0  0  0
   22.8010   41.7410   -3.0855 H   0  0  0  0  0  0  0  0  0  0  0  0
   20.4456   39.8684   -5.6726 H   0  0  0  0  0  0  0  0  0  0  0  0
   19.8514   37.7511   -6.7630 H   0  0  0  0  0  0  0  0  0  0  0  0
   20.4094   37.3507   -8.3913 H   0  0  0  0  0  0  0  0  0  0  0  0
   18.7272   39.6594   -8.2329 H   0  0  0  0  0  0  0  0  0  0  0  0
   17.4708   38.3954   -6.7147 H   0  0  0  0  0  0  0  0  0  0  0  0
   17.6700   36.9675   -7.7018 H   0  0  0  0  0  0  0  0  0  0  0  0
   15.5222   37.4764   -7.0145 H   0  0  0  0  0  0  0  0  0  0  0  0
   17.0577   37.5641  -10.0714 H   0  0  0  0  0  0  0  0  0  0  0  0
   16.6945   39.6789  -11.0503 H   0  0  0  0  0  0  0  0  0  0  0  0
   19.2874   39.2033  -12.0430 H   0  0  0  0  0  0  0  0  0  0  0  0
   20.3883   40.0882  -11.0140 H   0  0  0  0  0  0  0  0  0  0  0  0
   20.3361   40.4188  -12.7483 H   0  0  0  0  0  0  0  0  0  0  0  0
   14.2821   39.7077  -10.1687 H   0  0  0  0  0  0  0  0  0  0  0  0
   14.0280   40.0194   -8.4870 H   0  0  0  0  0  0  0  0  0  0  0  0
   14.2525   43.1633  -11.2596 H   0  0  0  0  0  0  0  0  0  0  0  0
   14.8047   41.5409  -11.6606 H   0  0  0  0  0  0  0  0  0  0  0  0
   15.8779   42.6618  -10.8359 H   0  0  0  0  0  0  0  0  0  0  0  0
   14.0599   42.3851   -7.5162 H   0  0  0  0  0  0  0  0  0  0  0  0
   15.7072   42.4237   -7.9664 H   0  0  0  0  0  0  0  0  0  0  0  0
   14.1742   44.6637   -7.6570 H   0  0  0  0  0  0  0  0  0  0  0  0
   14.0087   44.4503   -9.3736 H   0  0  0  0  0  0  0  0  0  0  0  0
   16.5877   44.7032   -7.7219 H   0  0  0  0  0  0  0  0  0  0  0  0
   16.6130   44.1573   -9.3783 H   0  0  0  0  0  0  0  0  0  0  0  0
   15.4614   46.8258   -8.4896 H   0  0  0  0  0  0  0  0  0  0  0  0
   15.5879   46.2878  -10.1308 H   0  0  0  0  0  0  0  0  0  0  0  0
   17.4235   47.8546   -9.5803 H   0  0  0  0  0  0  0  0  0  0  0  0
   17.9074   46.8766   -8.2255 H   0  0  0  0  0  0  0  0  0  0  0  0
   18.5788   45.0253   -9.7648 H   0  0  0  0  0  0  0  0  0  0  0  0
   19.4551   46.4855  -10.0563 H   0  0  0  0  0  0  0  0  0  0  0  0
   16.9992   45.8017  -11.7292 H   0  0  0  0  0  0  0  0  0  0  0  0
   18.1785   47.0436  -12.0180 H   0  0  0  0  0  0  0  0  0  0  0  0
   19.9303   45.1626  -12.3074 H   0  0  0  0  0  0  0  0  0  0  0  0
   18.7150   45.3202  -13.5204 H   0  0  0  0  0  0  0  0  0  0  0  0
   20.7898   42.1614  -10.4933 H   0  0  0  0  0  0  0  0  0  0  0  0
   20.4752   43.8500  -10.6342 H   0  0  0  0  0  0  0  0  0  0  0  0
   21.2153   42.9795  -11.9815 H   0  0  0  0  0  0  0  0  0  0  0  0
  1  9  1  0  0  0  0
  1  2  2  0  0  0  0
  1 40  1  0  0  0  0
  2  3  1  0  0  0  0
  2 41  1  0  0  0  0
  3  4  2  0  0  0  0
  3 42  1  0  0  0  0
  4  5  1  0  0  0  0
  4  8  1  0  0  0  0
  5  6  1  0  0  0  0
  5  7  1  0  0  0  0
  5 43  1  0  0  0  0
  6 44  1  0  0  0  0
  6 45  1  0  0  0  0
  6 46  1  0  0  0  0
  7 47  1  0  0  0  0
  7 48  1  0  0  0  0
  7 49  1  0  0  0  0
  8  9  2  0  0  0  0
  8 50  1  0  0  0  0
  9 10  1  0  0  0  0
 10 11  1  0  0  0  0
 10 51  1  0  0  0  0
 10 52  1  0  0  0  0
 11 12  1  0  0  0  0
 11 53  1  0  0  0  0
 12 13  1  0  0  0  0
 12 54  1  0  0  0  0
 12 55  1  0  0  0  0
 13 14  1  0  0  0  0
 13 15  1  0  0  0  0
 13 16  1  0  0  0  0
 14 56  1  0  0  0  0
 15 57  1  0  0  0  0
 16 37  1  1  0  0  0
 16 17  1  0  0  0  0
 16 22  1  0  0  0  0
 17 18  1  0  0  0  0
 17 58  1  0  0  0  0
 18 19  2  0  0  0  0
 18 20  1  0  0  0  0
 20 38  1  6  0  0  0
 20 35  1  0  0  0  0
 20 21  1  0  0  0  0
 21 59  1  0  0  0  0
 21 60  1  0  0  0  0
 21 61  1  0  0  0  0
 22 23  1  0  0  0  0
 22 62  1  0  0  0  0
 22 63  1  0  0  0  0
 23 39  1  6  0  0  0
 23 24  1  0  0  0  0
 23 25  1  0  0  0  0
 24 64  1  0  0  0  0
 24 65  1  0  0  0  0
 24 66  1  0  0  0  0
 25 26  1  0  0  0  0
 25 67  1  0  0  0  0
 25 68  1  0  0  0  0
 26 27  1  0  0  0  0
 26 69  1  0  0  0  0
 26 70  1  0  0  0  0
 27 28  1  0  0  0  0
 27 71  1  0  0  0  0
 27 72  1  0  0  0  0
 28 29  1  0  0  0  0
 28 73  1  0  0  0  0
 28 74  1  0  0  0  0
 29 30  1  0  0  0  0
 29 75  1  0  0  0  0
 29 76  1  0  0  0  0
 30 31  1  0  0  0  0
 30 77  1  0  0  0  0
 30 78  1  0  0  0  0
 31 32  1  0  0  0  0
 31 79  1  0  0  0  0
 31 80  1  0  0  0  0
 32 33  1  0  0  0  0
 32 81  1  0  0  0  0
 32 82  1  0  0  0  0
 33 34  2  0  0  0  0
 33 35  1  0  0  0  0
 35 36  1  0  0  0  0
 36 83  1  0  0  0  0
 36 84  1  0  0  0  0
 36 85  1  0  0  0  0
M  END
>  <s_m_source_file>
BACE_3.smi

>  <i_m_source_file_index>
1

>  <i_lp_mmshare_version>
42013

>  <i_f3d_flags>
0

>  <s_epik_input>
W0NIM11bQ0hdKFtDSDNdKWMxW2NIXVtjSF1bY0hdYyhbY0hdMSlbQ0gyXVtOSF1bQ0gyXUMoW09IXSkoW09IXSlbQ0BIXTJbTkhdQyg9TylbQ0BIXShbQ0gzXSlOKFtDSDNdKUMoPU8pW0NIMl1bQ0gyXVtDSDJdW0NIMl1bQ0gyXVtDSDJdW0NIMl1bQ0gyXVtDQEhdKFtDSDJdMilbQ0gzXQ==

>  <s_epik_cmdline>
J2VwaWtfcHl0aG9uJywgJy1waCcsICc3LjAnLCAnLXRuJywgJzgnLCAnLW1hJywgJzIwMCcsICctaW1hZScsICc8aW5maWxlLm1hZT4nLCAnLW9tYWUnLCAnPG91dGZpbGUubWFlPic=

>  <r_epik_Ionization_Penalty>
2.074

>  <r_epik_Ionization_Penalty_Charging>
0

>  <r_epik_Ionization_Penalty_Neutral>
2.074

>  <r_epik_State_Penalty>
2.2081

>  <r_epik_Charging_Adjusted_Penalty>
2.20813

>  <i_epik_Tot_Q>
0

>  <i_epik_Tot_abs_Q>
0

>  <s_lp_Force_Field>
OPLS_2005

>  <r_lp_Energy>
49.929

>  <b_lp_Chiralities_Consistent>
1

>  <s_lp_Variant>
BACE_3.smi:1-2

>  <chiral flag>
1

>  <version>
0

>  <r_i_glide_lipo>
-0.428916

>  <r_i_glide_hbond>
-0.0522614

>  <r_i_glide_metal>
-0

>  <r_i_glide_rewards>
-0.0327321

>  <r_i_glide_erotb>
0.402825

>  <r_i_glide_esite>
-0.0410514

>  <s_i_glide_gridfile>
second_dock_grid_2

>  <i_i_glide_lignum>
5

>  <i_i_glide_rotatable_bonds>
8

>  <r_i_docking_score>
-1.67207

>  <r_i_glide_ligand_efficiency>
-0.0464463

>  <r_i_glide_ligand_efficiency_sa>
-0.153362

>  <r_i_glide_ligand_efficiency_ln>
-0.3648

>  <r_glide_XP_GScore>
-3.88017

>  <r_i_glide_gscore>
-3.88017

>  <r_i_glide_evdw>
-38.2583

>  <r_i_glide_ecoul>
-10.4656

>  <r_i_glide_energy>
-48.7238

>  <r_i_glide_einternal>
1.94968

>  <r_i_glide_emodel>
-61.5735

>  <r_glide_XP_HBond>
-1.625

>  <i_i_glide_confnum>
1

>  <i_i_glide_posenum>
6

>  <r_i_glide_eff_state_penalty>
2.2081

>  <i_glide_XP_PoseRank>
4

>  <chiral flag>
1

$$$$
