BACE_9.smi:1
 OpenBabel10031817133D
Structure written by MMmdl.
 88 90  0  0  1  0  0  0  0  0999 V2000
   20.3493   41.6644   -3.5938 C   0  0  0  0  0  0  0  0  0  0  0  0
   21.3510   42.2566   -4.5999 C   0  0  2  0  0  0  0  0  0  0  0  0
   21.6402   43.7370   -4.2670 C   0  0  0  0  0  0  0  0  0  0  0  0
   22.7885   44.3436   -5.0891 C   0  0  0  0  0  0  0  0  0  0  0  0
   23.1986   45.7437   -4.6011 C   0  0  0  0  0  0  0  0  0  0  0  0
   24.2120   46.4349   -5.5280 C   0  0  0  0  0  0  0  0  0  0  0  0
   25.6354   45.8468   -5.4566 C   0  0  0  0  0  0  0  0  0  0  0  0
   26.5535   46.3203   -6.6013 C   0  0  0  0  0  0  0  0  0  0  0  0
   26.5661   45.3813   -7.8188 C   0  0  0  0  0  0  0  0  0  0  0  0
   25.2642   45.2810   -8.4590 N   0  0  0  0  0  0  0  0  0  0  0  0
   24.9539   44.0831   -9.1106 C   0  0  0  0  0  0  0  0  0  0  0  0
   25.9360   43.3317   -9.7903 C   0  0  0  0  0  0  0  0  0  0  0  0
   25.5978   42.1256  -10.4298 C   0  0  0  0  0  0  0  0  0  0  0  0
   24.2702   41.6479  -10.3673 C   0  0  0  0  0  0  0  0  0  0  0  0
   23.2823   42.3815   -9.6733 C   0  0  0  0  0  0  0  0  0  0  0  0
   23.6268   43.6133   -9.0736 C   0  0  0  0  0  0  0  0  0  0  0  0
   21.8676   41.8803   -9.6208 C   0  0  0  0  0  0  0  0  0  0  0  0
   21.2392   41.6911  -10.6638 O   0  0  0  0  0  0  0  0  0  0  0  0
   21.3062   41.6499   -8.4214 N   0  0  0  0  0  0  0  0  0  0  0  0
   21.9232   41.5604   -7.0884 C   0  0  1  0  0  0  0  0  0  0  0  0
   20.8605   42.0353   -6.0563 C   0  0  0  0  0  0  0  0  0  0  0  0
   22.4630   40.1090   -6.9031 C   0  0  1  0  0  0  0  0  0  0  0  0
   21.4905   38.9607   -7.2801 C   0  0  0  0  0  0  0  0  0  0  0  0
   21.2561   38.9317   -8.7417 N   0  3  0  0  0  0  0  0  0  0  0  0
   20.1053   38.1389   -9.2174 C   0  0  0  0  0  0  0  0  0  0  0  0
   18.9209   39.0106   -9.5918 C   0  0  0  0  0  0  0  0  0  0  0  0
   18.9660   39.7842  -10.7703 C   0  0  0  0  0  0  0  0  0  0  0  0
   17.8597   40.5683  -11.1459 C   0  0  0  0  0  0  0  0  0  0  0  0
   16.7102   40.5928  -10.3345 C   0  0  0  0  0  0  0  0  0  0  0  0
   16.6578   39.8314   -9.1465 C   0  0  0  0  0  0  0  0  0  0  0  0
   17.7663   39.0340   -8.7846 C   0  0  0  0  0  0  0  0  0  0  0  0
   15.4194   39.8791   -8.2651 C   0  0  0  0  0  0  0  0  0  0  0  0
   15.7717   40.3200   -6.8358 C   0  0  0  0  0  0  0  0  0  0  0  0
   14.6574   38.5452   -8.2706 C   0  0  0  0  0  0  0  0  0  0  0  0
   23.6794   39.9572   -7.6133 O   0  0  0  0  0  0  0  0  0  0  0  0
   26.6788   41.3366  -11.1404 C   0  0  0  0  0  0  0  0  0  0  0  0
   27.3881   42.1332  -12.0827 O   0  0  0  0  0  0  0  0  0  0  0  0
   28.6360   41.5635  -12.4386 C   0  0  0  0  0  0  0  0  0  0  0  0
   22.2805   41.7313   -4.4405 H   0  0  0  0  0  0  0  0  0  0  0  0
   22.7662   42.2466   -7.0365 H   0  0  0  0  0  0  0  0  0  0  0  0
   22.6942   39.9685   -5.8465 H   0  0  0  0  0  0  0  0  0  0  0  0
   19.3798   42.1566   -3.6552 H   0  0  0  0  0  0  0  0  0  0  0  0
   20.7119   41.7682   -2.5702 H   0  0  0  0  0  0  0  0  0  0  0  0
   20.1959   40.5982   -3.7695 H   0  0  0  0  0  0  0  0  0  0  0  0
   20.7380   44.3354   -4.3936 H   0  0  0  0  0  0  0  0  0  0  0  0
   21.9013   43.8090   -3.2089 H   0  0  0  0  0  0  0  0  0  0  0  0
   23.6495   43.6782   -5.0521 H   0  0  0  0  0  0  0  0  0  0  0  0
   22.4844   44.4071   -6.1329 H   0  0  0  0  0  0  0  0  0  0  0  0
   22.3079   46.3697   -4.5420 H   0  0  0  0  0  0  0  0  0  0  0  0
   23.5969   45.6915   -3.5868 H   0  0  0  0  0  0  0  0  0  0  0  0
   23.8265   46.4110   -6.5456 H   0  0  0  0  0  0  0  0  0  0  0  0
   24.2673   47.4932   -5.2654 H   0  0  0  0  0  0  0  0  0  0  0  0
   26.0740   46.1425   -4.5035 H   0  0  0  0  0  0  0  0  0  0  0  0
   25.6139   44.7583   -5.4423 H   0  0  0  0  0  0  0  0  0  0  0  0
   26.3017   47.3394   -6.9012 H   0  0  0  0  0  0  0  0  0  0  0  0
   27.5747   46.3703   -6.2206 H   0  0  0  0  0  0  0  0  0  0  0  0
   27.2863   45.7422   -8.5537 H   0  0  0  0  0  0  0  0  0  0  0  0
   26.8992   44.3915   -7.5061 H   0  0  0  0  0  0  0  0  0  0  0  0
   24.5066   45.7591   -7.9932 H   0  0  0  0  0  0  0  0  0  0  0  0
   26.9591   43.6760   -9.8331 H   0  0  0  0  0  0  0  0  0  0  0  0
   24.0120   40.7160  -10.8466 H   0  0  0  0  0  0  0  0  0  0  0  0
   22.8691   44.1942   -8.5651 H   0  0  0  0  0  0  0  0  0  0  0  0
   20.3487   41.3311   -8.4613 H   0  0  0  0  0  0  0  0  0  0  0  0
   20.0257   41.3317   -6.0647 H   0  0  0  0  0  0  0  0  0  0  0  0
   20.4227   42.9681   -6.4116 H   0  0  0  0  0  0  0  0  0  0  0  0
   21.9240   38.0104   -6.9576 H   0  0  0  0  0  0  0  0  0  0  0  0
   20.5165   39.0503   -6.8082 H   0  0  0  0  0  0  0  0  0  0  0  0
   21.1787   39.8763   -9.0805 H   0  0  0  0  0  0  0  0  0  0  0  0
   20.4256   37.5784  -10.0951 H   0  0  0  0  0  0  0  0  0  0  0  0
   19.8102   37.3984   -8.4789 H   0  0  0  0  0  0  0  0  0  0  0  0
   19.8445   39.7733  -11.3956 H   0  0  0  0  0  0  0  0  0  0  0  0
   17.8874   41.1499  -12.0562 H   0  0  0  0  0  0  0  0  0  0  0  0
   15.8675   41.2004  -10.6291 H   0  0  0  0  0  0  0  0  0  0  0  0
   17.7289   38.4427   -7.8815 H   0  0  0  0  0  0  0  0  0  0  0  0
   14.7476   40.6312   -8.6837 H   0  0  0  0  0  0  0  0  0  0  0  0
   16.2644   41.2931   -6.8377 H   0  0  0  0  0  0  0  0  0  0  0  0
   16.4402   39.6084   -6.3479 H   0  0  0  0  0  0  0  0  0  0  0  0
   14.8751   40.4072   -6.2220 H   0  0  0  0  0  0  0  0  0  0  0  0
   14.4345   38.2306   -9.2910 H   0  0  0  0  0  0  0  0  0  0  0  0
   13.7117   38.6369   -7.7353 H   0  0  0  0  0  0  0  0  0  0  0  0
   15.2291   37.7486   -7.7925 H   0  0  0  0  0  0  0  0  0  0  0  0
   23.4985   39.6813   -8.5017 H   0  0  0  0  0  0  0  0  0  0  0  0
   27.3684   40.9544  -10.3844 H   0  0  0  0  0  0  0  0  0  0  0  0
   26.2370   40.4751  -11.6400 H   0  0  0  0  0  0  0  0  0  0  0  0
   29.1461   42.2029  -13.1600 H   0  0  0  0  0  0  0  0  0  0  0  0
   28.5071   40.5804  -12.8941 H   0  0  0  0  0  0  0  0  0  0  0  0
   29.2780   41.4637  -11.5652 H   0  0  0  0  0  0  0  0  0  0  0  0
   22.0969   38.5376   -9.1637 H   0  0  0  0  0  0  0  0  0  0  0  0
  1  2  1  0  0  0  0
  1 42  1  0  0  0  0
  1 43  1  0  0  0  0
  1 44  1  0  0  0  0
  2 39  1  1  0  0  0
  2 21  1  0  0  0  0
  2  3  1  0  0  0  0
  3  4  1  0  0  0  0
  3 45  1  0  0  0  0
  3 46  1  0  0  0  0
  4  5  1  0  0  0  0
  4 47  1  0  0  0  0
  4 48  1  0  0  0  0
  5  6  1  0  0  0  0
  5 49  1  0  0  0  0
  5 50  1  0  0  0  0
  6  7  1  0  0  0  0
  6 51  1  0  0  0  0
  6 52  1  0  0  0  0
  7  8  1  0  0  0  0
  7 53  1  0  0  0  0
  7 54  1  0  0  0  0
  8  9  1  0  0  0  0
  8 55  1  0  0  0  0
  8 56  1  0  0  0  0
  9 10  1  0  0  0  0
  9 57  1  0  0  0  0
  9 58  1  0  0  0  0
 10 11  1  0  0  0  0
 10 59  1  0  0  0  0
 11 16  1  0  0  0  0
 11 12  2  0  0  0  0
 12 13  1  0  0  0  0
 12 60  1  0  0  0  0
 13 14  2  0  0  0  0
 13 36  1  0  0  0  0
 14 15  1  0  0  0  0
 14 61  1  0  0  0  0
 15 16  2  0  0  0  0
 15 17  1  0  0  0  0
 16 62  1  0  0  0  0
 17 18  2  0  0  0  0
 17 19  1  0  0  0  0
 19 20  1  0  0  0  0
 19 63  1  0  0  0  0
 20 40  1  1  0  0  0
 20 21  1  0  0  0  0
 20 22  1  0  0  0  0
 21 64  1  0  0  0  0
 21 65  1  0  0  0  0
 22 41  1  1  0  0  0
 22 23  1  0  0  0  0
 22 35  1  0  0  0  0
 23 24  1  0  0  0  0
 23 66  1  0  0  0  0
 23 67  1  0  0  0  0
 24 25  1  0  0  0  0
 24 68  1  0  0  0  0
 24 88  1  0  0  0  0
 25 26  1  0  0  0  0
 25 69  1  0  0  0  0
 25 70  1  0  0  0  0
 26 31  1  0  0  0  0
 26 27  2  0  0  0  0
 27 28  1  0  0  0  0
 27 71  1  0  0  0  0
 28 29  2  0  0  0  0
 28 72  1  0  0  0  0
 29 30  1  0  0  0  0
 29 73  1  0  0  0  0
 30 31  2  0  0  0  0
 30 32  1  0  0  0  0
 31 74  1  0  0  0  0
 32 33  1  0  0  0  0
 32 34  1  0  0  0  0
 32 75  1  0  0  0  0
 33 76  1  0  0  0  0
 33 77  1  0  0  0  0
 33 78  1  0  0  0  0
 34 79  1  0  0  0  0
 34 80  1  0  0  0  0
 34 81  1  0  0  0  0
 35 82  1  0  0  0  0
 36 37  1  0  0  0  0
 36 83  1  0  0  0  0
 36 84  1  0  0  0  0
 37 38  1  0  0  0  0
 38 85  1  0  0  0  0
 38 86  1  0  0  0  0
 38 87  1  0  0  0  0
M  CHG  1  24   1
M  END
>  <s_m_source_file>
BACE_9.smi

>  <i_m_source_file_index>
1

>  <i_lp_mmshare_version>
42013

>  <i_f3d_flags>
0

>  <s_epik_input>
W05IXTFbQ0gyXVtDSDJdW0NIMl1bQ0gyXVtDSDJdW0NIMl1bQ0gyXVtDQEBIXShbQ0gzXSlbQ0gyXVtDQEhdKFtOSF1DKD1PKWMoW2NIXTIpW2NIXWMoW2NIXWMxMilbQ0gyXU9bQ0gzXSlbQ0BIXShbT0hdKVtDSDJdW05IXVtDSDJdYzNbY0hdW2NIXVtjSF1jKFtjSF0zKVtDSF0oW0NIM10pW0NIM10=

>  <s_epik_cmdline>
J2VwaWtfcHl0aG9uJywgJy1waCcsICc3LjAnLCAnLXRuJywgJzgnLCAnLW1hJywgJzIwMCcsICctaW1hZScsICc8aW5maWxlLm1hZT4nLCAnLW9tYWUnLCAnPG91dGZpbGUubWFlPic=

>  <r_epik_Ionization_Penalty>
0.0171

>  <r_epik_Ionization_Penalty_Charging>
0.0165

>  <r_epik_Ionization_Penalty_Neutral>
0.0006

>  <r_epik_State_Penalty>
0.013

>  <r_epik_Charging_Adjusted_Penalty>
0.0295552

>  <i_epik_Tot_Q>
1

>  <i_epik_Tot_abs_Q>
1

>  <s_lp_Force_Field>
OPLS_2005

>  <r_lp_Energy>
38.0252

>  <b_lp_Chiralities_Consistent>
1

>  <s_lp_Variant>
BACE_9.smi:1-1

>  <chiral flag>
1

>  <version>
0

>  <r_i_glide_lipo>
-0.710728

>  <r_i_glide_hbond>
-0.0540132

>  <r_i_glide_metal>
-0

>  <r_i_glide_rewards>
-0.0401973

>  <r_i_glide_erotb>
0.448381

>  <r_i_glide_esite>
-0.0114061

>  <s_i_glide_gridfile>
second_dock_grid_2

>  <i_i_glide_lignum>
18

>  <i_i_glide_rotatable_bonds>
9

>  <r_i_docking_score>
-0.865395

>  <r_i_glide_ligand_efficiency>
-0.0227736

>  <r_i_glide_ligand_efficiency_sa>
-0.0765641

>  <r_i_glide_ligand_efficiency_ln>
-0.186605

>  <r_glide_XP_GScore>
-0.878395

>  <r_i_glide_gscore>
-0.878395

>  <r_i_glide_evdw>
-36.5819

>  <r_i_glide_ecoul>
-6.73297

>  <r_i_glide_energy>
-43.3149

>  <r_i_glide_einternal>
4.69155

>  <r_i_glide_emodel>
-60.2593

>  <r_glide_XP_HBond>
-0.7

>  <i_i_glide_confnum>
1

>  <i_i_glide_posenum>
44

>  <r_i_glide_eff_state_penalty>
0.013

>  <i_glide_XP_PoseRank>
7

>  <chiral flag>
1

$$$$
