BACE_2.smi:1
 OpenBabel10031817133D
Structure written by MMmdl.
 95 97  0  0  1  0  0  0  0  0999 V2000
   22.0610   50.8380   -3.3114 C   0  0  0  0  0  0  0  0  0  0  0  0
   23.0433   50.9499   -2.3095 C   0  0  0  0  0  0  0  0  0  0  0  0
   24.0797   50.0008   -2.2174 C   0  0  0  0  0  0  0  0  0  0  0  0
   25.1759   50.1804   -1.1731 C   0  0  0  0  0  0  0  0  0  0  0  0
   25.0131   49.2123    0.0092 C   0  0  0  0  0  0  0  0  0  0  0  0
   26.5864   50.0923   -1.7818 C   0  0  0  0  0  0  0  0  0  0  0  0
   24.0804   48.8996   -3.1038 C   0  0  0  0  0  0  0  0  0  0  0  0
   23.0831   48.7652   -4.1001 C   0  0  0  0  0  0  0  0  0  0  0  0
   22.0943   49.7737   -4.2331 C   0  0  0  0  0  0  0  0  0  0  0  0
   23.0666   47.5412   -5.0110 C   0  0  2  0  0  0  0  0  0  0  0  0
   21.7666   47.5054   -5.8476 C   0  0  0  0  0  0  0  0  0  0  0  0
   21.3286   48.8980   -6.3381 C   0  0  0  0  0  0  0  0  0  0  0  0
   21.1348   49.7631   -5.2233 O   0  0  0  0  0  0  0  0  0  0  0  0
   22.3439   49.5284   -7.3114 C   0  0  0  0  0  0  0  0  0  0  0  0
   19.9545   48.7980   -7.0180 C   0  0  0  0  0  0  0  0  0  0  0  0
   23.2604   46.3063   -4.2236 N   0  0  0  0  0  0  0  0  0  0  0  0
   22.9705   45.0161   -4.8683 C   0  0  0  0  0  0  0  0  0  0  0  0
   23.8710   44.7097   -6.0900 C   0  0  1  0  0  0  0  0  0  0  0  0
   25.1756   44.4081   -5.6401 O   0  0  0  0  0  0  0  0  0  0  0  0
   23.3909   43.5494   -7.0181 C   0  0  1  0  0  0  0  0  0  0  0  0
   22.2847   42.7846   -6.4350 N   0  0  0  0  0  0  0  0  0  0  0  0
   22.0674   41.4736   -6.6285 C   0  0  0  0  0  0  0  0  0  0  0  0
   22.8532   40.7476   -7.2393 O   0  0  0  0  0  0  0  0  0  0  0  0
   20.7572   40.9085   -6.0517 C   0  0  2  0  0  0  0  0  0  0  0  0
   21.0376   40.2901   -4.6631 C   0  0  0  0  0  0  0  0  0  0  0  0
   22.9606   44.0720   -8.4135 C   0  0  0  0  0  0  0  0  0  0  0  0
   24.0474   43.9362   -9.5059 C   0  0  2  0  0  0  0  0  0  0  0  0
   25.3328   44.7152   -9.1667 C   0  0  0  0  0  0  0  0  0  0  0  0
   23.5429   44.3598  -10.9010 C   0  0  0  0  0  0  0  0  0  0  0  0
   22.2531   43.6810  -11.4030 C   0  0  0  0  0  0  0  0  0  0  0  0
   22.2574   42.1469  -11.3212 C   0  0  0  0  0  0  0  0  0  0  0  0
   21.1484   41.5090  -12.1715 C   0  0  0  0  0  0  0  0  0  0  0  0
   21.0634   39.9775  -12.0525 C   0  0  0  0  0  0  0  0  0  0  0  0
   20.5800   39.4547  -10.6864 C   0  0  0  0  0  0  0  0  0  0  0  0
   19.0844   39.7114  -10.4013 C   0  0  0  0  0  0  0  0  0  0  0  0
   18.6523   39.4013   -8.9527 C   0  0  0  0  0  0  0  0  0  0  0  0
   19.2843   40.3819   -7.9446 C   0  0  0  0  0  0  0  0  0  0  0  0
   18.9775   41.5706   -8.0503 O   0  0  0  0  0  0  0  0  0  0  0  0
   20.1552   39.9366   -6.9989 N   0  0  0  0  0  0  0  0  0  0  0  0
   20.6536   38.5526   -7.0060 C   0  0  0  0  0  0  0  0  0  0  0  0
   23.9050   47.6604   -5.6966 H   0  0  0  0  0  0  0  0  0  0  0  0
   23.9852   45.6070   -6.6960 H   0  0  0  0  0  0  0  0  0  0  0  0
   24.2207   42.8574   -7.1683 H   0  0  0  0  0  0  0  0  0  0  0  0
   20.0617   41.7307   -5.8803 H   0  0  0  0  0  0  0  0  0  0  0  0
   24.3185   42.8824   -9.5644 H   0  0  0  0  0  0  0  0  0  0  0  0
   21.2828   51.5816   -3.3818 H   0  0  0  0  0  0  0  0  0  0  0  0
   23.0100   51.7875   -1.6302 H   0  0  0  0  0  0  0  0  0  0  0  0
   25.0799   51.1913   -0.7696 H   0  0  0  0  0  0  0  0  0  0  0  0
   24.0592   49.3711    0.5093 H   0  0  0  0  0  0  0  0  0  0  0  0
   25.7965   49.3710    0.7530 H   0  0  0  0  0  0  0  0  0  0  0  0
   25.0587   48.1698   -0.3075 H   0  0  0  0  0  0  0  0  0  0  0  0
   26.7060   50.8101   -2.5942 H   0  0  0  0  0  0  0  0  0  0  0  0
   26.8014   49.0980   -2.1775 H   0  0  0  0  0  0  0  0  0  0  0  0
   27.3470   50.3166   -1.0337 H   0  0  0  0  0  0  0  0  0  0  0  0
   24.8544   48.1517   -3.0204 H   0  0  0  0  0  0  0  0  0  0  0  0
   21.8769   46.8280   -6.6945 H   0  0  0  0  0  0  0  0  0  0  0  0
   20.9572   47.1007   -5.2392 H   0  0  0  0  0  0  0  0  0  0  0  0
   22.4918   48.8913   -8.1841 H   0  0  0  0  0  0  0  0  0  0  0  0
   23.3192   49.6826   -6.8502 H   0  0  0  0  0  0  0  0  0  0  0  0
   21.9933   50.4969   -7.6700 H   0  0  0  0  0  0  0  0  0  0  0  0
   19.9931   48.1453   -7.8909 H   0  0  0  0  0  0  0  0  0  0  0  0
   19.6037   49.7751   -7.3503 H   0  0  0  0  0  0  0  0  0  0  0  0
   19.2024   48.3972   -6.3370 H   0  0  0  0  0  0  0  0  0  0  0  0
   24.2369   46.2718   -3.9386 H   0  0  0  0  0  0  0  0  0  0  0  0
   23.0663   44.2147   -4.1346 H   0  0  0  0  0  0  0  0  0  0  0  0
   21.9232   44.9970   -5.1690 H   0  0  0  0  0  0  0  0  0  0  0  0
   25.1426   44.1885   -4.7123 H   0  0  0  0  0  0  0  0  0  0  0  0
   21.5830   43.3002   -5.9224 H   0  0  0  0  0  0  0  0  0  0  0  0
   21.3152   41.0663   -3.9505 H   0  0  0  0  0  0  0  0  0  0  0  0
   21.8433   39.5579   -4.6597 H   0  0  0  0  0  0  0  0  0  0  0  0
   20.1394   39.8115   -4.2725 H   0  0  0  0  0  0  0  0  0  0  0  0
   22.0850   43.5086   -8.7361 H   0  0  0  0  0  0  0  0  0  0  0  0
   22.6075   45.1023   -8.3548 H   0  0  0  0  0  0  0  0  0  0  0  0
   26.0653   44.6262   -9.9713 H   0  0  0  0  0  0  0  0  0  0  0  0
   25.8133   44.3330   -8.2662 H   0  0  0  0  0  0  0  0  0  0  0  0
   25.1317   45.7754   -9.0175 H   0  0  0  0  0  0  0  0  0  0  0  0
   23.3969   45.4415  -10.9205 H   0  0  0  0  0  0  0  0  0  0  0  0
   24.3344   44.1601  -11.6237 H   0  0  0  0  0  0  0  0  0  0  0  0
   22.1177   43.9824  -12.4400 H   0  0  0  0  0  0  0  0  0  0  0  0
   21.3879   44.0758  -10.8705 H   0  0  0  0  0  0  0  0  0  0  0  0
   23.2264   41.7648  -11.6398 H   0  0  0  0  0  0  0  0  0  0  0  0
   22.1537   41.8456  -10.2798 H   0  0  0  0  0  0  0  0  0  0  0  0
   21.3480   41.7497  -13.2146 H   0  0  0  0  0  0  0  0  0  0  0  0
   20.1875   41.9665  -11.9389 H   0  0  0  0  0  0  0  0  0  0  0  0
   20.4136   39.5877  -12.8338 H   0  0  0  0  0  0  0  0  0  0  0  0
   22.0508   39.5746  -12.2644 H   0  0  0  0  0  0  0  0  0  0  0  0
   21.2023   39.8772   -9.8998 H   0  0  0  0  0  0  0  0  0  0  0  0
   20.7526   38.3811  -10.6340 H   0  0  0  0  0  0  0  0  0  0  0  0
   18.8333   40.7487  -10.6236 H   0  0  0  0  0  0  0  0  0  0  0  0
   18.4852   39.1140  -11.0904 H   0  0  0  0  0  0  0  0  0  0  0  0
   18.8196   38.3505   -8.7186 H   0  0  0  0  0  0  0  0  0  0  0  0
   17.5719   39.5345   -8.8809 H   0  0  0  0  0  0  0  0  0  0  0  0
   21.5747   38.4219   -6.4397 H   0  0  0  0  0  0  0  0  0  0  0  0
   20.9123   38.2207   -8.0160 H   0  0  0  0  0  0  0  0  0  0  0  0
   19.8996   37.8745   -6.6030 H   0  0  0  0  0  0  0  0  0  0  0  0
  1  9  1  0  0  0  0
  1  2  2  0  0  0  0
  1 46  1  0  0  0  0
  2  3  1  0  0  0  0
  2 47  1  0  0  0  0
  3  4  1  0  0  0  0
  3  7  2  0  0  0  0
  4  5  1  0  0  0  0
  4  6  1  0  0  0  0
  4 48  1  0  0  0  0
  5 49  1  0  0  0  0
  5 50  1  0  0  0  0
  5 51  1  0  0  0  0
  6 52  1  0  0  0  0
  6 53  1  0  0  0  0
  6 54  1  0  0  0  0
  7  8  1  0  0  0  0
  7 55  1  0  0  0  0
  8  9  2  0  0  0  0
  8 10  1  0  0  0  0
  9 13  1  0  0  0  0
 10 41  1  6  0  0  0
 10 11  1  0  0  0  0
 10 16  1  0  0  0  0
 11 12  1  0  0  0  0
 11 56  1  0  0  0  0
 11 57  1  0  0  0  0
 12 13  1  0  0  0  0
 12 14  1  0  0  0  0
 12 15  1  0  0  0  0
 14 58  1  0  0  0  0
 14 59  1  0  0  0  0
 14 60  1  0  0  0  0
 15 61  1  0  0  0  0
 15 62  1  0  0  0  0
 15 63  1  0  0  0  0
 16 17  1  0  0  0  0
 16 64  1  0  0  0  0
 17 18  1  0  0  0  0
 17 65  1  0  0  0  0
 17 66  1  0  0  0  0
 18 42  1  6  0  0  0
 18 19  1  0  0  0  0
 18 20  1  0  0  0  0
 19 67  1  0  0  0  0
 20 43  1  6  0  0  0
 20 21  1  0  0  0  0
 20 26  1  0  0  0  0
 21 22  1  0  0  0  0
 21 68  1  0  0  0  0
 22 23  2  0  0  0  0
 22 24  1  0  0  0  0
 24 44  1  1  0  0  0
 24 39  1  0  0  0  0
 24 25  1  0  0  0  0
 25 69  1  0  0  0  0
 25 70  1  0  0  0  0
 25 71  1  0  0  0  0
 26 27  1  0  0  0  0
 26 72  1  0  0  0  0
 26 73  1  0  0  0  0
 27 45  1  6  0  0  0
 27 28  1  0  0  0  0
 27 29  1  0  0  0  0
 28 74  1  0  0  0  0
 28 75  1  0  0  0  0
 28 76  1  0  0  0  0
 29 30  1  0  0  0  0
 29 77  1  0  0  0  0
 29 78  1  0  0  0  0
 30 31  1  0  0  0  0
 30 79  1  0  0  0  0
 30 80  1  0  0  0  0
 31 32  1  0  0  0  0
 31 81  1  0  0  0  0
 31 82  1  0  0  0  0
 32 33  1  0  0  0  0
 32 83  1  0  0  0  0
 32 84  1  0  0  0  0
 33 34  1  0  0  0  0
 33 85  1  0  0  0  0
 33 86  1  0  0  0  0
 34 35  1  0  0  0  0
 34 87  1  0  0  0  0
 34 88  1  0  0  0  0
 35 36  1  0  0  0  0
 35 89  1  0  0  0  0
 35 90  1  0  0  0  0
 36 37  1  0  0  0  0
 36 91  1  0  0  0  0
 36 92  1  0  0  0  0
 37 38  2  0  0  0  0
 37 39  1  0  0  0  0
 39 40  1  0  0  0  0
 40 93  1  0  0  0  0
 40 94  1  0  0  0  0
 40 95  1  0  0  0  0
M  END
>  <s_m_source_file>
BACE_2.smi

>  <i_m_source_file_index>
1

>  <i_lp_mmshare_version>
42013

>  <i_f3d_flags>
0

>  <s_epik_input>
W0NIM11bQ0hdKFtDSDNdKWMoW2NIXTEpW2NIXVtjSF1jKGMxMilPQyhbQ0gzXSkoW0NIM10pW0NIMl1bQ0BASF0yW05IXVtDSDJdW0NAQEhdKFtPSF0pW0NASF0zW05IXUMoPU8pW0NASF0oW0NIM10pTihbQ0gzXSlDKD1PKVtDSDJdW0NIMl1bQ0gyXVtDSDJdW0NIMl1bQ0gyXVtDSDJdW0NIMl1bQ0BIXShbQ0gyXTMpW0NIM10=

>  <s_epik_cmdline>
J2VwaWtfcHl0aG9uJywgJy1waCcsICc3LjAnLCAnLXRuJywgJzgnLCAnLW1hJywgJzIwMCcsICctaW1hZScsICc8aW5maWxlLm1hZT4nLCAnLW9tYWUnLCAnPG91dGZpbGUubWFlPic=

>  <r_lp_tautomer_probability>
1

>  <r_epik_Ionization_Penalty>
2.0558

>  <r_epik_Ionization_Penalty_Charging>
0

>  <r_epik_Ionization_Penalty_Neutral>
2.0558

>  <r_epik_State_Penalty>
2.1887

>  <r_epik_Charging_Adjusted_Penalty>
2.18867

>  <i_epik_Tot_Q>
0

>  <i_epik_Tot_abs_Q>
0

>  <s_lp_Force_Field>
OPLS_2005

>  <r_lp_Energy>
50.7677

>  <b_lp_Chiralities_Consistent>
1

>  <s_lp_Variant>
BACE_2.smi:1-2

>  <chiral flag>
1

>  <version>
0

>  <r_i_glide_lipo>
-0.560518

>  <r_i_glide_hbond>
-0.557669

>  <r_i_glide_metal>
-0

>  <r_i_glide_rewards>
-0.049716

>  <r_i_glide_erotb>
0.189885

>  <r_i_glide_esite>
-0.00704416

>  <s_i_glide_gridfile>
second_dock_grid_2

>  <i_i_glide_lignum>
3

>  <i_i_glide_rotatable_bonds>
6

>  <r_i_docking_score>
-1.27775

>  <r_i_glide_ligand_efficiency>
-0.0319439

>  <r_i_glide_ligand_efficiency_sa>
-0.109246

>  <r_i_glide_ligand_efficiency_ln>
-0.272507

>  <r_glide_XP_GScore>
-3.46645

>  <r_i_glide_gscore>
-3.46645

>  <r_i_glide_evdw>
-39.0908

>  <r_i_glide_ecoul>
-8.01611

>  <r_i_glide_energy>
-47.1069

>  <r_i_glide_einternal>
5.69793

>  <r_i_glide_emodel>
-54.5696

>  <r_glide_XP_HBond>
-1.34762

>  <i_i_glide_confnum>
1

>  <i_i_glide_posenum>
3

>  <r_i_glide_eff_state_penalty>
2.1887

>  <i_glide_XP_PoseRank>
4

>  <chiral flag>
1

$$$$
