BACE_13.smi:1
 OpenBabel10031817133D
Structure written by MMmdl.
 77 80  0  0  1  0  0  0  0  0999 V2000
   17.5031   49.0957  -10.6177 C   0  0  0  0  0  0  0  0  0  0  0  0
   18.0860   48.1598   -9.7300 O   0  0  0  0  0  0  0  0  0  0  0  0
   17.5137   46.8654   -9.8378 C   0  0  0  0  0  0  0  0  0  0  0  0
   18.1979   45.8658   -8.9240 C   0  0  0  0  0  0  0  0  0  0  0  0
   18.3051   44.5125   -9.3095 C   0  0  0  0  0  0  0  0  0  0  0  0
   18.9376   43.5749   -8.4660 C   0  0  0  0  0  0  0  0  0  0  0  0
   19.4694   44.0077   -7.2287 C   0  0  0  0  0  0  0  0  0  0  0  0
   19.3726   45.3566   -6.8400 C   0  0  0  0  0  0  0  0  0  0  0  0
   18.7226   46.2814   -7.6825 C   0  0  0  0  0  0  0  0  0  0  0  0
   19.9626   45.7634   -5.6399 N   0  0  0  0  0  0  0  0  0  0  0  0
   21.0488   46.7265   -5.7993 C   0  0  0  0  0  0  0  0  0  0  0  0
   22.3310   46.0630   -6.3299 C   0  0  0  0  0  0  0  0  0  0  0  0
   23.0038   45.1327   -5.3040 C   0  0  0  0  0  0  0  0  0  0  0  0
   24.0462   44.2062   -5.9521 C   0  0  0  0  0  0  0  0  0  0  0  0
   23.4246   43.2915   -6.8492 O   0  0  0  0  0  0  0  0  0  0  0  0
   22.7698   42.1835   -6.3525 C   0  0  0  0  0  0  0  0  0  0  0  0
   22.7069   41.8290   -4.9793 C   0  0  0  0  0  0  0  0  0  0  0  0
   22.0432   40.6534   -4.5804 C   0  0  0  0  0  0  0  0  0  0  0  0
   21.4074   39.8450   -5.5405 C   0  0  0  0  0  0  0  0  0  0  0  0
   21.4259   40.2011   -6.8997 C   0  0  0  0  0  0  0  0  0  0  0  0
   22.1346   41.3540   -7.2997 C   0  0  0  0  0  0  0  0  0  0  0  0
   20.6357   39.3761   -7.9120 C   0  0  0  0  0  0  0  0  0  0  0  0
   19.1366   39.7884   -8.0424 C   0  0  2  0  0  0  0  0  0  0  0  0
   19.0505   41.2447   -7.9109 N   0  0  0  0  0  0  0  0  0  0  0  0
   19.0781   42.1455   -8.9046 C   0  0  0  0  0  0  0  0  0  0  0  0
   19.1213   41.8433  -10.0961 O   0  0  0  0  0  0  0  0  0  0  0  0
   18.1726   39.1240   -7.0024 C   0  0  1  0  0  0  0  0  0  0  0  0
   16.6284   39.2561   -7.2423 C   0  0  1  0  0  0  0  0  0  0  0  0
   16.1775   40.6312   -7.7869 C   0  0  0  0  0  0  0  0  0  0  0  0
   14.8186   40.6635   -8.1594 O   0  0  0  0  0  0  0  0  0  0  0  0
   14.4224   39.6894   -9.1257 C   0  0  2  0  0  0  0  0  0  0  0  0
   14.7108   38.3068   -8.5196 C   0  0  0  0  0  0  0  0  0  0  0  0
   16.1169   38.1497   -8.0897 N   0  3  0  0  0  0  0  0  0  0  0  0
   15.0471   39.8863  -10.5358 C   0  0  0  0  0  0  0  0  0  0  0  0
   14.4606   40.9343  -11.3030 O   0  0  0  0  0  0  0  0  0  0  0  0
   14.7660   42.2383  -10.8373 C   0  0  0  0  0  0  0  0  0  0  0  0
   18.4599   37.7501   -6.8483 O   0  0  0  0  0  0  0  0  0  0  0  0
   18.8003   39.4731   -9.0306 H   0  0  0  0  0  0  0  0  0  0  0  0
   18.4112   39.5606   -6.0401 H   0  0  0  0  0  0  0  0  0  0  0  0
   16.1330   39.1204   -6.2790 H   0  0  0  0  0  0  0  0  0  0  0  0
   13.3409   39.7565   -9.2460 H   0  0  0  0  0  0  0  0  0  0  0  0
   17.9788   50.0683  -10.4919 H   0  0  0  0  0  0  0  0  0  0  0  0
   16.4394   49.2162  -10.4171 H   0  0  0  0  0  0  0  0  0  0  0  0
   17.6317   48.7897  -11.6581 H   0  0  0  0  0  0  0  0  0  0  0  0
   17.5879   46.5154  -10.8680 H   0  0  0  0  0  0  0  0  0  0  0  0
   16.4543   46.9055   -9.5798 H   0  0  0  0  0  0  0  0  0  0  0  0
   17.9058   44.1965  -10.2613 H   0  0  0  0  0  0  0  0  0  0  0  0
   19.9836   43.3127   -6.5799 H   0  0  0  0  0  0  0  0  0  0  0  0
   18.6389   47.3168   -7.3860 H   0  0  0  0  0  0  0  0  0  0  0  0
   20.2596   44.9872   -5.0624 H   0  0  0  0  0  0  0  0  0  0  0  0
   21.2580   47.1994   -4.8399 H   0  0  0  0  0  0  0  0  0  0  0  0
   20.7463   47.5284   -6.4729 H   0  0  0  0  0  0  0  0  0  0  0  0
   23.0424   46.8367   -6.6190 H   0  0  0  0  0  0  0  0  0  0  0  0
   22.1051   45.5169   -7.2472 H   0  0  0  0  0  0  0  0  0  0  0  0
   22.2539   44.5379   -4.7859 H   0  0  0  0  0  0  0  0  0  0  0  0
   23.4869   45.7356   -4.5348 H   0  0  0  0  0  0  0  0  0  0  0  0
   24.6532   43.6853   -5.2131 H   0  0  0  0  0  0  0  0  0  0  0  0
   24.7514   44.8065   -6.5251 H   0  0  0  0  0  0  0  0  0  0  0  0
   23.1780   42.4275   -4.2148 H   0  0  0  0  0  0  0  0  0  0  0  0
   22.0177   40.3745   -3.5364 H   0  0  0  0  0  0  0  0  0  0  0  0
   20.8865   38.9515   -5.2403 H   0  0  0  0  0  0  0  0  0  0  0  0
   22.1654   41.6287   -8.3449 H   0  0  0  0  0  0  0  0  0  0  0  0
   20.7534   38.3130   -7.6951 H   0  0  0  0  0  0  0  0  0  0  0  0
   21.1145   39.5144   -8.8817 H   0  0  0  0  0  0  0  0  0  0  0  0
   18.9757   41.5967   -6.9654 H   0  0  0  0  0  0  0  0  0  0  0  0
   16.7187   40.9077   -8.6816 H   0  0  0  0  0  0  0  0  0  0  0  0
   16.3561   41.4107   -7.0471 H   0  0  0  0  0  0  0  0  0  0  0  0
   14.4646   37.5290   -9.2409 H   0  0  0  0  0  0  0  0  0  0  0  0
   14.0717   38.1534   -7.6482 H   0  0  0  0  0  0  0  0  0  0  0  0
   16.7176   38.0459   -8.8939 H   0  0  0  0  0  0  0  0  0  0  0  0
   16.1320   39.9822  -10.5205 H   0  0  0  0  0  0  0  0  0  0  0  0
   14.8599   38.9815  -11.1110 H   0  0  0  0  0  0  0  0  0  0  0  0
   14.3704   42.9672  -11.5398 H   0  0  0  0  0  0  0  0  0  0  0  0
   15.8427   42.3925  -10.7598 H   0  0  0  0  0  0  0  0  0  0  0  0
   14.3052   42.4373   -9.8698 H   0  0  0  0  0  0  0  0  0  0  0  0
   17.8662   37.3819   -6.2032 H   0  0  0  0  0  0  0  0  0  0  0  0
   16.1676   37.3025   -7.5191 H   0  0  0  0  0  0  0  0  0  0  0  0
  1  2  1  0  0  0  0
  1 42  1  0  0  0  0
  1 43  1  0  0  0  0
  1 44  1  0  0  0  0
  2  3  1  0  0  0  0
  3  4  1  0  0  0  0
  3 45  1  0  0  0  0
  3 46  1  0  0  0  0
  4  9  1  0  0  0  0
  4  5  2  0  0  0  0
  5  6  1  0  0  0  0
  5 47  1  0  0  0  0
  6 25  1  0  0  0  0
  6  7  2  0  0  0  0
  7  8  1  0  0  0  0
  7 48  1  0  0  0  0
  8  9  2  0  0  0  0
  8 10  1  0  0  0  0
  9 49  1  0  0  0  0
 10 11  1  0  0  0  0
 10 50  1  0  0  0  0
 11 12  1  0  0  0  0
 11 51  1  0  0  0  0
 11 52  1  0  0  0  0
 12 13  1  0  0  0  0
 12 53  1  0  0  0  0
 12 54  1  0  0  0  0
 13 14  1  0  0  0  0
 13 55  1  0  0  0  0
 13 56  1  0  0  0  0
 14 15  1  0  0  0  0
 14 57  1  0  0  0  0
 14 58  1  0  0  0  0
 15 16  1  0  0  0  0
 16 21  1  0  0  0  0
 16 17  2  0  0  0  0
 17 18  1  0  0  0  0
 17 59  1  0  0  0  0
 18 19  2  0  0  0  0
 18 60  1  0  0  0  0
 19 20  1  0  0  0  0
 19 61  1  0  0  0  0
 20 21  2  0  0  0  0
 20 22  1  0  0  0  0
 21 62  1  0  0  0  0
 22 23  1  0  0  0  0
 22 63  1  0  0  0  0
 22 64  1  0  0  0  0
 23 38  1  6  0  0  0
 23 24  1  0  0  0  0
 23 27  1  0  0  0  0
 24 25  1  0  0  0  0
 24 65  1  0  0  0  0
 25 26  2  0  0  0  0
 27 39  1  1  0  0  0
 27 28  1  0  0  0  0
 27 37  1  0  0  0  0
 28 40  1  1  0  0  0
 28 33  1  0  0  0  0
 28 29  1  0  0  0  0
 29 30  1  0  0  0  0
 29 66  1  0  0  0  0
 29 67  1  0  0  0  0
 30 31  1  0  0  0  0
 31 41  1  6  0  0  0
 31 32  1  0  0  0  0
 31 34  1  0  0  0  0
 32 33  1  0  0  0  0
 32 68  1  0  0  0  0
 32 69  1  0  0  0  0
 33 70  1  0  0  0  0
 33 77  1  0  0  0  0
 34 35  1  0  0  0  0
 34 71  1  0  0  0  0
 34 72  1  0  0  0  0
 35 36  1  0  0  0  0
 36 73  1  0  0  0  0
 36 74  1  0  0  0  0
 36 75  1  0  0  0  0
 37 76  1  0  0  0  0
M  CHG  1  33   1
M  END
>  <s_m_source_file>
BACE_13.smi

>  <i_m_source_file_index>
1

>  <i_lp_mmshare_version>
42013

>  <i_f3d_flags>
0

>  <s_epik_input>
W0NIM11PW0NIMl1jKFtjSF1jMTIpW2NIXWMoW2NIXTEpW05IXVtDSDJdW0NIMl1bQ0gyXVtDSDJdT2MzW2NIXVtjSF1bY0hdYyhbY0hdMylbQ0gyXVtDQEhdKFtOSF1DMj1PKVtDQEhdKFtPSF0pW0NASF00W0NIMl1PW0NASF0oW0NIMl1bTkhdNClbQ0gyXU9bQ0gzXQ==

>  <s_epik_cmdline>
J2VwaWtfcHl0aG9uJywgJy1waCcsICc3LjAnLCAnLXRuJywgJzgnLCAnLW1hJywgJzIwMCcsICctaW1hZScsICc8aW5maWxlLm1hZT4nLCAnLW9tYWUnLCAnPG91dGZpbGUubWFlPic=

>  <r_lp_tautomer_probability>
1

>  <r_epik_Ionization_Penalty>
0.1161

>  <r_epik_Ionization_Penalty_Charging>
0.1158

>  <r_epik_Ionization_Penalty_Neutral>
0.0003

>  <r_epik_State_Penalty>
0.1054

>  <r_epik_Charging_Adjusted_Penalty>
0.221149

>  <i_epik_Tot_Q>
1

>  <i_epik_Tot_abs_Q>
1

>  <s_lp_Force_Field>
OPLS_2005

>  <r_lp_Energy>
45.964

>  <b_lp_Chiralities_Consistent>
1

>  <s_lp_Variant>
BACE_13.smi:1-1

>  <chiral flag>
1

>  <version>
0

>  <r_i_glide_lipo>
-0.389877

>  <r_i_glide_hbond>
-0.448198

>  <r_i_glide_metal>
-0

>  <r_i_glide_rewards>
0

>  <r_i_glide_erotb>
0.309821

>  <r_i_glide_esite>
-0.0409344

>  <s_i_glide_gridfile>
second_dock_grid_2

>  <i_i_glide_lignum>
26

>  <i_i_glide_rotatable_bonds>
7

>  <r_i_docking_score>
-5.48412

>  <r_i_glide_ligand_efficiency>
-0.148219

>  <r_i_glide_ligand_efficiency_sa>
-0.4939

>  <r_i_glide_ligand_efficiency_ln>
-1.18938

>  <r_glide_XP_GScore>
-5.58952

>  <r_i_glide_gscore>
-5.58952

>  <r_i_glide_evdw>
-32.561

>  <r_i_glide_ecoul>
-17.7121

>  <r_i_glide_energy>
-50.273

>  <r_i_glide_einternal>
9.94369

>  <r_i_glide_emodel>
-66.0699

>  <r_glide_XP_HBond>
-1.62337

>  <i_i_glide_confnum>
1

>  <i_i_glide_posenum>
1

>  <r_i_glide_eff_state_penalty>
0.1054

>  <i_glide_XP_PoseRank>
5

>  <chiral flag>
1

$$$$
