BACE_6.smi:1
 OpenBabel10031817133D
Structure written by MMmdl.
 82 84  0  0  1  0  0  0  0  0999 V2000
   26.6920   44.8331   -6.2233 C   0  0  0  0  0  0  0  0  0  0  0  0
   25.7654   45.7833   -6.9939 C   0  0  0  0  0  0  0  0  0  0  0  0
   24.4108   45.2187   -7.1113 N   0  0  0  0  0  0  0  0  0  0  0  0
   24.2184   44.3728   -8.3090 C   0  0  0  0  0  0  0  0  0  0  0  0
   23.9417   42.8838   -8.0019 C   0  0  0  0  0  0  0  0  0  0  0  0
   24.0977   41.9651   -9.2258 C   0  0  0  0  0  0  0  0  0  0  0  0
   23.1532   42.2569  -10.4077 C   0  0  0  0  0  0  0  0  0  0  0  0
   21.6958   41.7920  -10.2110 C   0  0  0  0  0  0  0  0  0  0  0  0
   20.7544   42.0887  -11.4159 C   0  0  2  0  0  0  0  0  0  0  0  0
   19.2614   41.7453  -11.1592 C   0  0  0  0  0  0  0  0  0  0  0  0
   18.3909   42.8253  -10.4725 C   0  0  2  0  0  0  0  0  0  0  0  0
   18.9338   43.1376   -9.1618 N   0  0  0  0  0  0  0  0  0  0  0  0
   19.2882   44.3524   -8.7214 C   0  0  0  0  0  0  0  0  0  0  0  0
   19.1014   45.4053   -9.3297 O   0  0  0  0  0  0  0  0  0  0  0  0
   20.0784   44.3032   -7.4576 C   0  0  0  0  0  0  0  0  0  0  0  0
   19.6608   43.4817   -6.3884 C   0  0  0  0  0  0  0  0  0  0  0  0
   20.4696   43.3459   -5.2474 C   0  0  0  0  0  0  0  0  0  0  0  0
   21.7065   44.0102   -5.1894 C   0  0  0  0  0  0  0  0  0  0  0  0
   22.1322   44.8379   -6.2466 C   0  0  0  0  0  0  0  0  0  0  0  0
   21.2845   45.0277   -7.3586 C   0  0  0  0  0  0  0  0  0  0  0  0
   23.4768   45.4952   -6.1584 C   0  0  0  0  0  0  0  0  0  0  0  0
   23.6967   46.2224   -5.1873 O   0  0  0  0  0  0  0  0  0  0  0  0
   16.9215   42.3538  -10.3529 C   0  0  1  0  0  0  0  0  0  0  0  0
   15.9898   43.2312   -9.4893 C   0  0  0  0  0  0  0  0  0  0  0  0
   16.0152   42.8799   -8.0698 N   0  0  0  0  0  0  0  0  0  0  0  0
   15.1537   41.7571   -7.6723 C   0  0  0  0  0  0  0  0  0  0  0  0
   15.6719   40.3941   -8.0742 C   0  0  0  0  0  0  0  0  0  0  0  0
   14.8437   39.4875   -8.7655 C   0  0  0  0  0  0  0  0  0  0  0  0
   15.3505   38.2333   -9.1523 C   0  0  0  0  0  0  0  0  0  0  0  0
   16.6780   37.8800   -8.8419 C   0  0  0  0  0  0  0  0  0  0  0  0
   17.5063   38.7817   -8.1405 C   0  0  0  0  0  0  0  0  0  0  0  0
   16.9971   40.0372   -7.7638 C   0  0  0  0  0  0  0  0  0  0  0  0
   18.9252   38.3945   -7.7684 C   0  0  0  0  0  0  0  0  0  0  0  0
   19.2011   38.5735   -6.2718 C   0  0  0  0  0  0  0  0  0  0  0  0
   19.9671   39.1289   -8.6097 C   0  0  0  0  0  0  0  0  0  0  0  0
   16.3759   42.3606  -11.6400 O   0  0  0  0  0  0  0  0  0  0  0  0
   21.2235   41.3214  -12.6679 C   0  0  0  0  0  0  0  0  0  0  0  0
   20.8123   43.1548  -11.6394 H   0  0  0  0  0  0  0  0  0  0  0  0
   18.4139   43.7247  -11.0907 H   0  0  0  0  0  0  0  0  0  0  0  0
   16.8970   41.3159  -10.0440 H   0  0  0  0  0  0  0  0  0  0  0  0
   27.6827   45.2710   -6.0978 H   0  0  0  0  0  0  0  0  0  0  0  0
   26.8079   43.8807   -6.7451 H   0  0  0  0  0  0  0  0  0  0  0  0
   26.2984   44.6204   -5.2300 H   0  0  0  0  0  0  0  0  0  0  0  0
   25.7431   46.7532   -6.4948 H   0  0  0  0  0  0  0  0  0  0  0  0
   26.1897   45.9961   -7.9744 H   0  0  0  0  0  0  0  0  0  0  0  0
   23.4370   44.7890   -8.9383 H   0  0  0  0  0  0  0  0  0  0  0  0
   25.1102   44.4102   -8.9342 H   0  0  0  0  0  0  0  0  0  0  0  0
   24.6455   42.5526   -7.2405 H   0  0  0  0  0  0  0  0  0  0  0  0
   22.9515   42.7383   -7.5756 H   0  0  0  0  0  0  0  0  0  0  0  0
   25.1262   42.0415   -9.5807 H   0  0  0  0  0  0  0  0  0  0  0  0
   23.9805   40.9256   -8.9173 H   0  0  0  0  0  0  0  0  0  0  0  0
   23.1830   43.3115  -10.6805 H   0  0  0  0  0  0  0  0  0  0  0  0
   23.5724   41.7232  -11.2527 H   0  0  0  0  0  0  0  0  0  0  0  0
   21.7035   40.7203  -10.0199 H   0  0  0  0  0  0  0  0  0  0  0  0
   21.3190   42.2535   -9.3023 H   0  0  0  0  0  0  0  0  0  0  0  0
   18.7886   41.5413  -12.1190 H   0  0  0  0  0  0  0  0  0  0  0  0
   19.1878   40.8063  -10.6208 H   0  0  0  0  0  0  0  0  0  0  0  0
   19.1857   42.3514   -8.5813 H   0  0  0  0  0  0  0  0  0  0  0  0
   18.7287   42.9368   -6.4388 H   0  0  0  0  0  0  0  0  0  0  0  0
   20.1531   42.7116   -4.4313 H   0  0  0  0  0  0  0  0  0  0  0  0
   22.3378   43.8733   -4.3223 H   0  0  0  0  0  0  0  0  0  0  0  0
   21.5856   45.6727   -8.1707 H   0  0  0  0  0  0  0  0  0  0  0  0
   16.2757   44.2762   -9.6171 H   0  0  0  0  0  0  0  0  0  0  0  0
   14.9631   43.1657   -9.8480 H   0  0  0  0  0  0  0  0  0  0  0  0
   16.9655   42.6766   -7.7800 H   0  0  0  0  0  0  0  0  0  0  0  0
   15.0758   41.7341   -6.5877 H   0  0  0  0  0  0  0  0  0  0  0  0
   14.1416   41.9045   -8.0509 H   0  0  0  0  0  0  0  0  0  0  0  0
   13.8196   39.7483   -8.9967 H   0  0  0  0  0  0  0  0  0  0  0  0
   14.7131   37.5339   -9.6706 H   0  0  0  0  0  0  0  0  0  0  0  0
   17.0509   36.9077   -9.1246 H   0  0  0  0  0  0  0  0  0  0  0  0
   17.6267   40.7372   -7.2393 H   0  0  0  0  0  0  0  0  0  0  0  0
   19.0345   37.3454   -8.0069 H   0  0  0  0  0  0  0  0  0  0  0  0
   18.4828   38.0261   -5.6550 H   0  0  0  0  0  0  0  0  0  0  0  0
   19.1699   39.6218   -5.9742 H   0  0  0  0  0  0  0  0  0  0  0  0
   20.2004   38.2102   -6.0405 H   0  0  0  0  0  0  0  0  0  0  0  0
   19.8347   38.9080   -9.6678 H   0  0  0  0  0  0  0  0  0  0  0  0
   20.9778   38.8226   -8.3389 H   0  0  0  0  0  0  0  0  0  0  0  0
   19.8961   40.2055   -8.4619 H   0  0  0  0  0  0  0  0  0  0  0  0
   16.7259   41.6009  -12.0829 H   0  0  0  0  0  0  0  0  0  0  0  0
   21.4160   40.2701  -12.4481 H   0  0  0  0  0  0  0  0  0  0  0  0
   22.1294   41.7539  -13.0805 H   0  0  0  0  0  0  0  0  0  0  0  0
   20.4834   41.3503  -13.4653 H   0  0  0  0  0  0  0  0  0  0  0  0
  1  2  1  0  0  0  0
  1 41  1  0  0  0  0
  1 42  1  0  0  0  0
  1 43  1  0  0  0  0
  2  3  1  0  0  0  0
  2 44  1  0  0  0  0
  2 45  1  0  0  0  0
  3 21  1  0  0  0  0
  3  4  1  0  0  0  0
  4  5  1  0  0  0  0
  4 46  1  0  0  0  0
  4 47  1  0  0  0  0
  5  6  1  0  0  0  0
  5 48  1  0  0  0  0
  5 49  1  0  0  0  0
  6  7  1  0  0  0  0
  6 50  1  0  0  0  0
  6 51  1  0  0  0  0
  7  8  1  0  0  0  0
  7 52  1  0  0  0  0
  7 53  1  0  0  0  0
  8  9  1  0  0  0  0
  8 54  1  0  0  0  0
  8 55  1  0  0  0  0
  9 38  1  6  0  0  0
  9 10  1  0  0  0  0
  9 37  1  0  0  0  0
 10 11  1  0  0  0  0
 10 56  1  0  0  0  0
 10 57  1  0  0  0  0
 11 39  1  6  0  0  0
 11 12  1  0  0  0  0
 11 23  1  0  0  0  0
 12 13  1  0  0  0  0
 12 58  1  0  0  0  0
 13 14  2  0  0  0  0
 13 15  1  0  0  0  0
 15 20  1  0  0  0  0
 15 16  2  0  0  0  0
 16 17  1  0  0  0  0
 16 59  1  0  0  0  0
 17 18  2  0  0  0  0
 17 60  1  0  0  0  0
 18 19  1  0  0  0  0
 18 61  1  0  0  0  0
 19 20  2  0  0  0  0
 19 21  1  0  0  0  0
 20 62  1  0  0  0  0
 21 22  2  0  0  0  0
 23 40  1  1  0  0  0
 23 24  1  0  0  0  0
 23 36  1  0  0  0  0
 24 25  1  0  0  0  0
 24 63  1  0  0  0  0
 24 64  1  0  0  0  0
 25 26  1  0  0  0  0
 25 65  1  0  0  0  0
 26 27  1  0  0  0  0
 26 66  1  0  0  0  0
 26 67  1  0  0  0  0
 27 32  1  0  0  0  0
 27 28  2  0  0  0  0
 28 29  1  0  0  0  0
 28 68  1  0  0  0  0
 29 30  2  0  0  0  0
 29 69  1  0  0  0  0
 30 31  1  0  0  0  0
 30 70  1  0  0  0  0
 31 32  2  0  0  0  0
 31 33  1  0  0  0  0
 32 71  1  0  0  0  0
 33 34  1  0  0  0  0
 33 35  1  0  0  0  0
 33 72  1  0  0  0  0
 34 73  1  0  0  0  0
 34 74  1  0  0  0  0
 34 75  1  0  0  0  0
 35 76  1  0  0  0  0
 35 77  1  0  0  0  0
 35 78  1  0  0  0  0
 36 79  1  0  0  0  0
 37 80  1  0  0  0  0
 37 81  1  0  0  0  0
 37 82  1  0  0  0  0
M  END
>  <s_m_source_file>
BACE_6.smi

>  <i_m_source_file_index>
1

>  <i_lp_mmshare_version>
42013

>  <i_f3d_flags>
0

>  <s_epik_input>
YzEyW2NIXVtjSF1bY0hdYyhbY0hdMilDKD1PKU4oW0NIMl1bQ0gzXSlbQ0gyXVtDSDJdW0NIMl1bQ0gyXVtDSDJdW0NAQEhdKFtDSDNdKVtDSDJdW0NASF0oW05IXUMxPU8pW0NASF0oW09IXSlbQ0gyXVtOSF1bQ0gyXWMzW2NIXVtjSF1bY0hdYyhbY0hdMylbQ0hdKFtDSDNdKVtDSDNd

>  <s_epik_cmdline>
J2VwaWtfcHl0aG9uJywgJy1waCcsICc3LjAnLCAnLXRuJywgJzgnLCAnLW1hJywgJzIwMCcsICctaW1hZScsICc8aW5maWxlLm1hZT4nLCAnLW9tYWUnLCAnPG91dGZpbGUubWFlPic=

>  <r_epik_Ionization_Penalty>
2.1294

>  <r_epik_Ionization_Penalty_Charging>
0

>  <r_epik_Ionization_Penalty_Neutral>
2.1294

>  <r_epik_State_Penalty>
2.2676

>  <r_epik_Charging_Adjusted_Penalty>
2.26762

>  <i_epik_Tot_Q>
0

>  <i_epik_Tot_abs_Q>
0

>  <s_lp_Force_Field>
OPLS_2005

>  <r_lp_Energy>
47.7451

>  <b_lp_Chiralities_Consistent>
1

>  <s_lp_Variant>
BACE_6.smi:1-2

>  <chiral flag>
1

>  <version>
0

>  <r_i_glide_lipo>
-1.10063

>  <r_i_glide_hbond>
-0.479066

>  <r_i_glide_metal>
-0

>  <r_i_glide_rewards>
0

>  <r_i_glide_erotb>
0.397034

>  <r_i_glide_esite>
-0.00445794

>  <s_i_glide_gridfile>
second_dock_grid_2

>  <i_i_glide_lignum>
13

>  <i_i_glide_rotatable_bonds>
8

>  <r_i_docking_score>
4.25186

>  <r_i_glide_ligand_efficiency>
0.114915

>  <r_i_glide_ligand_efficiency_sa>
0.382922

>  <r_i_glide_ligand_efficiency_ln>
0.922128

>  <r_glide_XP_GScore>
1.98426

>  <r_i_glide_gscore>
1.98426

>  <r_i_glide_evdw>
-33.9597

>  <r_i_glide_ecoul>
-5.3732

>  <r_i_glide_energy>
-39.3329

>  <r_i_glide_einternal>
2.95603

>  <r_i_glide_emodel>
-55.9286

>  <r_glide_XP_HBond>
-0.104026

>  <i_i_glide_confnum>
1

>  <i_i_glide_posenum>
6

>  <r_i_glide_eff_state_penalty>
2.2676

>  <i_glide_XP_PoseRank>
5

>  <chiral flag>
1

$$$$
