BACE_20.smi:1
 OpenBabel10031817133D
Structure written by MMmdl.
 78 79  0  0  1  0  0  0  0  0999 V2000
   29.3845   44.8285   -4.5143 C   0  0  0  0  0  0  0  0  0  0  0  0
   30.7213   45.2091   -5.1739 C   0  0  0  0  0  0  0  0  0  0  0  0
   31.0004   44.4991   -6.5128 C   0  0  0  0  0  0  0  0  0  0  0  0
   29.8705   44.6627   -7.5406 C   0  0  0  0  0  0  0  0  0  0  0  0
   30.2235   44.1037   -8.8403 N   0  0  0  0  0  0  0  0  0  0  0  0
   29.2786   43.4722   -9.6623 C   0  0  0  0  0  0  0  0  0  0  0  0
   27.8908   43.4948   -9.3973 C   0  0  0  0  0  0  0  0  0  0  0  0
   27.0120   42.7878  -10.2445 C   0  0  0  0  0  0  0  0  0  0  0  0
   27.5600   42.1373  -11.3690 C   0  0  0  0  0  0  0  0  0  0  0  0
   28.9503   42.1890  -11.5757 C   0  0  0  0  0  0  0  0  0  0  0  0
   29.7972   42.8298  -10.7289 N   0  0  0  0  0  0  0  0  0  0  0  0
   29.4669   41.5659  -12.6925 O   0  0  0  0  0  0  0  0  0  0  0  0
   30.8460   41.7500  -12.9926 C   0  0  0  0  0  0  0  0  0  0  0  0
   25.5369   42.7578   -9.9468 C   0  0  0  0  0  0  0  0  0  0  0  0
   25.0309   43.6174   -9.2263 O   0  0  0  0  0  0  0  0  0  0  0  0
   24.8547   41.7069  -10.4396 N   0  0  0  0  0  0  0  0  0  0  0  0
   23.4488   41.3552  -10.1898 C   0  0  1  0  0  0  0  0  0  0  0  0
   23.3076   40.9357   -8.6976 C   0  0  0  0  0  0  0  0  0  0  0  0
   22.0625   40.1268   -8.3613 C   0  0  0  0  0  0  0  0  0  0  0  0
   21.1679   40.5788   -7.3640 C   0  0  0  0  0  0  0  0  0  0  0  0
   19.9850   39.8620   -7.0923 C   0  0  0  0  0  0  0  0  0  0  0  0
   19.6868   38.6938   -7.8178 C   0  0  0  0  0  0  0  0  0  0  0  0
   20.5804   38.2363   -8.8050 C   0  0  0  0  0  0  0  0  0  0  0  0
   21.7759   38.9325   -9.0558 C   0  0  0  0  0  0  0  0  0  0  0  0
   22.4863   42.4914  -10.6781 C   0  0  2  0  0  0  0  0  0  0  0  0
   20.9619   42.2054  -10.6724 C   0  0  0  0  0  0  0  0  0  0  0  0
   20.3217   41.4706  -11.8802 C   0  0  1  0  0  0  0  0  0  0  0  0
   21.0078   40.1656  -12.3397 C   0  0  0  0  0  0  0  0  0  0  0  0
   18.8187   41.2769  -11.6222 C   0  0  0  0  0  0  0  0  0  0  0  0
   18.0098   42.0785  -12.0917 O   0  0  0  0  0  0  0  0  0  0  0  0
   18.4609   40.2357  -10.8563 N   0  0  0  0  0  0  0  0  0  0  0  0
   17.0979   39.8810  -10.4804 C   0  0  0  0  0  0  0  0  0  0  0  0
   16.6775   40.5643   -9.1684 C   0  0  0  0  0  0  0  0  0  0  0  0
   15.2459   40.2176   -8.7185 C   0  0  0  0  0  0  0  0  0  0  0  0
   15.0676   38.7569   -8.2674 C   0  0  0  0  0  0  0  0  0  0  0  0
   22.8606   42.9500  -11.9691 O   0  0  0  0  0  0  0  0  0  0  0  0
   23.2931   40.4730  -10.8043 H   0  0  0  0  0  0  0  0  0  0  0  0
   22.6190   43.3426  -10.0109 H   0  0  0  0  0  0  0  0  0  0  0  0
   20.3766   42.1491  -12.7251 H   0  0  0  0  0  0  0  0  0  0  0  0
   29.3165   45.2458   -3.5109 H   0  0  0  0  0  0  0  0  0  0  0  0
   29.2604   43.7508   -4.4401 H   0  0  0  0  0  0  0  0  0  0  0  0
   28.5398   45.2143   -5.0850 H   0  0  0  0  0  0  0  0  0  0  0  0
   31.5375   44.9849   -4.4845 H   0  0  0  0  0  0  0  0  0  0  0  0
   30.7500   46.2899   -5.3195 H   0  0  0  0  0  0  0  0  0  0  0  0
   31.1674   43.4360   -6.3339 H   0  0  0  0  0  0  0  0  0  0  0  0
   31.9347   44.8863   -6.9234 H   0  0  0  0  0  0  0  0  0  0  0  0
   29.6233   45.7157   -7.6705 H   0  0  0  0  0  0  0  0  0  0  0  0
   28.9889   44.1653   -7.1396 H   0  0  0  0  0  0  0  0  0  0  0  0
   31.1993   44.0220   -9.0804 H   0  0  0  0  0  0  0  0  0  0  0  0
   27.4815   44.0279   -8.5525 H   0  0  0  0  0  0  0  0  0  0  0  0
   26.9385   41.6036  -12.0720 H   0  0  0  0  0  0  0  0  0  0  0  0
   31.0879   41.2211  -13.9145 H   0  0  0  0  0  0  0  0  0  0  0  0
   31.4863   41.3518  -12.2034 H   0  0  0  0  0  0  0  0  0  0  0  0
   31.0790   42.8044  -13.1458 H   0  0  0  0  0  0  0  0  0  0  0  0
   25.3800   41.0485  -10.9968 H   0  0  0  0  0  0  0  0  0  0  0  0
   24.1594   40.3155   -8.4146 H   0  0  0  0  0  0  0  0  0  0  0  0
   23.3538   41.8162   -8.0546 H   0  0  0  0  0  0  0  0  0  0  0  0
   21.3730   41.4894   -6.8202 H   0  0  0  0  0  0  0  0  0  0  0  0
   19.2891   40.2151   -6.3444 H   0  0  0  0  0  0  0  0  0  0  0  0
   18.7705   38.1541   -7.6208 H   0  0  0  0  0  0  0  0  0  0  0  0
   20.3467   37.3493   -9.3688 H   0  0  0  0  0  0  0  0  0  0  0  0
   22.4602   38.5576   -9.8032 H   0  0  0  0  0  0  0  0  0  0  0  0
   20.4711   43.1798  -10.6189 H   0  0  0  0  0  0  0  0  0  0  0  0
   20.6667   41.7273   -9.7467 H   0  0  0  0  0  0  0  0  0  0  0  0
   22.0416   40.3290  -12.6523 H   0  0  0  0  0  0  0  0  0  0  0  0
   20.4845   39.7457  -13.1989 H   0  0  0  0  0  0  0  0  0  0  0  0
   21.0089   39.4040  -11.5616 H   0  0  0  0  0  0  0  0  0  0  0  0
   19.1964   39.6473  -10.4945 H   0  0  0  0  0  0  0  0  0  0  0  0
   17.0621   38.7968  -10.3723 H   0  0  0  0  0  0  0  0  0  0  0  0
   16.4043   40.1364  -11.2805 H   0  0  0  0  0  0  0  0  0  0  0  0
   16.7488   41.6476   -9.2893 H   0  0  0  0  0  0  0  0  0  0  0  0
   17.3714   40.3030   -8.3687 H   0  0  0  0  0  0  0  0  0  0  0  0
   14.5368   40.4462   -9.5168 H   0  0  0  0  0  0  0  0  0  0  0  0
   14.9768   40.8622   -7.8816 H   0  0  0  0  0  0  0  0  0  0  0  0
   14.0484   38.5849   -7.9226 H   0  0  0  0  0  0  0  0  0  0  0  0
   15.7372   38.5152   -7.4388 H   0  0  0  0  0  0  0  0  0  0  0  0
   15.2594   38.0530   -9.0751 H   0  0  0  0  0  0  0  0  0  0  0  0
   23.1735   42.2039  -12.4669 H   0  0  0  0  0  0  0  0  0  0  0  0
  1  2  1  0  0  0  0
  1 40  1  0  0  0  0
  1 41  1  0  0  0  0
  1 42  1  0  0  0  0
  2  3  1  0  0  0  0
  2 43  1  0  0  0  0
  2 44  1  0  0  0  0
  3  4  1  0  0  0  0
  3 45  1  0  0  0  0
  3 46  1  0  0  0  0
  4  5  1  0  0  0  0
  4 47  1  0  0  0  0
  4 48  1  0  0  0  0
  5  6  1  0  0  0  0
  5 49  1  0  0  0  0
  6 11  1  0  0  0  0
  6  7  2  0  0  0  0
  7  8  1  0  0  0  0
  7 50  1  0  0  0  0
  8  9  2  0  0  0  0
  8 14  1  0  0  0  0
  9 10  1  0  0  0  0
  9 51  1  0  0  0  0
 10 11  2  0  0  0  0
 10 12  1  0  0  0  0
 12 13  1  0  0  0  0
 13 52  1  0  0  0  0
 13 53  1  0  0  0  0
 13 54  1  0  0  0  0
 14 15  2  0  0  0  0
 14 16  1  0  0  0  0
 16 17  1  0  0  0  0
 16 55  1  0  0  0  0
 17 37  1  6  0  0  0
 17 18  1  0  0  0  0
 17 25  1  0  0  0  0
 18 19  1  0  0  0  0
 18 56  1  0  0  0  0
 18 57  1  0  0  0  0
 19 24  1  0  0  0  0
 19 20  2  0  0  0  0
 20 21  1  0  0  0  0
 20 58  1  0  0  0  0
 21 22  2  0  0  0  0
 21 59  1  0  0  0  0
 22 23  1  0  0  0  0
 22 60  1  0  0  0  0
 23 24  2  0  0  0  0
 23 61  1  0  0  0  0
 24 62  1  0  0  0  0
 25 38  1  1  0  0  0
 25 26  1  0  0  0  0
 25 36  1  0  0  0  0
 26 27  1  0  0  0  0
 26 63  1  0  0  0  0
 26 64  1  0  0  0  0
 27 39  1  6  0  0  0
 27 28  1  0  0  0  0
 27 29  1  0  0  0  0
 28 65  1  0  0  0  0
 28 66  1  0  0  0  0
 28 67  1  0  0  0  0
 29 30  2  0  0  0  0
 29 31  1  0  0  0  0
 31 32  1  0  0  0  0
 31 68  1  0  0  0  0
 32 33  1  0  0  0  0
 32 69  1  0  0  0  0
 32 70  1  0  0  0  0
 33 34  1  0  0  0  0
 33 71  1  0  0  0  0
 33 72  1  0  0  0  0
 34 35  1  0  0  0  0
 34 73  1  0  0  0  0
 34 74  1  0  0  0  0
 35 75  1  0  0  0  0
 35 76  1  0  0  0  0
 35 77  1  0  0  0  0
 36 78  1  0  0  0  0
M  END
>  <s_m_source_file>
BACE_20.smi

>  <i_m_source_file_index>
1

>  <i_lp_mmshare_version>
42013

>  <i_f3d_flags>
0

>  <s_epik_input>
W0NIM11bQ0gyXVtDSDJdW0NIMl1bTkhdYzFbY0hdYyhbY0hdYyhuMSlPW0NIM10pQyg9TylbTkhdW0NAQEhdKFtDSDJdYzJbY0hdW2NIXVtjSF1bY0hdW2NIXTIpW0NAQEhdKFtPSF0pW0NIMl1bQ0BASF0oW0NIM10pQyg9TylbTkhdW0NIMl1bQ0gyXVtDSDJdW0NIM10=

>  <s_epik_cmdline>
J2VwaWtfcHl0aG9uJywgJy1waCcsICc3LjAnLCAnLXRuJywgJzgnLCAnLW1hJywgJzIwMCcsICctaW1hZScsICc8aW5maWxlLm1hZT4nLCAnLW9tYWUnLCAnPG91dGZpbGUubWFlPic=

>  <r_lp_tautomer_probability>
1

>  <r_epik_Ionization_Penalty>
0

>  <r_epik_Ionization_Penalty_Charging>
0

>  <r_epik_Ionization_Penalty_Neutral>
0

>  <r_epik_State_Penalty>
-0

>  <r_epik_Charging_Adjusted_Penalty>
0

>  <i_epik_Tot_Q>
0

>  <i_epik_Tot_abs_Q>
0

>  <s_lp_Force_Field>
OPLS_2005

>  <r_lp_Energy>
20.6133

>  <b_lp_Chiralities_Consistent>
1

>  <s_lp_Variant>
BACE_20.smi:1-1

>  <chiral flag>
1

>  <version>
0

>  <r_i_glide_lipo>
-0.356177

>  <r_i_glide_hbond>
-0.618841

>  <r_i_glide_metal>
-0

>  <r_i_glide_rewards>
-0.170657

>  <r_i_glide_erotb>
1.14898

>  <r_i_glide_esite>
-0.0668184

>  <s_i_glide_gridfile>
second_dock_grid_2

>  <i_i_glide_lignum>
37

>  <i_i_glide_rotatable_bonds>
19

>  <r_i_docking_score>
-4.12546

>  <r_i_glide_ligand_efficiency>
-0.114596

>  <r_i_glide_ligand_efficiency_sa>
-0.378388

>  <r_i_glide_ligand_efficiency_ln>
-0.900064

>  <r_glide_XP_GScore>
-4.12546

>  <r_i_glide_gscore>
-4.12546

>  <r_i_glide_evdw>
-44.3942

>  <r_i_glide_ecoul>
-8.77541

>  <r_i_glide_energy>
-53.1696

>  <r_i_glide_einternal>
14.3536

>  <r_i_glide_emodel>
-68.8896

>  <r_glide_XP_HBond>
-1.25393

>  <i_i_glide_confnum>
1

>  <i_i_glide_posenum>
20

>  <r_i_glide_eff_state_penalty>
-0

>  <i_glide_XP_PoseRank>
6

>  <chiral flag>
1

$$$$
