BACE_7.smi:1
 OpenBabel10031817133D
Structure written by MMmdl.
 99103  0  0  1  0  0  0  0  0999 V2000
   18.0651   38.3780   -6.7424 C   0  0  0  0  0  0  0  0  0  0  0  0
   18.1927   38.7301   -8.2340 C   0  0  2  0  0  0  0  0  0  0  0  0
   17.2842   37.8468   -9.1252 C   0  0  0  0  0  0  0  0  0  0  0  0
   15.8094   38.3008   -9.1273 C   0  0  0  0  0  0  0  0  0  0  0  0
   15.5623   39.5944   -9.9336 C   0  0  0  0  0  0  0  0  0  0  0  0
   14.3432   40.3839   -9.4277 C   0  0  0  0  0  0  0  0  0  0  0  0
   14.0783   41.7023  -10.1841 C   0  0  0  0  0  0  0  0  0  0  0  0
   15.1783   42.6805  -10.0238 N   0  0  0  0  0  0  0  0  0  0  0  0
   15.1926   43.4912   -8.9400 C   0  0  0  0  0  0  0  0  0  0  0  0
   14.1650   43.9303   -8.4197 O   0  0  0  0  0  0  0  0  0  0  0  0
   16.5353   43.8591   -8.3774 C   0  0  0  0  0  0  0  0  0  0  0  0
   16.8159   45.1971   -8.0404 C   0  0  0  0  0  0  0  0  0  0  0  0
   18.0640   45.5450   -7.4807 C   0  0  0  0  0  0  0  0  0  0  0  0
   19.0442   44.5492   -7.2767 C   0  0  0  0  0  0  0  0  0  0  0  0
   18.7843   43.2049   -7.6180 C   0  0  0  0  0  0  0  0  0  0  0  0
   17.5075   42.8657   -8.1253 C   0  0  0  0  0  0  0  0  0  0  0  0
   19.8361   42.1531   -7.3886 C   0  0  0  0  0  0  0  0  0  0  0  0
   20.6519   42.2584   -6.4782 O   0  0  0  0  0  0  0  0  0  0  0  0
   19.8359   41.1413   -8.2732 N   0  0  0  0  0  0  0  0  0  0  0  0
   20.5505   39.8696   -8.1303 C   0  0  1  0  0  0  0  0  0  0  0  0
   19.6680   38.7391   -8.7202 C   0  0  0  0  0  0  0  0  0  0  0  0
   21.9719   39.8965   -8.7766 C   0  0  1  0  0  0  0  0  0  0  0  0
   22.1664   40.8932   -9.9507 C   0  0  0  0  0  0  0  0  0  0  0  0
   23.5658   40.9487  -10.4391 N   0  3  0  0  0  0  0  0  0  0  0  0
   24.3883   42.0101   -9.8148 C   0  0  0  0  0  0  0  0  0  0  0  0
   25.6247   42.2869  -10.6394 C   0  0  0  0  0  0  0  0  0  0  0  0
   26.7682   41.4835  -10.4871 C   0  0  0  0  0  0  0  0  0  0  0  0
   27.9227   41.7574  -11.2457 C   0  0  0  0  0  0  0  0  0  0  0  0
   27.9433   42.8475  -12.1390 C   0  0  0  0  0  0  0  0  0  0  0  0
   26.7999   43.6674  -12.3013 C   0  0  0  0  0  0  0  0  0  0  0  0
   25.6393   43.3615  -11.5555 C   0  0  0  0  0  0  0  0  0  0  0  0
   26.7824   44.8597  -13.2643 C   0  0  0  0  0  0  0  0  0  0  0  0
   28.1260   45.1266  -13.9683 C   0  0  0  0  0  0  0  0  0  0  0  0
   26.3023   46.1523  -12.5755 C   0  0  0  0  0  0  0  0  0  0  0  0
   22.9249   40.1335   -7.7601 O   0  0  0  0  0  0  0  0  0  0  0  0
   18.3217   46.9239   -7.0977 C   0  0  0  0  0  0  0  0  0  0  0  0
   17.6640   48.0199   -7.4735 N   0  0  0  0  0  0  0  0  0  0  0  0
   18.3216   49.0630   -6.8403 C   0  0  0  0  0  0  0  0  0  0  0  0
   19.3265   48.5359   -6.0740 C   0  0  0  0  0  0  0  0  0  0  0  0
   19.3376   47.1778   -6.2278 O   0  0  0  0  0  0  0  0  0  0  0  0
   15.8695   43.0900  -11.2708 C   0  0  2  0  0  0  0  0  0  0  0  0
   17.4023   42.8902  -11.2700 C   0  0  0  0  0  0  0  0  0  0  0  0
   15.3967   44.4562  -11.7929 C   0  0  0  0  0  0  0  0  0  0  0  0
   16.2946   45.5212  -12.0373 C   0  0  0  0  0  0  0  0  0  0  0  0
   15.8328   46.7473  -12.5558 C   0  0  0  0  0  0  0  0  0  0  0  0
   14.4664   46.9270  -12.8404 C   0  0  0  0  0  0  0  0  0  0  0  0
   13.5586   45.8814  -12.5817 C   0  0  0  0  0  0  0  0  0  0  0  0
   14.0205   44.6609  -12.0541 C   0  0  0  0  0  0  0  0  0  0  0  0
   17.8082   39.7368   -8.3265 H   0  0  0  0  0  0  0  0  0  0  0  0
   20.6584   39.6512   -7.0661 H   0  0  0  0  0  0  0  0  0  0  0  0
   22.2035   38.8953   -9.1443 H   0  0  0  0  0  0  0  0  0  0  0  0
   15.5592   42.3917  -12.0393 H   0  0  0  0  0  0  0  0  0  0  0  0
   18.3673   37.3505   -6.5430 H   0  0  0  0  0  0  0  0  0  0  0  0
   17.0354   38.4956   -6.4022 H   0  0  0  0  0  0  0  0  0  0  0  0
   18.6708   39.0323   -6.1182 H   0  0  0  0  0  0  0  0  0  0  0  0
   17.6396   37.8417  -10.1565 H   0  0  0  0  0  0  0  0  0  0  0  0
   17.3472   36.8103   -8.7870 H   0  0  0  0  0  0  0  0  0  0  0  0
   15.1838   37.5109   -9.5405 H   0  0  0  0  0  0  0  0  0  0  0  0
   15.4733   38.4262   -8.0965 H   0  0  0  0  0  0  0  0  0  0  0  0
   16.4357   40.2405   -9.8924 H   0  0  0  0  0  0  0  0  0  0  0  0
   15.4385   39.3490  -10.9881 H   0  0  0  0  0  0  0  0  0  0  0  0
   13.4592   39.7485   -9.5000 H   0  0  0  0  0  0  0  0  0  0  0  0
   14.4631   40.6014   -8.3652 H   0  0  0  0  0  0  0  0  0  0  0  0
   13.8750   41.4687  -11.2277 H   0  0  0  0  0  0  0  0  0  0  0  0
   13.1413   42.1262   -9.8195 H   0  0  0  0  0  0  0  0  0  0  0  0
   16.0629   45.9557   -8.1951 H   0  0  0  0  0  0  0  0  0  0  0  0
   20.0041   44.8148   -6.8527 H   0  0  0  0  0  0  0  0  0  0  0  0
   17.2645   41.8380   -8.3406 H   0  0  0  0  0  0  0  0  0  0  0  0
   19.1397   41.1812   -9.0011 H   0  0  0  0  0  0  0  0  0  0  0  0
   20.1197   37.7683   -8.5067 H   0  0  0  0  0  0  0  0  0  0  0  0
   19.6782   38.8373   -9.8081 H   0  0  0  0  0  0  0  0  0  0  0  0
   21.5383   40.5686  -10.7806 H   0  0  0  0  0  0  0  0  0  0  0  0
   21.8346   41.8993   -9.6938 H   0  0  0  0  0  0  0  0  0  0  0  0
   24.0137   40.0580  -10.2783 H   0  0  0  0  0  0  0  0  0  0  0  0
   23.8165   42.9358   -9.7237 H   0  0  0  0  0  0  0  0  0  0  0  0
   24.6808   41.7182   -8.8046 H   0  0  0  0  0  0  0  0  0  0  0  0
   26.7668   40.6484   -9.8033 H   0  0  0  0  0  0  0  0  0  0  0  0
   28.7971   41.1323  -11.1403 H   0  0  0  0  0  0  0  0  0  0  0  0
   28.8527   43.0279  -12.6905 H   0  0  0  0  0  0  0  0  0  0  0  0
   24.7509   43.9637  -11.6746 H   0  0  0  0  0  0  0  0  0  0  0  0
   26.0549   44.6073  -14.0381 H   0  0  0  0  0  0  0  0  0  0  0  0
   28.4612   44.2645  -14.5399 H   0  0  0  0  0  0  0  0  0  0  0  0
   28.9057   45.3791  -13.2496 H   0  0  0  0  0  0  0  0  0  0  0  0
   28.0436   45.9599  -14.6667 H   0  0  0  0  0  0  0  0  0  0  0  0
   25.2873   46.0650  -12.1923 H   0  0  0  0  0  0  0  0  0  0  0  0
   26.3041   46.9896  -13.2724 H   0  0  0  0  0  0  0  0  0  0  0  0
   26.9531   46.4145  -11.7417 H   0  0  0  0  0  0  0  0  0  0  0  0
   23.4905   39.3743   -7.6950 H   0  0  0  0  0  0  0  0  0  0  0  0
   18.0178   50.0897   -6.9763 H   0  0  0  0  0  0  0  0  0  0  0  0
   20.0679   48.9622   -5.4138 H   0  0  0  0  0  0  0  0  0  0  0  0
   17.8004   42.9836  -12.2812 H   0  0  0  0  0  0  0  0  0  0  0  0
   17.6741   41.8965  -10.9137 H   0  0  0  0  0  0  0  0  0  0  0  0
   17.9288   43.6202  -10.6581 H   0  0  0  0  0  0  0  0  0  0  0  0
   17.3526   45.4198  -11.8420 H   0  0  0  0  0  0  0  0  0  0  0  0
   16.5333   47.5497  -12.7421 H   0  0  0  0  0  0  0  0  0  0  0  0
   14.1206   47.8608  -13.2552 H   0  0  0  0  0  0  0  0  0  0  0  0
   12.5093   46.0126  -12.8074 H   0  0  0  0  0  0  0  0  0  0  0  0
   13.3113   43.8652  -11.8765 H   0  0  0  0  0  0  0  0  0  0  0  0
   23.5642   41.1124  -11.4407 H   0  0  0  0  0  0  0  0  0  0  0  0
  1  2  1  0  0  0  0
  1 53  1  0  0  0  0
  1 54  1  0  0  0  0
  1 55  1  0  0  0  0
  2 49  1  6  0  0  0
  2 21  1  0  0  0  0
  2  3  1  0  0  0  0
  3  4  1  0  0  0  0
  3 56  1  0  0  0  0
  3 57  1  0  0  0  0
  4  5  1  0  0  0  0
  4 58  1  0  0  0  0
  4 59  1  0  0  0  0
  5  6  1  0  0  0  0
  5 60  1  0  0  0  0
  5 61  1  0  0  0  0
  6  7  1  0  0  0  0
  6 62  1  0  0  0  0
  6 63  1  0  0  0  0
  7  8  1  0  0  0  0
  7 64  1  0  0  0  0
  7 65  1  0  0  0  0
  8  9  1  0  0  0  0
  8 41  1  0  0  0  0
  9 10  2  0  0  0  0
  9 11  1  0  0  0  0
 11 16  1  0  0  0  0
 11 12  2  0  0  0  0
 12 13  1  0  0  0  0
 12 66  1  0  0  0  0
 13 14  2  0  0  0  0
 13 36  1  0  0  0  0
 14 15  1  0  0  0  0
 14 67  1  0  0  0  0
 15 16  2  0  0  0  0
 15 17  1  0  0  0  0
 16 68  1  0  0  0  0
 17 18  2  0  0  0  0
 17 19  1  0  0  0  0
 19 20  1  0  0  0  0
 19 69  1  0  0  0  0
 20 50  1  1  0  0  0
 20 21  1  0  0  0  0
 20 22  1  0  0  0  0
 21 70  1  0  0  0  0
 21 71  1  0  0  0  0
 22 51  1  6  0  0  0
 22 23  1  0  0  0  0
 22 35  1  0  0  0  0
 23 24  1  0  0  0  0
 23 72  1  0  0  0  0
 23 73  1  0  0  0  0
 24 25  1  0  0  0  0
 24 74  1  0  0  0  0
 24 99  1  0  0  0  0
 25 26  1  0  0  0  0
 25 75  1  0  0  0  0
 25 76  1  0  0  0  0
 26 31  1  0  0  0  0
 26 27  2  0  0  0  0
 27 28  1  0  0  0  0
 27 77  1  0  0  0  0
 28 29  2  0  0  0  0
 28 78  1  0  0  0  0
 29 30  1  0  0  0  0
 29 79  1  0  0  0  0
 30 31  2  0  0  0  0
 30 32  1  0  0  0  0
 31 80  1  0  0  0  0
 32 33  1  0  0  0  0
 32 34  1  0  0  0  0
 32 81  1  0  0  0  0
 33 82  1  0  0  0  0
 33 83  1  0  0  0  0
 33 84  1  0  0  0  0
 34 85  1  0  0  0  0
 34 86  1  0  0  0  0
 34 87  1  0  0  0  0
 35 88  1  0  0  0  0
 36 40  1  0  0  0  0
 36 37  2  0  0  0  0
 37 38  1  0  0  0  0
 38 39  2  0  0  0  0
 38 89  1  0  0  0  0
 39 40  1  0  0  0  0
 39 90  1  0  0  0  0
 41 52  1  6  0  0  0
 41 42  1  0  0  0  0
 41 43  1  0  0  0  0
 42 91  1  0  0  0  0
 42 92  1  0  0  0  0
 42 93  1  0  0  0  0
 43 48  1  0  0  0  0
 43 44  2  0  0  0  0
 44 45  1  0  0  0  0
 44 94  1  0  0  0  0
 45 46  2  0  0  0  0
 45 95  1  0  0  0  0
 46 47  1  0  0  0  0
 46 96  1  0  0  0  0
 47 48  2  0  0  0  0
 47 97  1  0  0  0  0
 48 98  1  0  0  0  0
M  CHG  1  24   1
M  END
>  <s_m_source_file>
BACE_7.smi

>  <i_m_source_file_index>
1

>  <i_lp_mmshare_version>
42013

>  <i_f3d_flags>
0

>  <s_epik_input>
W2NIXTFbY0hdW2NIXVtjSF1bY0hdYzFbQ0BASF0oW0NIM10pTihDMj1PKVtDSDJdW0NIMl1bQ0gyXVtDSDJdW0NIMl1bQ0BASF0oW0NIM10pW0NIMl1bQ0BIXShbTkhdQyg9TyljKFtjSF0zKVtjSF1jKFtjSF1jMjMpLWM0bltjSF1bY0hdbzQpW0NASF0oW09IXSlbQ0gyXVtOSF1bQ0gyXWM1W2NIXVtjSF1bY0hdYyhbY0hdNSlbQ0hdKFtDSDNdKVtDSDNd

>  <s_epik_cmdline>
J2VwaWtfcHl0aG9uJywgJy1waCcsICc3LjAnLCAnLXRuJywgJzgnLCAnLW1hJywgJzIwMCcsICctaW1hZScsICc8aW5maWxlLm1hZT4nLCAnLW9tYWUnLCAnPG91dGZpbGUubWFlPic=

>  <r_epik_Ionization_Penalty>
0.0165

>  <r_epik_Ionization_Penalty_Charging>
0.0165

>  <r_epik_Ionization_Penalty_Neutral>
0

>  <r_epik_State_Penalty>
0.013

>  <r_epik_Charging_Adjusted_Penalty>
0.0295552

>  <i_epik_Tot_Q>
1

>  <i_epik_Tot_abs_Q>
1

>  <s_lp_Force_Field>
OPLS_2005

>  <r_lp_Energy>
54.1327

>  <b_lp_Chiralities_Consistent>
1

>  <s_lp_Variant>
BACE_7.smi:1-1

>  <chiral flag>
1

>  <version>
0

>  <r_i_glide_lipo>
-0.655821

>  <r_i_glide_hbond>
-0.111534

>  <r_i_glide_metal>
-0

>  <r_i_glide_rewards>
0

>  <r_i_glide_erotb>
0.24809

>  <r_i_glide_esite>
-0.0271944

>  <s_i_glide_gridfile>
second_dock_grid_2

>  <i_i_glide_lignum>
14

>  <i_i_glide_rotatable_bonds>
10

>  <r_i_docking_score>
-1.64937

>  <r_i_glide_ligand_efficiency>
-0.0343619

>  <r_i_glide_ligand_efficiency_sa>
-0.12488

>  <r_i_glide_ligand_efficiency_ln>
-0.338597

>  <r_glide_XP_GScore>
-1.66237

>  <r_i_glide_gscore>
-1.66237

>  <r_i_glide_evdw>
-51.8583

>  <r_i_glide_ecoul>
-7.25088

>  <r_i_glide_energy>
-59.1092

>  <r_i_glide_einternal>
3.69961

>  <r_i_glide_emodel>
-87.4246

>  <r_glide_XP_HBond>
-0.48

>  <i_i_glide_confnum>
1

>  <i_i_glide_posenum>
13

>  <r_i_glide_eff_state_penalty>
0.013

>  <i_glide_XP_PoseRank>
7

>  <chiral flag>
1

$$$$
