BACE_17.smi:1
 OpenBabel10031817133D
Structure written by MMmdl.
 62 64  0  0  1  0  0  0  0  0999 V2000
   21.6157   43.6959   -6.6065 C   0  0  0  0  0  0  0  0  0  0  0  0
   20.9672   44.9427   -6.1797 N   0  0  0  0  0  0  0  0  0  0  0  0
   21.7902   45.7379   -5.2704 C   0  0  0  0  0  0  0  0  0  0  0  0
   19.7200   45.3308   -6.5523 C   0  0  0  0  0  0  0  0  0  0  0  0
   19.0703   46.1895   -5.9486 O   0  0  0  0  0  0  0  0  0  0  0  0
   19.1280   44.6847   -7.7747 C   0  0  0  0  0  0  0  0  0  0  0  0
   19.8842   44.5765   -8.9655 C   0  0  0  0  0  0  0  0  0  0  0  0
   17.8113   44.1788   -7.7414 C   0  0  0  0  0  0  0  0  0  0  0  0
   17.2940   43.4931   -8.8580 C   0  0  0  0  0  0  0  0  0  0  0  0
   18.0780   43.3495  -10.0217 C   0  0  0  0  0  0  0  0  0  0  0  0
   19.3861   43.8625  -10.0792 C   0  0  0  0  0  0  0  0  0  0  0  0
   15.9635   42.8222   -8.7801 C   0  0  0  0  0  0  0  0  0  0  0  0
   14.9180   43.4531   -8.6244 O   0  0  0  0  0  0  0  0  0  0  0  0
   16.0645   41.4937   -8.8908 N   0  0  0  0  0  0  0  0  0  0  0  0
   15.0052   40.4971   -8.8505 C   0  0  2  0  0  0  0  0  0  0  0  0
   14.8550   39.8872   -7.4170 C   0  0  1  0  0  0  0  0  0  0  0  0
   14.4570   38.5477   -7.4380 O   0  0  0  0  0  0  0  0  0  0  0  0
   16.0432   39.9243   -6.4511 C   0  0  0  0  0  0  0  0  0  0  0  0
   17.0369   38.9503   -6.7411 O   0  0  0  0  0  0  0  0  0  0  0  0
   15.2509   39.4852  -10.0006 C   0  0  0  0  0  0  0  0  0  0  0  0
   16.5714   38.7406   -9.8961 C   0  0  0  0  0  0  0  0  0  0  0  0
   17.7841   39.3483  -10.2968 C   0  0  0  0  0  0  0  0  0  0  0  0
   19.0190   38.6923  -10.0709 C   0  0  0  0  0  0  0  0  0  0  0  0
   19.0067   37.4298   -9.4550 C   0  0  0  0  0  0  0  0  0  0  0  0
   17.8014   36.7892   -9.1214 C   0  0  0  0  0  0  0  0  0  0  0  0
   16.5828   37.4391   -9.3557 C   0  0  0  0  0  0  0  0  0  0  0  0
   20.2571   39.2009  -10.3980 O   0  0  0  0  0  0  0  0  0  0  0  0
   20.3265   40.5083  -10.9409 C   0  0  0  0  0  0  0  0  0  0  0  0
   21.8029   40.9115  -11.0575 C   0  0  0  0  0  0  0  0  0  0  0  0
   22.0527   42.2296  -11.8102 C   0  0  0  0  0  0  0  0  0  0  0  0
   21.5380   43.4903  -11.0934 C   0  0  0  0  0  0  0  0  0  0  0  0
   20.1194   43.5969  -11.2163 O   0  0  0  0  0  0  0  0  0  0  0  0
   14.0599   40.9863   -9.0897 H   0  0  0  0  0  0  0  0  0  0  0  0
   14.0639   40.4411   -6.9166 H   0  0  0  0  0  0  0  0  0  0  0  0
   22.2258   43.2728   -5.8063 H   0  0  0  0  0  0  0  0  0  0  0  0
   22.2736   43.8784   -7.4566 H   0  0  0  0  0  0  0  0  0  0  0  0
   20.8963   42.9223   -6.8847 H   0  0  0  0  0  0  0  0  0  0  0  0
   22.6553   46.1290   -5.8060 H   0  0  0  0  0  0  0  0  0  0  0  0
   22.1614   45.1180   -4.4552 H   0  0  0  0  0  0  0  0  0  0  0  0
   21.2629   46.5890   -4.8404 H   0  0  0  0  0  0  0  0  0  0  0  0
   20.8713   45.0126   -8.9981 H   0  0  0  0  0  0  0  0  0  0  0  0
   17.2190   44.2534   -6.8398 H   0  0  0  0  0  0  0  0  0  0  0  0
   17.6936   42.7970  -10.8670 H   0  0  0  0  0  0  0  0  0  0  0  0
   16.9987   41.1134   -8.9457 H   0  0  0  0  0  0  0  0  0  0  0  0
   14.5095   38.2052   -6.5517 H   0  0  0  0  0  0  0  0  0  0  0  0
   16.4591   40.9245   -6.4414 H   0  0  0  0  0  0  0  0  0  0  0  0
   15.6601   39.7494   -5.4471 H   0  0  0  0  0  0  0  0  0  0  0  0
   16.6440   38.0857   -6.6406 H   0  0  0  0  0  0  0  0  0  0  0  0
   14.4323   38.7676  -10.0384 H   0  0  0  0  0  0  0  0  0  0  0  0
   15.2251   40.0043  -10.9591 H   0  0  0  0  0  0  0  0  0  0  0  0
   17.7497   40.3252  -10.7513 H   0  0  0  0  0  0  0  0  0  0  0  0
   19.9479   36.9499   -9.2402 H   0  0  0  0  0  0  0  0  0  0  0  0
   17.8100   35.8159   -8.6546 H   0  0  0  0  0  0  0  0  0  0  0  0
   15.6629   36.9564   -9.0623 H   0  0  0  0  0  0  0  0  0  0  0  0
   19.8406   40.5359  -11.9174 H   0  0  0  0  0  0  0  0  0  0  0  0
   19.8139   41.1980  -10.2744 H   0  0  0  0  0  0  0  0  0  0  0  0
   22.2495   40.9574  -10.0637 H   0  0  0  0  0  0  0  0  0  0  0  0
   22.3363   40.1246  -11.5876 H   0  0  0  0  0  0  0  0  0  0  0  0
   23.1310   42.3400  -11.9284 H   0  0  0  0  0  0  0  0  0  0  0  0
   21.6599   42.1502  -12.8220 H   0  0  0  0  0  0  0  0  0  0  0  0
   21.8953   43.4478  -10.0651 H   0  0  0  0  0  0  0  0  0  0  0  0
   21.9794   44.3784  -11.5454 H   0  0  0  0  0  0  0  0  0  0  0  0
  1  2  1  0  0  0  0
  1 35  1  0  0  0  0
  1 36  1  0  0  0  0
  1 37  1  0  0  0  0
  2  3  1  0  0  0  0
  2  4  1  0  0  0  0
  3 38  1  0  0  0  0
  3 39  1  0  0  0  0
  3 40  1  0  0  0  0
  4  5  2  0  0  0  0
  4  6  1  0  0  0  0
  6  7  1  0  0  0  0
  6  8  2  0  0  0  0
  7 11  2  0  0  0  0
  7 41  1  0  0  0  0
  8  9  1  0  0  0  0
  8 42  1  0  0  0  0
  9 10  2  0  0  0  0
  9 12  1  0  0  0  0
 10 11  1  0  0  0  0
 10 43  1  0  0  0  0
 11 32  1  0  0  0  0
 12 13  2  0  0  0  0
 12 14  1  0  0  0  0
 14 15  1  0  0  0  0
 14 44  1  0  0  0  0
 15 33  1  6  0  0  0
 15 16  1  0  0  0  0
 15 20  1  0  0  0  0
 16 34  1  1  0  0  0
 16 17  1  0  0  0  0
 16 18  1  0  0  0  0
 17 45  1  0  0  0  0
 18 19  1  0  0  0  0
 18 46  1  0  0  0  0
 18 47  1  0  0  0  0
 19 48  1  0  0  0  0
 20 21  1  0  0  0  0
 20 49  1  0  0  0  0
 20 50  1  0  0  0  0
 21 26  1  0  0  0  0
 21 22  2  0  0  0  0
 22 23  1  0  0  0  0
 22 51  1  0  0  0  0
 23 24  2  0  0  0  0
 23 27  1  0  0  0  0
 24 25  1  0  0  0  0
 24 52  1  0  0  0  0
 25 26  2  0  0  0  0
 25 53  1  0  0  0  0
 26 54  1  0  0  0  0
 27 28  1  0  0  0  0
 28 29  1  0  0  0  0
 28 55  1  0  0  0  0
 28 56  1  0  0  0  0
 29 30  1  0  0  0  0
 29 57  1  0  0  0  0
 29 58  1  0  0  0  0
 30 31  1  0  0  0  0
 30 59  1  0  0  0  0
 30 60  1  0  0  0  0
 31 32  1  0  0  0  0
 31 61  1  0  0  0  0
 31 62  1  0  0  0  0
M  END
>  <s_m_source_file>
BACE_17.smi

>  <i_m_source_file_index>
1

>  <i_lp_mmshare_version>
42013

>  <i_f3d_flags>
0

>  <s_epik_input>
W0NIM11OKFtDSDNdKUMoPU8pYyhbY0hdYzEyKVtjSF1jKFtjSF0xKU9bQ0gyXVtDSDJdW0NIMl1bQ0gyXU9jM1tjSF1jKFtjSF1bY0hdW2NIXTMpW0NIMl1bQ0BIXShbTkhdQzI9TylbQ0BASF0oW09IXSlbQ0gyXVtPSF0=

>  <s_epik_cmdline>
J2VwaWtfcHl0aG9uJywgJy1waCcsICc3LjAnLCAnLXRuJywgJzgnLCAnLW1hJywgJzIwMCcsICctaW1hZScsICc8aW5maWxlLm1hZT4nLCAnLW9tYWUnLCAnPG91dGZpbGUubWFlPic=

>  <r_lp_tautomer_probability>
1

>  <r_epik_Ionization_Penalty>
0

>  <r_epik_Ionization_Penalty_Charging>
0

>  <r_epik_Ionization_Penalty_Neutral>
0

>  <r_epik_State_Penalty>
-0

>  <r_epik_Charging_Adjusted_Penalty>
0

>  <i_epik_Tot_Q>
0

>  <i_epik_Tot_abs_Q>
0

>  <s_lp_Force_Field>
OPLS_2005

>  <r_lp_Energy>
47.913

>  <b_lp_Chiralities_Consistent>
1

>  <s_lp_Variant>
BACE_17.smi:1-1

>  <chiral flag>
1

>  <version>
0

>  <r_i_glide_lipo>
-0.567811

>  <r_i_glide_hbond>
0

>  <r_i_glide_metal>
-0

>  <r_i_glide_rewards>
-0.490634

>  <r_i_glide_erotb>
0.306172

>  <r_i_glide_esite>
-0.00811059

>  <s_i_glide_gridfile>
second_dock_grid_2

>  <i_i_glide_lignum>
34

>  <i_i_glide_rotatable_bonds>
6

>  <r_i_docking_score>
-3.68621

>  <r_i_glide_ligand_efficiency>
-0.115194

>  <r_i_glide_ligand_efficiency_sa>
-0.365718

>  <r_i_glide_ligand_efficiency_ln>
-0.825443

>  <r_glide_XP_GScore>
-3.68621

>  <r_i_glide_gscore>
-3.68621

>  <r_i_glide_evdw>
-32.8927

>  <r_i_glide_ecoul>
-8.13761

>  <r_i_glide_energy>
-41.0303

>  <r_i_glide_einternal>
6.40259

>  <r_i_glide_emodel>
-52.9891

>  <r_glide_XP_HBond>
-1.21716

>  <i_i_glide_confnum>
1

>  <i_i_glide_posenum>
5

>  <r_i_glide_eff_state_penalty>
-0

>  <i_glide_XP_PoseRank>
9

>  <chiral flag>
1

$$$$
