BACE_19.smi:1
 OpenBabel10031817133D
Structure written by MMmdl.
 76 77  0  0  1  0  0  0  0  0999 V2000
   27.3990   43.7608  -12.8413 C   0  0  0  0  0  0  0  0  0  0  0  0
   28.3424   42.7483  -12.1778 C   0  0  0  0  0  0  0  0  0  0  0  0
   27.9386   42.3337  -10.7510 C   0  0  0  0  0  0  0  0  0  0  0  0
   26.7122   41.4027  -10.6467 C   0  0  0  0  0  0  0  0  0  0  0  0
   25.4444   42.0303  -11.0018 N   0  0  0  0  0  0  0  0  0  0  0  0
   24.8311   43.0334  -10.3603 C   0  0  0  0  0  0  0  0  0  0  0  0
   25.2988   43.5876   -9.3657 O   0  0  0  0  0  0  0  0  0  0  0  0
   23.4747   43.4697  -10.9348 C   0  0  2  0  0  0  0  0  0  0  0  0
   23.6668   44.6262  -11.9319 C   0  0  0  0  0  0  0  0  0  0  0  0
   22.4712   43.8445   -9.8157 C   0  0  0  0  0  0  0  0  0  0  0  0
   20.9852   43.6696  -10.2090 C   0  0  1  0  0  0  0  0  0  0  0  0
   20.3692   42.3060   -9.7765 C   0  0  2  0  0  0  0  0  0  0  0  0
   21.1138   41.0603  -10.3429 C   0  0  0  0  0  0  0  0  0  0  0  0
   20.5884   39.6483   -9.9654 C   0  0  1  0  0  0  0  0  0  0  0  0
   20.2952   39.4987   -8.4473 C   0  0  0  0  0  0  0  0  0  0  0  0
   19.5804   38.2082   -7.9906 C   0  0  0  0  0  0  0  0  0  0  0  0
   18.0738   38.2470   -8.1983 C   0  0  0  0  0  0  0  0  0  0  0  0
   17.4394   37.2532   -8.9709 C   0  0  0  0  0  0  0  0  0  0  0  0
   16.0602   37.3407   -9.2402 C   0  0  0  0  0  0  0  0  0  0  0  0
   15.3083   38.4225   -8.7430 C   0  0  0  0  0  0  0  0  0  0  0  0
   15.9332   39.4141   -7.9591 C   0  0  0  0  0  0  0  0  0  0  0  0
   17.3052   39.3024   -7.6584 C   0  0  0  0  0  0  0  0  0  0  0  0
   15.1539   40.6444   -7.5273 C   0  0  0  0  0  0  0  0  0  0  0  0
   15.7734   42.1491   -8.4267 S   0  0  0  0  0  0  0  0  0  0  0  0
   14.7042   43.1611   -8.4447 O   0  0  0  0  0  0  0  0  0  0  0  0
   17.1004   42.5135   -7.9042 O   0  0  0  0  0  0  0  0  0  0  0  0
   16.0213   41.5432  -10.1637 C   0  0  0  0  0  0  0  0  0  0  0  0
   16.7334   42.5345  -11.1237 C   0  0  2  0  0  0  0  0  0  0  0  0
   18.2681   42.4139  -11.1771 C   0  0  0  0  0  0  0  0  0  0  0  0
   18.8397   42.4706  -12.2669 O   0  0  0  0  0  0  0  0  0  0  0  0
   18.9192   42.2721  -10.0121 N   0  0  0  0  0  0  0  0  0  0  0  0
   16.2930   44.0027  -11.0065 C   0  0  0  0  0  0  0  0  0  0  0  0
   19.4664   39.1723  -10.9054 C   0  0  0  0  0  0  0  0  0  0  0  0
   20.2621   44.7044   -9.5621 O   0  0  0  0  0  0  0  0  0  0  0  0
   23.0769   42.6196  -11.4906 H   0  0  0  0  0  0  0  0  0  0  0  0
   20.8735   43.8207  -11.2840 H   0  0  0  0  0  0  0  0  0  0  0  0
   20.4753   42.2730   -8.6925 H   0  0  0  0  0  0  0  0  0  0  0  0
   21.4145   38.9669  -10.1779 H   0  0  0  0  0  0  0  0  0  0  0  0
   16.4359   42.2054  -12.1159 H   0  0  0  0  0  0  0  0  0  0  0  0
   27.8553   44.1785  -13.7379 H   0  0  0  0  0  0  0  0  0  0  0  0
   27.1667   44.5898  -12.1689 H   0  0  0  0  0  0  0  0  0  0  0  0
   26.4611   43.2930  -13.1422 H   0  0  0  0  0  0  0  0  0  0  0  0
   28.4500   41.8670  -12.8117 H   0  0  0  0  0  0  0  0  0  0  0  0
   29.3343   43.1999  -12.1258 H   0  0  0  0  0  0  0  0  0  0  0  0
   28.7863   41.7995  -10.3219 H   0  0  0  0  0  0  0  0  0  0  0  0
   27.8109   43.2157  -10.1242 H   0  0  0  0  0  0  0  0  0  0  0  0
   26.8555   40.5493  -11.3080 H   0  0  0  0  0  0  0  0  0  0  0  0
   26.6301   40.9963   -9.6400 H   0  0  0  0  0  0  0  0  0  0  0  0
   24.9593   41.6269  -11.7962 H   0  0  0  0  0  0  0  0  0  0  0  0
   24.3354   44.3413  -12.7445 H   0  0  0  0  0  0  0  0  0  0  0  0
   24.0900   45.5084  -11.4483 H   0  0  0  0  0  0  0  0  0  0  0  0
   22.7202   44.9193  -12.3856 H   0  0  0  0  0  0  0  0  0  0  0  0
   22.6662   43.2781   -8.9041 H   0  0  0  0  0  0  0  0  0  0  0  0
   22.6626   44.8836   -9.5398 H   0  0  0  0  0  0  0  0  0  0  0  0
   21.1789   41.1408  -11.4287 H   0  0  0  0  0  0  0  0  0  0  0  0
   22.1449   41.1068   -9.9925 H   0  0  0  0  0  0  0  0  0  0  0  0
   21.2553   39.5452   -7.9324 H   0  0  0  0  0  0  0  0  0  0  0  0
   19.7352   40.3489   -8.0677 H   0  0  0  0  0  0  0  0  0  0  0  0
   20.0135   37.3504   -8.5028 H   0  0  0  0  0  0  0  0  0  0  0  0
   19.7530   38.0581   -6.9247 H   0  0  0  0  0  0  0  0  0  0  0  0
   18.0119   36.4353   -9.3814 H   0  0  0  0  0  0  0  0  0  0  0  0
   15.5846   36.5843   -9.8469 H   0  0  0  0  0  0  0  0  0  0  0  0
   14.2561   38.4948   -8.9806 H   0  0  0  0  0  0  0  0  0  0  0  0
   17.7772   40.0643   -7.0550 H   0  0  0  0  0  0  0  0  0  0  0  0
   14.0879   40.5133   -7.7430 H   0  0  0  0  0  0  0  0  0  0  0  0
   15.2519   40.8147   -6.4521 H   0  0  0  0  0  0  0  0  0  0  0  0
   16.5785   40.6110  -10.1308 H   0  0  0  0  0  0  0  0  0  0  0  0
   15.0320   41.2881  -10.5412 H   0  0  0  0  0  0  0  0  0  0  0  0
   18.3386   42.2534   -9.1783 H   0  0  0  0  0  0  0  0  0  0  0  0
   16.7387   44.6117  -11.7943 H   0  0  0  0  0  0  0  0  0  0  0  0
   16.5951   44.4382  -10.0532 H   0  0  0  0  0  0  0  0  0  0  0  0
   15.2107   44.0950  -11.0901 H   0  0  0  0  0  0  0  0  0  0  0  0
   18.5091   39.6224  -10.6614 H   0  0  0  0  0  0  0  0  0  0  0  0
   19.3400   38.0917  -10.8513 H   0  0  0  0  0  0  0  0  0  0  0  0
   19.6888   39.4075  -11.9463 H   0  0  0  0  0  0  0  0  0  0  0  0
   20.2520   44.5268   -8.6342 H   0  0  0  0  0  0  0  0  0  0  0  0
  1  2  1  0  0  0  0
  1 40  1  0  0  0  0
  1 41  1  0  0  0  0
  1 42  1  0  0  0  0
  2  3  1  0  0  0  0
  2 43  1  0  0  0  0
  2 44  1  0  0  0  0
  3  4  1  0  0  0  0
  3 45  1  0  0  0  0
  3 46  1  0  0  0  0
  4  5  1  0  0  0  0
  4 47  1  0  0  0  0
  4 48  1  0  0  0  0
  5  6  1  0  0  0  0
  5 49  1  0  0  0  0
  6  7  2  0  0  0  0
  6  8  1  0  0  0  0
  8 35  1  6  0  0  0
  8  9  1  0  0  0  0
  8 10  1  0  0  0  0
  9 50  1  0  0  0  0
  9 51  1  0  0  0  0
  9 52  1  0  0  0  0
 10 11  1  0  0  0  0
 10 53  1  0  0  0  0
 10 54  1  0  0  0  0
 11 36  1  6  0  0  0
 11 12  1  0  0  0  0
 11 34  1  0  0  0  0
 12 37  1  1  0  0  0
 12 31  1  0  0  0  0
 12 13  1  0  0  0  0
 13 14  1  0  0  0  0
 13 55  1  0  0  0  0
 13 56  1  0  0  0  0
 14 38  1  6  0  0  0
 14 15  1  0  0  0  0
 14 33  1  0  0  0  0
 15 16  1  0  0  0  0
 15 57  1  0  0  0  0
 15 58  1  0  0  0  0
 16 17  1  0  0  0  0
 16 59  1  0  0  0  0
 16 60  1  0  0  0  0
 17 22  1  0  0  0  0
 17 18  2  0  0  0  0
 18 19  1  0  0  0  0
 18 61  1  0  0  0  0
 19 20  2  0  0  0  0
 19 62  1  0  0  0  0
 20 21  1  0  0  0  0
 20 63  1  0  0  0  0
 21 22  2  0  0  0  0
 21 23  1  0  0  0  0
 22 64  1  0  0  0  0
 23 24  1  0  0  0  0
 23 65  1  0  0  0  0
 23 66  1  0  0  0  0
 24 25  2  0  0  0  0
 24 26  2  0  0  0  0
 24 27  1  0  0  0  0
 27 28  1  0  0  0  0
 27 67  1  0  0  0  0
 27 68  1  0  0  0  0
 28 39  1  6  0  0  0
 28 29  1  0  0  0  0
 28 32  1  0  0  0  0
 29 30  2  0  0  0  0
 29 31  1  0  0  0  0
 31 69  1  0  0  0  0
 32 70  1  0  0  0  0
 32 71  1  0  0  0  0
 32 72  1  0  0  0  0
 33 73  1  0  0  0  0
 33 74  1  0  0  0  0
 33 75  1  0  0  0  0
 34 76  1  0  0  0  0
M  END
>  <s_m_source_file>
BACE_19.smi

>  <i_m_source_file_index>
1

>  <i_lp_mmshare_version>
42013

>  <i_f3d_flags>
0

>  <s_epik_input>
W0NIM11bQ0gyXVtDSDJdW0NIMl1bTkhdQyg9TylbQ0BIXShbQ0gzXSlbQ0gyXVtDQEhdKFtPSF0pW0NASF0oW0NIMl1bQ0BIXShbQ0gzXSlbQ0gyXVtDSDJdMSlbTkhdQyg9TylbQ0BIXShbQ0gzXSlbQ0gyXVMoPU8pKD1PKVtDSDJdYyhbY0hdMilbY0hdW2NIXVtjSF1jMTI=

>  <s_epik_cmdline>
J2VwaWtfcHl0aG9uJywgJy1waCcsICc3LjAnLCAnLXRuJywgJzgnLCAnLW1hJywgJzIwMCcsICctaW1hZScsICc8aW5maWxlLm1hZT4nLCAnLW9tYWUnLCAnPG91dGZpbGUubWFlPic=

>  <r_lp_tautomer_probability>
1

>  <r_epik_Ionization_Penalty>
0

>  <r_epik_Ionization_Penalty_Charging>
0

>  <r_epik_Ionization_Penalty_Neutral>
0

>  <r_epik_State_Penalty>
-0

>  <r_epik_Charging_Adjusted_Penalty>
0

>  <i_epik_Tot_Q>
0

>  <i_epik_Tot_abs_Q>
0

>  <s_lp_Force_Field>
OPLS_2005

>  <r_lp_Energy>
20.3216

>  <b_lp_Chiralities_Consistent>
1

>  <s_lp_Variant>
BACE_19.smi:1-1

>  <chiral flag>
1

>  <version>
0

>  <r_i_glide_lipo>
-1.11123

>  <r_i_glide_hbond>
-0.357278

>  <r_i_glide_metal>
-0

>  <r_i_glide_rewards>
-0.0961787

>  <r_i_glide_erotb>
0.582966

>  <r_i_glide_esite>
-0.165645

>  <s_i_glide_gridfile>
second_dock_grid_2

>  <i_i_glide_lignum>
36

>  <i_i_glide_rotatable_bonds>
9

>  <r_i_docking_score>
-3.04692

>  <r_i_glide_ligand_efficiency>
-0.0896154

>  <r_i_glide_ligand_efficiency_sa>
-0.290319

>  <r_i_glide_ligand_efficiency_ln>
-0.673151

>  <r_glide_XP_GScore>
-3.04692

>  <r_i_glide_gscore>
-3.04692

>  <r_i_glide_evdw>
-38.7235

>  <r_i_glide_ecoul>
-6.45526

>  <r_i_glide_energy>
-45.1788

>  <r_i_glide_einternal>
7.3074

>  <r_i_glide_emodel>
-57.8445

>  <r_glide_XP_HBond>
-0.585493

>  <i_i_glide_confnum>
1

>  <i_i_glide_posenum>
29

>  <r_i_glide_eff_state_penalty>
-0

>  <i_glide_XP_PoseRank>
8

>  <chiral flag>
1

$$$$
