BACE_13.smi:1
 OpenBabel10031817133D
Structure written by MMmdl.
 76 79  0  0  1  0  0  0  0  0999 V2000
   19.9088   49.6530   -6.7045 C   0  0  0  0  0  0  0  0  0  0  0  0
   20.7858   49.5342   -7.8124 O   0  0  0  0  0  0  0  0  0  0  0  0
   21.7450   48.4933   -7.6833 C   0  0  0  0  0  0  0  0  0  0  0  0
   21.1372   47.1016   -7.6983 C   0  0  0  0  0  0  0  0  0  0  0  0
   20.7360   46.5112   -8.9146 C   0  0  0  0  0  0  0  0  0  0  0  0
   20.1842   45.2102   -8.9338 C   0  0  0  0  0  0  0  0  0  0  0  0
   20.0178   44.5180   -7.7113 C   0  0  0  0  0  0  0  0  0  0  0  0
   20.4148   45.1046   -6.4822 C   0  0  0  0  0  0  0  0  0  0  0  0
   20.9756   46.3952   -6.4899 C   0  0  0  0  0  0  0  0  0  0  0  0
   20.2708   44.4672   -5.2405 N   0  0  0  0  0  0  0  0  0  0  0  0
   20.0621   43.0263   -5.1589 C   0  0  0  0  0  0  0  0  0  0  0  0
   21.3256   42.2222   -5.4958 C   0  0  0  0  0  0  0  0  0  0  0  0
   21.0764   40.7049   -5.4520 C   0  0  0  0  0  0  0  0  0  0  0  0
   22.2470   39.8950   -6.0407 C   0  0  0  0  0  0  0  0  0  0  0  0
   22.4597   40.2191   -7.4130 O   0  0  0  0  0  0  0  0  0  0  0  0
   21.5091   39.8453   -8.3408 C   0  0  0  0  0  0  0  0  0  0  0  0
   20.6392   38.7360   -8.1886 C   0  0  0  0  0  0  0  0  0  0  0  0
   19.7003   38.4263   -9.1922 C   0  0  0  0  0  0  0  0  0  0  0  0
   19.6093   39.2228  -10.3479 C   0  0  0  0  0  0  0  0  0  0  0  0
   20.4533   40.3455  -10.5016 C   0  0  0  0  0  0  0  0  0  0  0  0
   21.4174   40.6275   -9.5107 C   0  0  0  0  0  0  0  0  0  0  0  0
   20.3413   41.2245  -11.7416 C   0  0  0  0  0  0  0  0  0  0  0  0
   19.5153   42.5348  -11.5879 C   0  0  2  0  0  0  0  0  0  0  0  0
   19.8818   43.2833  -10.3784 N   0  0  0  0  0  0  0  0  0  0  0  0
   19.7277   44.6127  -10.2358 C   0  0  0  0  0  0  0  0  0  0  0  0
   19.2644   45.3253  -11.1269 O   0  0  0  0  0  0  0  0  0  0  0  0
   17.9703   42.3521  -11.7625 C   0  0  1  0  0  0  0  0  0  0  0  0
   17.0980   42.4271  -10.4786 C   0  0  1  0  0  0  0  0  0  0  0  0
   15.5850   42.3567  -10.7934 C   0  0  0  0  0  0  0  0  0  0  0  0
   14.8134   42.3157   -9.5961 O   0  0  0  0  0  0  0  0  0  0  0  0
   15.1468   41.2293   -8.7288 C   0  0  2  0  0  0  0  0  0  0  0  0
   16.6386   41.3185   -8.3641 C   0  0  0  0  0  0  0  0  0  0  0  0
   17.4535   41.3367   -9.5731 N   0  0  0  0  0  0  0  0  0  0  0  0
   14.7349   39.8588   -9.3260 C   0  0  0  0  0  0  0  0  0  0  0  0
   15.0869   38.7575   -8.5041 O   0  0  0  0  0  0  0  0  0  0  0  0
   14.4606   38.7595   -7.2336 C   0  0  0  0  0  0  0  0  0  0  0  0
   17.5332   43.3383  -12.6873 O   0  0  0  0  0  0  0  0  0  0  0  0
   19.8404   43.1317  -12.4366 H   0  0  0  0  0  0  0  0  0  0  0  0
   17.7788   41.3931  -12.2464 H   0  0  0  0  0  0  0  0  0  0  0  0
   17.2695   43.3776   -9.9724 H   0  0  0  0  0  0  0  0  0  0  0  0
   14.5710   41.3921   -7.8175 H   0  0  0  0  0  0  0  0  0  0  0  0
   19.2688   50.5227   -6.8478 H   0  0  0  0  0  0  0  0  0  0  0  0
   20.4605   49.7899   -5.7708 H   0  0  0  0  0  0  0  0  0  0  0  0
   19.2625   48.7782   -6.6075 H   0  0  0  0  0  0  0  0  0  0  0  0
   22.3369   48.6405   -6.7788 H   0  0  0  0  0  0  0  0  0  0  0  0
   22.4431   48.5708   -8.5171 H   0  0  0  0  0  0  0  0  0  0  0  0
   20.8535   47.0606   -9.8380 H   0  0  0  0  0  0  0  0  0  0  0  0
   19.5678   43.5384   -7.7288 H   0  0  0  0  0  0  0  0  0  0  0  0
   21.2847   46.8525   -5.5607 H   0  0  0  0  0  0  0  0  0  0  0  0
   20.6426   44.9087   -4.4050 H   0  0  0  0  0  0  0  0  0  0  0  0
   19.2604   42.7334   -5.8285 H   0  0  0  0  0  0  0  0  0  0  0  0
   19.7269   42.7838   -4.1502 H   0  0  0  0  0  0  0  0  0  0  0  0
   22.1328   42.4838   -4.8104 H   0  0  0  0  0  0  0  0  0  0  0  0
   21.6706   42.4979   -6.4918 H   0  0  0  0  0  0  0  0  0  0  0  0
   20.1562   40.4651   -5.9862 H   0  0  0  0  0  0  0  0  0  0  0  0
   20.9101   40.3955   -4.4186 H   0  0  0  0  0  0  0  0  0  0  0  0
   22.1256   38.8228   -5.8926 H   0  0  0  0  0  0  0  0  0  0  0  0
   23.1564   40.1520   -5.4969 H   0  0  0  0  0  0  0  0  0  0  0  0
   20.6753   38.1080   -7.3124 H   0  0  0  0  0  0  0  0  0  0  0  0
   19.0424   37.5765   -9.0685 H   0  0  0  0  0  0  0  0  0  0  0  0
   18.8736   38.9846  -11.1027 H   0  0  0  0  0  0  0  0  0  0  0  0
   22.0880   41.4686   -9.6309 H   0  0  0  0  0  0  0  0  0  0  0  0
   19.9601   40.6293  -12.5731 H   0  0  0  0  0  0  0  0  0  0  0  0
   21.3596   41.4908  -12.0321 H   0  0  0  0  0  0  0  0  0  0  0  0
   20.3055   42.7649   -9.6221 H   0  0  0  0  0  0  0  0  0  0  0  0
   15.3550   41.5089  -11.4378 H   0  0  0  0  0  0  0  0  0  0  0  0
   15.2729   43.2442  -11.3448 H   0  0  0  0  0  0  0  0  0  0  0  0
   16.9295   40.4843   -7.7249 H   0  0  0  0  0  0  0  0  0  0  0  0
   16.8150   42.2231   -7.7813 H   0  0  0  0  0  0  0  0  0  0  0  0
   18.4394   41.3699   -9.3345 H   0  0  0  0  0  0  0  0  0  0  0  0
   13.6644   39.8411   -9.5390 H   0  0  0  0  0  0  0  0  0  0  0  0
   15.2332   39.6780  -10.2773 H   0  0  0  0  0  0  0  0  0  0  0  0
   14.4600   37.7495   -6.8399 H   0  0  0  0  0  0  0  0  0  0  0  0
   13.4280   39.0849   -7.3024 H   0  0  0  0  0  0  0  0  0  0  0  0
   14.9688   39.4062   -6.5199 H   0  0  0  0  0  0  0  0  0  0  0  0
   17.8389   44.1819  -12.3693 H   0  0  0  0  0  0  0  0  0  0  0  0
  1  2  1  0  0  0  0
  1 42  1  0  0  0  0
  1 43  1  0  0  0  0
  1 44  1  0  0  0  0
  2  3  1  0  0  0  0
  3  4  1  0  0  0  0
  3 45  1  0  0  0  0
  3 46  1  0  0  0  0
  4  9  1  0  0  0  0
  4  5  2  0  0  0  0
  5  6  1  0  0  0  0
  5 47  1  0  0  0  0
  6 25  1  0  0  0  0
  6  7  2  0  0  0  0
  7  8  1  0  0  0  0
  7 48  1  0  0  0  0
  8  9  2  0  0  0  0
  8 10  1  0  0  0  0
  9 49  1  0  0  0  0
 10 11  1  0  0  0  0
 10 50  1  0  0  0  0
 11 12  1  0  0  0  0
 11 51  1  0  0  0  0
 11 52  1  0  0  0  0
 12 13  1  0  0  0  0
 12 53  1  0  0  0  0
 12 54  1  0  0  0  0
 13 14  1  0  0  0  0
 13 55  1  0  0  0  0
 13 56  1  0  0  0  0
 14 15  1  0  0  0  0
 14 57  1  0  0  0  0
 14 58  1  0  0  0  0
 15 16  1  0  0  0  0
 16 21  1  0  0  0  0
 16 17  2  0  0  0  0
 17 18  1  0  0  0  0
 17 59  1  0  0  0  0
 18 19  2  0  0  0  0
 18 60  1  0  0  0  0
 19 20  1  0  0  0  0
 19 61  1  0  0  0  0
 20 21  2  0  0  0  0
 20 22  1  0  0  0  0
 21 62  1  0  0  0  0
 22 23  1  0  0  0  0
 22 63  1  0  0  0  0
 22 64  1  0  0  0  0
 23 38  1  6  0  0  0
 23 24  1  0  0  0  0
 23 27  1  0  0  0  0
 24 25  1  0  0  0  0
 24 65  1  0  0  0  0
 25 26  2  0  0  0  0
 27 39  1  6  0  0  0
 27 28  1  0  0  0  0
 27 37  1  0  0  0  0
 28 40  1  1  0  0  0
 28 33  1  0  0  0  0
 28 29  1  0  0  0  0
 29 30  1  0  0  0  0
 29 66  1  0  0  0  0
 29 67  1  0  0  0  0
 30 31  1  0  0  0  0
 31 41  1  1  0  0  0
 31 32  1  0  0  0  0
 31 34  1  0  0  0  0
 32 33  1  0  0  0  0
 32 68  1  0  0  0  0
 32 69  1  0  0  0  0
 33 70  1  0  0  0  0
 34 35  1  0  0  0  0
 34 71  1  0  0  0  0
 34 72  1  0  0  0  0
 35 36  1  0  0  0  0
 36 73  1  0  0  0  0
 36 74  1  0  0  0  0
 36 75  1  0  0  0  0
 37 76  1  0  0  0  0
M  END
>  <s_m_source_file>
BACE_13.smi

>  <i_m_source_file_index>
1

>  <i_lp_mmshare_version>
42013

>  <i_f3d_flags>
0

>  <s_epik_input>
W0NIM11PW0NIMl1jKFtjSF1jMTIpW2NIXWMoW2NIXTEpW05IXVtDSDJdW0NIMl1bQ0gyXVtDSDJdT2MzW2NIXVtjSF1bY0hdYyhbY0hdMylbQ0gyXVtDQEhdKFtOSF1DMj1PKVtDQEhdKFtPSF0pW0NASF00W0NIMl1PW0NASF0oW0NIMl1bTkhdNClbQ0gyXU9bQ0gzXQ==

>  <s_epik_cmdline>
J2VwaWtfcHl0aG9uJywgJy1waCcsICc3LjAnLCAnLXRuJywgJzgnLCAnLW1hJywgJzIwMCcsICctaW1hZScsICc8aW5maWxlLm1hZT4nLCAnLW9tYWUnLCAnPG91dGZpbGUubWFlPic=

>  <r_lp_tautomer_probability>
1

>  <r_epik_Ionization_Penalty>
1.0247

>  <r_epik_Ionization_Penalty_Charging>
0

>  <r_epik_Ionization_Penalty_Neutral>
1.0247

>  <r_epik_State_Penalty>
1.0749

>  <r_epik_Charging_Adjusted_Penalty>
1.07494

>  <i_epik_Tot_Q>
0

>  <i_epik_Tot_abs_Q>
0

>  <s_lp_Force_Field>
OPLS_2005

>  <r_lp_Energy>
44.7965

>  <b_lp_Chiralities_Consistent>
1

>  <s_lp_Variant>
BACE_13.smi:1-2

>  <chiral flag>
1

>  <version>
0

>  <r_i_glide_lipo>
-0.805819

>  <r_i_glide_hbond>
-0.734486

>  <r_i_glide_metal>
-0

>  <r_i_glide_rewards>
0

>  <r_i_glide_erotb>
0.310939

>  <r_i_glide_esite>
-0.00333392

>  <s_i_glide_gridfile>
second_dock_grid_2

>  <i_i_glide_lignum>
27

>  <i_i_glide_rotatable_bonds>
7

>  <r_i_docking_score>
-2.26314

>  <r_i_glide_ligand_efficiency>
-0.061166

>  <r_i_glide_ligand_efficiency_sa>
-0.203819

>  <r_i_glide_ligand_efficiency_ln>
-0.490822

>  <r_glide_XP_GScore>
-3.33804

>  <r_i_glide_gscore>
-3.33804

>  <r_i_glide_evdw>
-36.0056

>  <r_i_glide_ecoul>
-7.9325

>  <r_i_glide_energy>
-43.9381

>  <r_i_glide_einternal>
1.43043

>  <r_i_glide_emodel>
-59.2666

>  <r_glide_XP_HBond>
-1.52948

>  <i_i_glide_confnum>
1

>  <i_i_glide_posenum>
42

>  <r_i_glide_eff_state_penalty>
1.0749

>  <i_glide_XP_PoseRank>
6

>  <chiral flag>
1

$$$$
