BACE_2.smi:1
 OpenBabel10031817133D
Structure written by MMmdl.
 95 97  0  0  1  0  0  0  0  0999 V2000
   22.4593   50.6952   -3.2691 C   0  0  0  0  0  0  0  0  0  0  0  0
   23.3660   50.5767   -2.2007 C   0  0  0  0  0  0  0  0  0  0  0  0
   24.2520   49.4810   -2.1406 C   0  0  0  0  0  0  0  0  0  0  0  0
   25.2521   49.3437   -0.9983 C   0  0  0  0  0  0  0  0  0  0  0  0
   26.0685   50.6239   -0.7848 C   0  0  0  0  0  0  0  0  0  0  0  0
   24.5565   48.9303    0.3024 C   0  0  0  0  0  0  0  0  0  0  0  0
   24.1853   48.4873   -3.1400 C   0  0  0  0  0  0  0  0  0  0  0  0
   23.2502   48.5786   -4.1967 C   0  0  0  0  0  0  0  0  0  0  0  0
   22.4201   49.7264   -4.2894 C   0  0  0  0  0  0  0  0  0  0  0  0
   23.0954   47.4253   -5.1891 C   0  0  2  0  0  0  0  0  0  0  0  0
   21.8523   47.6571   -6.0764 C   0  0  0  0  0  0  0  0  0  0  0  0
   21.6864   49.1323   -6.4954 C   0  0  0  0  0  0  0  0  0  0  0  0
   21.5410   49.9379   -5.3281 O   0  0  0  0  0  0  0  0  0  0  0  0
   22.8673   49.6470   -7.3423 C   0  0  0  0  0  0  0  0  0  0  0  0
   20.3778   49.3265   -7.2803 C   0  0  0  0  0  0  0  0  0  0  0  0
   23.0351   46.1564   -4.4393 N   0  0  0  0  0  0  0  0  0  0  0  0
   22.3904   44.9789   -5.0349 C   0  0  0  0  0  0  0  0  0  0  0  0
   23.2911   44.2594   -6.0526 C   0  0  1  0  0  0  0  0  0  0  0  0
   24.0636   43.3586   -5.2791 O   0  0  0  0  0  0  0  0  0  0  0  0
   22.5502   43.4101   -7.1245 C   0  0  1  0  0  0  0  0  0  0  0  0
   21.4507   44.1351   -7.7646 N   0  0  0  0  0  0  0  0  0  0  0  0
   20.1457   43.9913   -7.4759 C   0  0  0  0  0  0  0  0  0  0  0  0
   19.7578   43.3559   -6.4933 O   0  0  0  0  0  0  0  0  0  0  0  0
   19.1430   44.6917   -8.4167 C   0  0  2  0  0  0  0  0  0  0  0  0
   18.5803   45.9747   -7.7778 C   0  0  0  0  0  0  0  0  0  0  0  0
   23.5454   42.8989   -8.1986 C   0  0  0  0  0  0  0  0  0  0  0  0
   22.9947   41.9850   -9.3201 C   0  0  2  0  0  0  0  0  0  0  0  0
   22.2299   42.7490  -10.4142 C   0  0  0  0  0  0  0  0  0  0  0  0
   22.2082   40.7792   -8.7669 C   0  0  0  0  0  0  0  0  0  0  0  0
   21.9187   39.7065   -9.8310 C   0  0  0  0  0  0  0  0  0  0  0  0
   21.3017   38.4161   -9.2658 C   0  0  0  0  0  0  0  0  0  0  0  0
   19.8358   38.5129   -8.8046 C   0  0  0  0  0  0  0  0  0  0  0  0
   18.8499   38.9483   -9.9082 C   0  0  0  0  0  0  0  0  0  0  0  0
   18.3577   40.3840   -9.6893 C   0  0  0  0  0  0  0  0  0  0  0  0
   17.5374   40.9566  -10.8591 C   0  0  0  0  0  0  0  0  0  0  0  0
   16.8953   42.3282  -10.5537 C   0  0  0  0  0  0  0  0  0  0  0  0
   17.9336   43.3932  -10.1472 C   0  0  0  0  0  0  0  0  0  0  0  0
   18.6655   43.8224  -11.0414 O   0  0  0  0  0  0  0  0  0  0  0  0
   18.0382   43.7970   -8.8503 N   0  0  0  0  0  0  0  0  0  0  0  0
   17.0836   43.3359   -7.8283 C   0  0  0  0  0  0  0  0  0  0  0  0
   23.9800   47.4225   -5.8272 H   0  0  0  0  0  0  0  0  0  0  0  0
   23.9414   44.9820   -6.5475 H   0  0  0  0  0  0  0  0  0  0  0  0
   22.1356   42.5374   -6.6176 H   0  0  0  0  0  0  0  0  0  0  0  0
   19.7199   45.0310   -9.2781 H   0  0  0  0  0  0  0  0  0  0  0  0
   23.8813   41.5823   -9.8140 H   0  0  0  0  0  0  0  0  0  0  0  0
   21.7887   51.5438   -3.3076 H   0  0  0  0  0  0  0  0  0  0  0  0
   23.3802   51.3396   -1.4337 H   0  0  0  0  0  0  0  0  0  0  0  0
   25.9530   48.5518   -1.2653 H   0  0  0  0  0  0  0  0  0  0  0  0
   26.5419   50.9443   -1.7142 H   0  0  0  0  0  0  0  0  0  0  0  0
   26.8536   50.4668   -0.0450 H   0  0  0  0  0  0  0  0  0  0  0  0
   25.4512   51.4493   -0.4271 H   0  0  0  0  0  0  0  0  0  0  0  0
   23.9909   48.0062    0.1722 H   0  0  0  0  0  0  0  0  0  0  0  0
   23.8736   49.7124    0.6330 H   0  0  0  0  0  0  0  0  0  0  0  0
   25.2829   48.7676    1.0986 H   0  0  0  0  0  0  0  0  0  0  0  0
   24.8360   47.6270   -3.0758 H   0  0  0  0  0  0  0  0  0  0  0  0
   21.8811   47.0049   -6.9495 H   0  0  0  0  0  0  0  0  0  0  0  0
   20.9567   47.3845   -5.5163 H   0  0  0  0  0  0  0  0  0  0  0  0
   23.0250   49.0165   -8.2186 H   0  0  0  0  0  0  0  0  0  0  0  0
   23.8011   49.6704   -6.7826 H   0  0  0  0  0  0  0  0  0  0  0  0
   22.6819   50.6577   -7.7025 H   0  0  0  0  0  0  0  0  0  0  0  0
   20.3873   48.7589   -8.2094 H   0  0  0  0  0  0  0  0  0  0  0  0
   20.2226   50.3718   -7.5356 H   0  0  0  0  0  0  0  0  0  0  0  0
   19.5153   49.0011   -6.6967 H   0  0  0  0  0  0  0  0  0  0  0  0
   23.9809   45.8880   -4.1765 H   0  0  0  0  0  0  0  0  0  0  0  0
   22.1260   44.2769   -4.2425 H   0  0  0  0  0  0  0  0  0  0  0  0
   21.4325   45.2586   -5.4641 H   0  0  0  0  0  0  0  0  0  0  0  0
   24.4701   43.8259   -4.5578 H   0  0  0  0  0  0  0  0  0  0  0  0
   21.6908   44.6891   -8.5764 H   0  0  0  0  0  0  0  0  0  0  0  0
   19.3908   46.6595   -7.5342 H   0  0  0  0  0  0  0  0  0  0  0  0
   18.0339   45.7826   -6.8562 H   0  0  0  0  0  0  0  0  0  0  0  0
   17.9138   46.4928   -8.4643 H   0  0  0  0  0  0  0  0  0  0  0  0
   24.0520   43.7508   -8.6527 H   0  0  0  0  0  0  0  0  0  0  0  0
   24.3324   42.3430   -7.6830 H   0  0  0  0  0  0  0  0  0  0  0  0
   22.0948   42.1359  -11.3082 H   0  0  0  0  0  0  0  0  0  0  0  0
   22.7727   43.6429  -10.7294 H   0  0  0  0  0  0  0  0  0  0  0  0
   21.2328   43.0575  -10.0843 H   0  0  0  0  0  0  0  0  0  0  0  0
   22.7867   40.3204   -7.9639 H   0  0  0  0  0  0  0  0  0  0  0  0
   21.2732   41.1105   -8.3133 H   0  0  0  0  0  0  0  0  0  0  0  0
   22.8568   39.4456  -10.3208 H   0  0  0  0  0  0  0  0  0  0  0  0
   21.2803   40.1137  -10.6143 H   0  0  0  0  0  0  0  0  0  0  0  0
   21.3568   37.6584  -10.0394 H   0  0  0  0  0  0  0  0  0  0  0  0
   21.9167   38.0440   -8.4464 H   0  0  0  0  0  0  0  0  0  0  0  0
   19.7595   39.1662   -7.9359 H   0  0  0  0  0  0  0  0  0  0  0  0
   19.5302   37.5302   -8.4469 H   0  0  0  0  0  0  0  0  0  0  0  0
   19.3004   38.8428  -10.8961 H   0  0  0  0  0  0  0  0  0  0  0  0
   17.9851   38.2848   -9.9056 H   0  0  0  0  0  0  0  0  0  0  0  0
   19.2158   41.0291   -9.5015 H   0  0  0  0  0  0  0  0  0  0  0  0
   17.7545   40.4004   -8.7823 H   0  0  0  0  0  0  0  0  0  0  0  0
   18.1796   41.0403  -11.7376 H   0  0  0  0  0  0  0  0  0  0  0  0
   16.7503   40.2514  -11.1297 H   0  0  0  0  0  0  0  0  0  0  0  0
   16.1006   42.2016   -9.8225 H   0  0  0  0  0  0  0  0  0  0  0  0
   16.3904   42.6883  -11.4488 H   0  0  0  0  0  0  0  0  0  0  0  0
   17.2863   43.7362   -6.8372 H   0  0  0  0  0  0  0  0  0  0  0  0
   17.0997   42.2496   -7.7242 H   0  0  0  0  0  0  0  0  0  0  0  0
   16.0704   43.6454   -8.0768 H   0  0  0  0  0  0  0  0  0  0  0  0
  1  9  1  0  0  0  0
  1  2  2  0  0  0  0
  1 46  1  0  0  0  0
  2  3  1  0  0  0  0
  2 47  1  0  0  0  0
  3  4  1  0  0  0  0
  3  7  2  0  0  0  0
  4  5  1  0  0  0  0
  4  6  1  0  0  0  0
  4 48  1  0  0  0  0
  5 49  1  0  0  0  0
  5 50  1  0  0  0  0
  5 51  1  0  0  0  0
  6 52  1  0  0  0  0
  6 53  1  0  0  0  0
  6 54  1  0  0  0  0
  7  8  1  0  0  0  0
  7 55  1  0  0  0  0
  8  9  2  0  0  0  0
  8 10  1  0  0  0  0
  9 13  1  0  0  0  0
 10 41  1  6  0  0  0
 10 11  1  0  0  0  0
 10 16  1  0  0  0  0
 11 12  1  0  0  0  0
 11 56  1  0  0  0  0
 11 57  1  0  0  0  0
 12 13  1  0  0  0  0
 12 14  1  0  0  0  0
 12 15  1  0  0  0  0
 14 58  1  0  0  0  0
 14 59  1  0  0  0  0
 14 60  1  0  0  0  0
 15 61  1  0  0  0  0
 15 62  1  0  0  0  0
 15 63  1  0  0  0  0
 16 17  1  0  0  0  0
 16 64  1  0  0  0  0
 17 18  1  0  0  0  0
 17 65  1  0  0  0  0
 17 66  1  0  0  0  0
 18 42  1  6  0  0  0
 18 19  1  0  0  0  0
 18 20  1  0  0  0  0
 19 67  1  0  0  0  0
 20 43  1  1  0  0  0
 20 21  1  0  0  0  0
 20 26  1  0  0  0  0
 21 22  1  0  0  0  0
 21 68  1  0  0  0  0
 22 23  2  0  0  0  0
 22 24  1  0  0  0  0
 24 44  1  6  0  0  0
 24 39  1  0  0  0  0
 24 25  1  0  0  0  0
 25 69  1  0  0  0  0
 25 70  1  0  0  0  0
 25 71  1  0  0  0  0
 26 27  1  0  0  0  0
 26 72  1  0  0  0  0
 26 73  1  0  0  0  0
 27 45  1  6  0  0  0
 27 28  1  0  0  0  0
 27 29  1  0  0  0  0
 28 74  1  0  0  0  0
 28 75  1  0  0  0  0
 28 76  1  0  0  0  0
 29 30  1  0  0  0  0
 29 77  1  0  0  0  0
 29 78  1  0  0  0  0
 30 31  1  0  0  0  0
 30 79  1  0  0  0  0
 30 80  1  0  0  0  0
 31 32  1  0  0  0  0
 31 81  1  0  0  0  0
 31 82  1  0  0  0  0
 32 33  1  0  0  0  0
 32 83  1  0  0  0  0
 32 84  1  0  0  0  0
 33 34  1  0  0  0  0
 33 85  1  0  0  0  0
 33 86  1  0  0  0  0
 34 35  1  0  0  0  0
 34 87  1  0  0  0  0
 34 88  1  0  0  0  0
 35 36  1  0  0  0  0
 35 89  1  0  0  0  0
 35 90  1  0  0  0  0
 36 37  1  0  0  0  0
 36 91  1  0  0  0  0
 36 92  1  0  0  0  0
 37 38  2  0  0  0  0
 37 39  1  0  0  0  0
 39 40  1  0  0  0  0
 40 93  1  0  0  0  0
 40 94  1  0  0  0  0
 40 95  1  0  0  0  0
M  END
>  <s_m_source_file>
BACE_2.smi

>  <i_m_source_file_index>
1

>  <i_lp_mmshare_version>
42013

>  <i_f3d_flags>
0

>  <s_epik_input>
W0NIM11bQ0hdKFtDSDNdKWMoW2NIXTEpW2NIXVtjSF1jKGMxMilPQyhbQ0gzXSkoW0NIM10pW0NIMl1bQ0BASF0yW05IXVtDSDJdW0NAQEhdKFtPSF0pW0NASF0zW05IXUMoPU8pW0NASF0oW0NIM10pTihbQ0gzXSlDKD1PKVtDSDJdW0NIMl1bQ0gyXVtDSDJdW0NIMl1bQ0gyXVtDSDJdW0NIMl1bQ0BIXShbQ0gyXTMpW0NIM10=

>  <s_epik_cmdline>
J2VwaWtfcHl0aG9uJywgJy1waCcsICc3LjAnLCAnLXRuJywgJzgnLCAnLW1hJywgJzIwMCcsICctaW1hZScsICc8aW5maWxlLm1hZT4nLCAnLW9tYWUnLCAnPG91dGZpbGUubWFlPic=

>  <r_lp_tautomer_probability>
1

>  <r_epik_Ionization_Penalty>
2.0558

>  <r_epik_Ionization_Penalty_Charging>
0

>  <r_epik_Ionization_Penalty_Neutral>
2.0558

>  <r_epik_State_Penalty>
2.1887

>  <r_epik_Charging_Adjusted_Penalty>
2.18867

>  <i_epik_Tot_Q>
0

>  <i_epik_Tot_abs_Q>
0

>  <s_lp_Force_Field>
OPLS_2005

>  <r_lp_Energy>
50.7677

>  <b_lp_Chiralities_Consistent>
1

>  <s_lp_Variant>
BACE_2.smi:1-2

>  <chiral flag>
1

>  <version>
0

>  <r_i_glide_lipo>
-0.560518

>  <r_i_glide_hbond>
-0.557669

>  <r_i_glide_metal>
-0

>  <r_i_glide_rewards>
-0.049716

>  <r_i_glide_erotb>
0.189885

>  <r_i_glide_esite>
-0.00704416

>  <s_i_glide_gridfile>
second_dock_grid_2

>  <i_i_glide_lignum>
3

>  <i_i_glide_rotatable_bonds>
6

>  <r_i_docking_score>
-2.52463

>  <r_i_glide_ligand_efficiency>
-0.0631158

>  <r_i_glide_ligand_efficiency_sa>
-0.215853

>  <r_i_glide_ligand_efficiency_ln>
-0.53843

>  <r_glide_XP_GScore>
-4.71333

>  <r_i_glide_gscore>
-4.71333

>  <r_i_glide_evdw>
-35.9762

>  <r_i_glide_ecoul>
-7.50588

>  <r_i_glide_energy>
-43.4821

>  <r_i_glide_einternal>
9.88225

>  <r_i_glide_emodel>
-55.3494

>  <r_glide_XP_HBond>
-1.34762

>  <i_i_glide_confnum>
1

>  <i_i_glide_posenum>
7

>  <r_i_glide_eff_state_penalty>
2.1887

>  <i_glide_XP_PoseRank>
2

>  <chiral flag>
1

$$$$
