BACE_16.smi:1
 OpenBabel10031817133D
Structure written by MMmdl.
 85 88  0  0  1  0  0  0  0  0999 V2000
   30.4997   41.6024  -11.1755 C   0  0  0  0  0  0  0  0  0  0  0  0
   29.4638   42.4730  -11.9016 C   0  0  0  0  0  0  0  0  0  0  0  0
   30.1161   43.7153  -12.5272 C   0  0  0  0  0  0  0  0  0  0  0  0
   28.2995   42.8616  -10.9977 C   0  0  0  0  0  0  0  0  0  0  0  0
   28.5233   43.5701   -9.7959 C   0  0  0  0  0  0  0  0  0  0  0  0
   27.4380   43.9709   -8.9938 C   0  0  0  0  0  0  0  0  0  0  0  0
   26.1210   43.6720   -9.3897 C   0  0  0  0  0  0  0  0  0  0  0  0
   25.8873   42.9609  -10.5852 C   0  0  0  0  0  0  0  0  0  0  0  0
   26.9778   42.5513  -11.3808 C   0  0  0  0  0  0  0  0  0  0  0  0
   24.4710   42.6622  -11.0312 C   0  0  0  0  0  0  0  0  0  0  0  0
   23.9576   41.4275  -10.4025 N   0  3  0  0  0  0  0  0  0  0  0  0
   23.0404   41.6803   -9.2692 C   0  0  0  0  0  0  0  0  0  0  0  0
   22.5320   40.3836   -8.6001 C   0  0  2  0  0  0  0  0  0  0  0  0
   21.5036   40.6042   -7.4505 C   0  0  2  0  0  0  0  0  0  0  0  0
   20.8870   39.2780   -6.9286 C   0  0  0  0  0  0  0  0  0  0  0  0
   19.6773   38.8056   -7.7274 C   0  0  0  0  0  0  0  0  0  0  0  0
   19.8566   38.0387   -8.8928 C   0  0  0  0  0  0  0  0  0  0  0  0
   18.7395   37.6191   -9.6342 C   0  0  0  0  0  0  0  0  0  0  0  0
   17.4450   38.0115   -9.2564 C   0  0  0  0  0  0  0  0  0  0  0  0
   17.2477   38.8209   -8.1127 C   0  0  0  0  0  0  0  0  0  0  0  0
   18.3703   39.1682   -7.3337 C   0  0  0  0  0  0  0  0  0  0  0  0
   16.0227   39.3185   -7.7166 O   0  0  0  0  0  0  0  0  0  0  0  0
   14.9065   39.1911   -8.5946 C   0  0  0  0  0  0  0  0  0  0  0  0
   15.0163   40.1460   -9.8045 C   0  0  0  0  0  0  0  0  0  0  0  0
   14.7218   41.6119   -9.4458 C   0  0  0  0  0  0  0  0  0  0  0  0
   15.0588   42.6068  -10.5697 C   0  0  0  0  0  0  0  0  0  0  0  0
   16.4669   42.7522  -10.7232 O   0  0  0  0  0  0  0  0  0  0  0  0
   17.1369   43.4077   -9.7146 C   0  0  0  0  0  0  0  0  0  0  0  0
   18.3396   42.8419   -9.2592 C   0  0  0  0  0  0  0  0  0  0  0  0
   19.0693   43.4366   -8.2042 C   0  0  0  0  0  0  0  0  0  0  0  0
   18.6104   44.6469   -7.6450 C   0  0  0  0  0  0  0  0  0  0  0  0
   17.4306   45.2585   -8.1274 C   0  0  0  0  0  0  0  0  0  0  0  0
   16.6878   44.6187   -9.1400 C   0  0  0  0  0  0  0  0  0  0  0  0
   16.9480   46.4558   -7.6532 O   0  0  0  0  0  0  0  0  0  0  0  0
   17.8779   47.4033   -7.1399 C   0  0  0  0  0  0  0  0  0  0  0  0
   17.6596   48.7389   -7.8479 C   0  0  0  0  0  0  0  0  0  0  0  0
   17.7478   49.8033   -7.2403 O   0  0  0  0  0  0  0  0  0  0  0  0
   17.2647   48.7126   -9.3198 C   0  0  0  0  0  0  0  0  0  0  0  0
   20.3433   42.8189   -7.7087 C   0  0  0  0  0  0  0  0  0  0  0  0
   21.2332   43.4994   -7.1988 O   0  0  0  0  0  0  0  0  0  0  0  0
   20.4187   41.4921   -7.8603 N   0  0  0  0  0  0  0  0  0  0  0  0
   23.6602   39.7489   -8.0399 O   0  0  0  0  0  0  0  0  0  0  0  0
   22.0991   39.7338   -9.3610 H   0  0  0  0  0  0  0  0  0  0  0  0
   22.0371   41.0677   -6.6177 H   0  0  0  0  0  0  0  0  0  0  0  0
   30.0600   40.6642  -10.8391 H   0  0  0  0  0  0  0  0  0  0  0  0
   30.9279   42.1143  -10.3125 H   0  0  0  0  0  0  0  0  0  0  0  0
   31.3223   41.3503  -11.8449 H   0  0  0  0  0  0  0  0  0  0  0  0
   29.0653   41.8727  -12.7207 H   0  0  0  0  0  0  0  0  0  0  0  0
   29.3876   44.3032  -13.0849 H   0  0  0  0  0  0  0  0  0  0  0  0
   30.9079   43.4337  -13.2206 H   0  0  0  0  0  0  0  0  0  0  0  0
   30.5576   44.3621  -11.7691 H   0  0  0  0  0  0  0  0  0  0  0  0
   29.5279   43.8248   -9.4922 H   0  0  0  0  0  0  0  0  0  0  0  0
   27.6169   44.5171   -8.0783 H   0  0  0  0  0  0  0  0  0  0  0  0
   25.2952   43.9958   -8.7731 H   0  0  0  0  0  0  0  0  0  0  0  0
   26.7989   42.0149  -12.3015 H   0  0  0  0  0  0  0  0  0  0  0  0
   23.8259   43.5171  -10.8205 H   0  0  0  0  0  0  0  0  0  0  0  0
   24.4589   42.5501  -12.1142 H   0  0  0  0  0  0  0  0  0  0  0  0
   23.4739   40.8980  -11.1171 H   0  0  0  0  0  0  0  0  0  0  0  0
   23.5291   42.3156   -8.5285 H   0  0  0  0  0  0  0  0  0  0  0  0
   22.2023   42.2461   -9.6736 H   0  0  0  0  0  0  0  0  0  0  0  0
   21.6325   38.4832   -6.8830 H   0  0  0  0  0  0  0  0  0  0  0  0
   20.5643   39.4254   -5.8958 H   0  0  0  0  0  0  0  0  0  0  0  0
   20.8470   37.7397   -9.2027 H   0  0  0  0  0  0  0  0  0  0  0  0
   18.8653   36.9919  -10.5028 H   0  0  0  0  0  0  0  0  0  0  0  0
   16.6236   37.6870   -9.8756 H   0  0  0  0  0  0  0  0  0  0  0  0
   18.2210   39.7504   -6.4398 H   0  0  0  0  0  0  0  0  0  0  0  0
   14.7709   38.1569   -8.9089 H   0  0  0  0  0  0  0  0  0  0  0  0
   14.0094   39.4250   -8.0229 H   0  0  0  0  0  0  0  0  0  0  0  0
   16.0011   40.0718  -10.2626 H   0  0  0  0  0  0  0  0  0  0  0  0
   14.3080   39.8264  -10.5681 H   0  0  0  0  0  0  0  0  0  0  0  0
   13.6601   41.6978   -9.2392 H   0  0  0  0  0  0  0  0  0  0  0  0
   15.2324   41.8899   -8.5228 H   0  0  0  0  0  0  0  0  0  0  0  0
   14.6507   42.2414  -11.5117 H   0  0  0  0  0  0  0  0  0  0  0  0
   14.5693   43.5628  -10.3935 H   0  0  0  0  0  0  0  0  0  0  0  0
   18.6747   41.9243   -9.7216 H   0  0  0  0  0  0  0  0  0  0  0  0
   19.1751   45.0929   -6.8397 H   0  0  0  0  0  0  0  0  0  0  0  0
   15.7862   45.0947   -9.4930 H   0  0  0  0  0  0  0  0  0  0  0  0
   17.7292   47.5206   -6.0657 H   0  0  0  0  0  0  0  0  0  0  0  0
   18.9169   47.1233   -7.3068 H   0  0  0  0  0  0  0  0  0  0  0  0
   16.3388   48.1531   -9.4577 H   0  0  0  0  0  0  0  0  0  0  0  0
   18.0487   48.2382   -9.9113 H   0  0  0  0  0  0  0  0  0  0  0  0
   17.1139   49.7258   -9.6936 H   0  0  0  0  0  0  0  0  0  0  0  0
   19.5964   41.0292   -8.2218 H   0  0  0  0  0  0  0  0  0  0  0  0
   24.0470   39.1539   -8.6783 H   0  0  0  0  0  0  0  0  0  0  0  0
   24.7441   40.8790  -10.0791 H   0  0  0  0  0  0  0  0  0  0  0  0
  1  2  1  0  0  0  0
  1 45  1  0  0  0  0
  1 46  1  0  0  0  0
  1 47  1  0  0  0  0
  2  3  1  0  0  0  0
  2  4  1  0  0  0  0
  2 48  1  0  0  0  0
  3 49  1  0  0  0  0
  3 50  1  0  0  0  0
  3 51  1  0  0  0  0
  4  9  1  0  0  0  0
  4  5  2  0  0  0  0
  5  6  1  0  0  0  0
  5 52  1  0  0  0  0
  6  7  2  0  0  0  0
  6 53  1  0  0  0  0
  7  8  1  0  0  0  0
  7 54  1  0  0  0  0
  8  9  2  0  0  0  0
  8 10  1  0  0  0  0
  9 55  1  0  0  0  0
 10 11  1  0  0  0  0
 10 56  1  0  0  0  0
 10 57  1  0  0  0  0
 11 12  1  0  0  0  0
 11 58  1  0  0  0  0
 11 85  1  0  0  0  0
 12 13  1  0  0  0  0
 12 59  1  0  0  0  0
 12 60  1  0  0  0  0
 13 43  1  6  0  0  0
 13 14  1  0  0  0  0
 13 42  1  0  0  0  0
 14 44  1  1  0  0  0
 14 41  1  0  0  0  0
 14 15  1  0  0  0  0
 15 16  1  0  0  0  0
 15 61  1  0  0  0  0
 15 62  1  0  0  0  0
 16 21  1  0  0  0  0
 16 17  2  0  0  0  0
 17 18  1  0  0  0  0
 17 63  1  0  0  0  0
 18 19  2  0  0  0  0
 18 64  1  0  0  0  0
 19 20  1  0  0  0  0
 19 65  1  0  0  0  0
 20 21  2  0  0  0  0
 20 22  1  0  0  0  0
 21 66  1  0  0  0  0
 22 23  1  0  0  0  0
 23 24  1  0  0  0  0
 23 67  1  0  0  0  0
 23 68  1  0  0  0  0
 24 25  1  0  0  0  0
 24 69  1  0  0  0  0
 24 70  1  0  0  0  0
 25 26  1  0  0  0  0
 25 71  1  0  0  0  0
 25 72  1  0  0  0  0
 26 27  1  0  0  0  0
 26 73  1  0  0  0  0
 26 74  1  0  0  0  0
 27 28  1  0  0  0  0
 28 33  1  0  0  0  0
 28 29  2  0  0  0  0
 29 30  1  0  0  0  0
 29 75  1  0  0  0  0
 30 31  2  0  0  0  0
 30 39  1  0  0  0  0
 31 32  1  0  0  0  0
 31 76  1  0  0  0  0
 32 33  2  0  0  0  0
 32 34  1  0  0  0  0
 33 77  1  0  0  0  0
 34 35  1  0  0  0  0
 35 36  1  0  0  0  0
 35 78  1  0  0  0  0
 35 79  1  0  0  0  0
 36 37  2  0  0  0  0
 36 38  1  0  0  0  0
 38 80  1  0  0  0  0
 38 81  1  0  0  0  0
 38 82  1  0  0  0  0
 39 40  2  0  0  0  0
 39 41  1  0  0  0  0
 41 83  1  0  0  0  0
 42 84  1  0  0  0  0
M  CHG  1  11   1
M  END
>  <s_m_source_file>
BACE_16.smi

>  <i_m_source_file_index>
1

>  <i_lp_mmshare_version>
42013

>  <i_f3d_flags>
0

>  <s_epik_input>
W0NIM11bQ0hdKFtDSDNdKWMxW2NIXVtjSF1bY0hdYyhbY0hdMSlbQ0gyXVtOSF1bQ0gyXVtDQEBIXShbT0hdKVtDQEhdKFtDSDJdMilbTkhdQyg9TyljKFtjSF1jKFtjSF0zKU9bQ0gyXUMoPU8pW0NIM10pW2NIXWMzT1tDSDJdW0NIMl1bQ0gyXVtDSDJdT2MoW2NIXTQpW2NIXVtjSF1bY0hdYzI0

>  <s_epik_cmdline>
J2VwaWtfcHl0aG9uJywgJy1waCcsICc3LjAnLCAnLXRuJywgJzgnLCAnLW1hJywgJzIwMCcsICctaW1hZScsICc8aW5maWxlLm1hZT4nLCAnLW9tYWUnLCAnPG91dGZpbGUubWFlPic=

>  <r_lp_tautomer_probability>
1

>  <r_epik_Ionization_Penalty>
0.0191

>  <r_epik_Ionization_Penalty_Charging>
0.0191

>  <r_epik_Ionization_Penalty_Neutral>
0

>  <r_epik_State_Penalty>
0.0153

>  <r_epik_Charging_Adjusted_Penalty>
0.0343718

>  <i_epik_Tot_Q>
1

>  <i_epik_Tot_abs_Q>
1

>  <s_lp_Force_Field>
OPLS_2005

>  <r_lp_Energy>
32.7148

>  <b_lp_Chiralities_Consistent>
1

>  <s_lp_Variant>
BACE_16.smi:1-1

>  <chiral flag>
1

>  <version>
0

>  <r_i_glide_lipo>
-0.508

>  <r_i_glide_hbond>
0

>  <r_i_glide_metal>
-0

>  <r_i_glide_rewards>
0

>  <r_i_glide_erotb>
0.345483

>  <r_i_glide_esite>
-0.0693266

>  <s_i_glide_gridfile>
second_dock_grid_2

>  <i_i_glide_lignum>
32

>  <i_i_glide_rotatable_bonds>
10

>  <r_i_docking_score>
-3.97262

>  <r_i_glide_ligand_efficiency>
-0.0945861

>  <r_i_glide_ligand_efficiency_sa>
-0.328784

>  <r_i_glide_ligand_efficiency_ln>
-0.838517

>  <r_glide_XP_GScore>
-3.98792

>  <r_i_glide_gscore>
-3.98792

>  <r_i_glide_evdw>
-43.7121

>  <r_i_glide_ecoul>
-11.8115

>  <r_i_glide_energy>
-55.5236

>  <r_i_glide_einternal>
7.39522

>  <r_i_glide_emodel>
-73.5928

>  <r_glide_XP_HBond>
-0.7

>  <i_i_glide_confnum>
1

>  <i_i_glide_posenum>
10

>  <r_i_glide_eff_state_penalty>
0.0153

>  <i_glide_XP_PoseRank>
2

>  <chiral flag>
1

$$$$
