BACE_17.smi:1
 OpenBabel10031817133D
Structure written by MMmdl.
 62 64  0  0  1  0  0  0  0  0999 V2000
   18.4203   49.2357   -7.1675 C   0  0  0  0  0  0  0  0  0  0  0  0
   19.3881   48.1402   -7.2789 N   0  0  0  0  0  0  0  0  0  0  0  0
   20.5118   48.4376   -8.1721 C   0  0  0  0  0  0  0  0  0  0  0  0
   19.2711   47.0026   -6.5468 C   0  0  0  0  0  0  0  0  0  0  0  0
   18.4601   46.8857   -5.6268 O   0  0  0  0  0  0  0  0  0  0  0  0
   20.1665   45.8372   -6.8808 C   0  0  0  0  0  0  0  0  0  0  0  0
   20.8792   45.1682   -5.8575 C   0  0  0  0  0  0  0  0  0  0  0  0
   20.2452   45.3478   -8.2058 C   0  0  0  0  0  0  0  0  0  0  0  0
   21.0688   44.2470   -8.5182 C   0  0  0  0  0  0  0  0  0  0  0  0
   21.8280   43.6421   -7.4976 C   0  0  0  0  0  0  0  0  0  0  0  0
   21.7101   44.0634   -6.1630 C   0  0  0  0  0  0  0  0  0  0  0  0
   21.1391   43.7184   -9.9164 C   0  0  0  0  0  0  0  0  0  0  0  0
   21.1487   44.4712  -10.8912 O   0  0  0  0  0  0  0  0  0  0  0  0
   21.1117   42.3807   -9.9931 N   0  0  0  0  0  0  0  0  0  0  0  0
   21.1689   41.5641  -11.1987 C   0  0  2  0  0  0  0  0  0  0  0  0
   19.8974   41.7390  -12.0846 C   0  0  1  0  0  0  0  0  0  0  0  0
   20.0603   40.9500  -13.2398 O   0  0  0  0  0  0  0  0  0  0  0  0
   18.4993   41.4650  -11.4808 C   0  0  0  0  0  0  0  0  0  0  0  0
   18.1232   42.4461  -10.5359 O   0  0  0  0  0  0  0  0  0  0  0  0
   21.5743   40.1020  -10.8447 C   0  0  0  0  0  0  0  0  0  0  0  0
   20.7436   39.4403   -9.7526 C   0  0  0  0  0  0  0  0  0  0  0  0
   20.9844   39.7380   -8.3936 C   0  0  0  0  0  0  0  0  0  0  0  0
   20.1585   39.1950   -7.3792 C   0  0  0  0  0  0  0  0  0  0  0  0
   19.1098   38.3294   -7.7461 C   0  0  0  0  0  0  0  0  0  0  0  0
   18.9024   37.9817   -9.0938 C   0  0  0  0  0  0  0  0  0  0  0  0
   19.7256   38.5265  -10.0946 C   0  0  0  0  0  0  0  0  0  0  0  0
   20.3065   39.4639   -6.0371 O   0  0  0  0  0  0  0  0  0  0  0  0
   21.2087   40.4883   -5.6423 C   0  0  0  0  0  0  0  0  0  0  0  0
   21.0783   40.7121   -4.1279 C   0  0  0  0  0  0  0  0  0  0  0  0
   22.0907   41.7070   -3.5205 C   0  0  0  0  0  0  0  0  0  0  0  0
   21.8973   43.1747   -3.9404 C   0  0  0  0  0  0  0  0  0  0  0  0
   22.4409   43.3545   -5.2403 O   0  0  0  0  0  0  0  0  0  0  0  0
   21.9965   41.9540  -11.7949 H   0  0  0  0  0  0  0  0  0  0  0  0
   19.8688   42.7658  -12.4399 H   0  0  0  0  0  0  0  0  0  0  0  0
   17.9787   49.4334   -8.1452 H   0  0  0  0  0  0  0  0  0  0  0  0
   18.9187   50.1472   -6.8370 H   0  0  0  0  0  0  0  0  0  0  0  0
   17.6028   49.0365   -6.4749 H   0  0  0  0  0  0  0  0  0  0  0  0
   21.4586   48.0958   -7.7500 H   0  0  0  0  0  0  0  0  0  0  0  0
   20.6124   49.5100   -8.3506 H   0  0  0  0  0  0  0  0  0  0  0  0
   20.3769   47.9632   -9.1456 H   0  0  0  0  0  0  0  0  0  0  0  0
   20.7991   45.5183   -4.8403 H   0  0  0  0  0  0  0  0  0  0  0  0
   19.6566   45.8032   -8.9893 H   0  0  0  0  0  0  0  0  0  0  0  0
   22.4822   42.8117   -7.7219 H   0  0  0  0  0  0  0  0  0  0  0  0
   21.0077   41.8783   -9.1235 H   0  0  0  0  0  0  0  0  0  0  0  0
   20.0534   40.0394  -12.9822 H   0  0  0  0  0  0  0  0  0  0  0  0
   17.7547   41.4888  -12.2758 H   0  0  0  0  0  0  0  0  0  0  0  0
   18.4197   40.4845  -11.0260 H   0  0  0  0  0  0  0  0  0  0  0  0
   18.2243   43.3032  -10.9220 H   0  0  0  0  0  0  0  0  0  0  0  0
   21.5802   39.4726  -11.7348 H   0  0  0  0  0  0  0  0  0  0  0  0
   22.6097   40.1015  -10.5008 H   0  0  0  0  0  0  0  0  0  0  0  0
   21.7973   40.4026   -8.1481 H   0  0  0  0  0  0  0  0  0  0  0  0
   18.4626   37.9223   -6.9825 H   0  0  0  0  0  0  0  0  0  0  0  0
   18.1022   37.3057   -9.3575 H   0  0  0  0  0  0  0  0  0  0  0  0
   19.5456   38.2664  -11.1276 H   0  0  0  0  0  0  0  0  0  0  0  0
   22.2338   40.2119   -5.8933 H   0  0  0  0  0  0  0  0  0  0  0  0
   20.9544   41.4056   -6.1686 H   0  0  0  0  0  0  0  0  0  0  0  0
   20.0591   41.0266   -3.8913 H   0  0  0  0  0  0  0  0  0  0  0  0
   21.2158   39.7499   -3.6352 H   0  0  0  0  0  0  0  0  0  0  0  0
   21.9899   41.6549   -2.4385 H   0  0  0  0  0  0  0  0  0  0  0  0
   23.1116   41.3877   -3.7377 H   0  0  0  0  0  0  0  0  0  0  0  0
   20.8404   43.4374   -3.8631 H   0  0  0  0  0  0  0  0  0  0  0  0
   22.4545   43.8212   -3.2604 H   0  0  0  0  0  0  0  0  0  0  0  0
  1  2  1  0  0  0  0
  1 35  1  0  0  0  0
  1 36  1  0  0  0  0
  1 37  1  0  0  0  0
  2  3  1  0  0  0  0
  2  4  1  0  0  0  0
  3 38  1  0  0  0  0
  3 39  1  0  0  0  0
  3 40  1  0  0  0  0
  4  5  2  0  0  0  0
  4  6  1  0  0  0  0
  6  7  1  0  0  0  0
  6  8  2  0  0  0  0
  7 11  2  0  0  0  0
  7 41  1  0  0  0  0
  8  9  1  0  0  0  0
  8 42  1  0  0  0  0
  9 10  2  0  0  0  0
  9 12  1  0  0  0  0
 10 11  1  0  0  0  0
 10 43  1  0  0  0  0
 11 32  1  0  0  0  0
 12 13  2  0  0  0  0
 12 14  1  0  0  0  0
 14 15  1  0  0  0  0
 14 44  1  0  0  0  0
 15 33  1  6  0  0  0
 15 16  1  0  0  0  0
 15 20  1  0  0  0  0
 16 34  1  6  0  0  0
 16 17  1  0  0  0  0
 16 18  1  0  0  0  0
 17 45  1  0  0  0  0
 18 19  1  0  0  0  0
 18 46  1  0  0  0  0
 18 47  1  0  0  0  0
 19 48  1  0  0  0  0
 20 21  1  0  0  0  0
 20 49  1  0  0  0  0
 20 50  1  0  0  0  0
 21 26  1  0  0  0  0
 21 22  2  0  0  0  0
 22 23  1  0  0  0  0
 22 51  1  0  0  0  0
 23 24  2  0  0  0  0
 23 27  1  0  0  0  0
 24 25  1  0  0  0  0
 24 52  1  0  0  0  0
 25 26  2  0  0  0  0
 25 53  1  0  0  0  0
 26 54  1  0  0  0  0
 27 28  1  0  0  0  0
 28 29  1  0  0  0  0
 28 55  1  0  0  0  0
 28 56  1  0  0  0  0
 29 30  1  0  0  0  0
 29 57  1  0  0  0  0
 29 58  1  0  0  0  0
 30 31  1  0  0  0  0
 30 59  1  0  0  0  0
 30 60  1  0  0  0  0
 31 32  1  0  0  0  0
 31 61  1  0  0  0  0
 31 62  1  0  0  0  0
M  END
>  <s_m_source_file>
BACE_17.smi

>  <i_m_source_file_index>
1

>  <i_lp_mmshare_version>
42013

>  <i_f3d_flags>
0

>  <s_epik_input>
W0NIM11OKFtDSDNdKUMoPU8pYyhbY0hdYzEyKVtjSF1jKFtjSF0xKU9bQ0gyXVtDSDJdW0NIMl1bQ0gyXU9jM1tjSF1jKFtjSF1bY0hdW2NIXTMpW0NIMl1bQ0BIXShbTkhdQzI9TylbQ0BASF0oW09IXSlbQ0gyXVtPSF0=

>  <s_epik_cmdline>
J2VwaWtfcHl0aG9uJywgJy1waCcsICc3LjAnLCAnLXRuJywgJzgnLCAnLW1hJywgJzIwMCcsICctaW1hZScsICc8aW5maWxlLm1hZT4nLCAnLW9tYWUnLCAnPG91dGZpbGUubWFlPic=

>  <r_lp_tautomer_probability>
1

>  <r_epik_Ionization_Penalty>
0

>  <r_epik_Ionization_Penalty_Charging>
0

>  <r_epik_Ionization_Penalty_Neutral>
0

>  <r_epik_State_Penalty>
-0

>  <r_epik_Charging_Adjusted_Penalty>
0

>  <i_epik_Tot_Q>
0

>  <i_epik_Tot_abs_Q>
0

>  <s_lp_Force_Field>
OPLS_2005

>  <r_lp_Energy>
47.913

>  <b_lp_Chiralities_Consistent>
1

>  <s_lp_Variant>
BACE_17.smi:1-1

>  <chiral flag>
1

>  <version>
0

>  <r_i_glide_lipo>
-0.567811

>  <r_i_glide_hbond>
0

>  <r_i_glide_metal>
-0

>  <r_i_glide_rewards>
-0.490634

>  <r_i_glide_erotb>
0.306172

>  <r_i_glide_esite>
-0.00811059

>  <s_i_glide_gridfile>
second_dock_grid_2

>  <i_i_glide_lignum>
34

>  <i_i_glide_rotatable_bonds>
6

>  <r_i_docking_score>
-4.38396

>  <r_i_glide_ligand_efficiency>
-0.136999

>  <r_i_glide_ligand_efficiency_sa>
-0.434943

>  <r_i_glide_ligand_efficiency_ln>
-0.981687

>  <r_glide_XP_GScore>
-4.38396

>  <r_i_glide_gscore>
-4.38396

>  <r_i_glide_evdw>
-35.331

>  <r_i_glide_ecoul>
-5.81307

>  <r_i_glide_energy>
-41.1441

>  <r_i_glide_einternal>
3.08989

>  <r_i_glide_emodel>
-53.9881

>  <r_glide_XP_HBond>
-1.21716

>  <i_i_glide_confnum>
1

>  <i_i_glide_posenum>
9

>  <r_i_glide_eff_state_penalty>
-0

>  <i_glide_XP_PoseRank>
7

>  <chiral flag>
1

$$$$
