@<TRIPOS>MOLECULE
BACE_5.smi:1
 79 80 0 0 0
SMALL
GASTEIGER
****
Structure written by MMmdl.
@<TRIPOS>ATOM
      1 C          -4.9194    0.4144   -3.8411 C.3     1  UNL1       -0.0649
      2 C          -3.4505    0.6497   -3.4722 C.3     1  UNL1       -0.0504
      3 C          -3.2762    1.7458   -2.4103 C.3     1  UNL1       -0.0089
      4 C          -1.8322    1.9553   -2.0491 C.ar    1  UNL1        0.0631
      5 C          -1.1311    1.4543   -0.9132 C.ar    1  UNL1       -0.0168
      6 C           0.1437    1.9221   -1.0693 C.ar    1  UNL1        0.0501
      7 N           0.1448    2.6506   -2.2365 N.ar    1  UNL1       -0.2801
      8 N          -1.0555    2.6778   -2.8446 N.ar    1  UNL1       -0.1786
      9 C           1.3702    1.7492   -0.2344 C.3     1  UNL1        0.0380
     10 N           1.7309    0.3478   -0.0416 N.3     1  UNL1       -0.3081
     11 C           2.2990   -0.2990   -1.2264 C.3     1  UNL1        0.0240
     12 C           2.7453   -1.7511   -0.9400 C.3     1  UNL1        0.0859
     13 C           4.1305   -1.8766   -0.2478 C.3     1  UNL1        0.0505
     14 C           4.6438   -3.3252    0.0108 C.3     1  UNL1       -0.0295
     15 C           3.7513   -4.3566    0.7591 C.3     1  UNL1       -0.0421
     16 C           3.1461   -3.8017    2.0603 C.3     1  UNL1       -0.0504
     17 C           2.3802   -4.8208    2.9279 C.3     1  UNL1       -0.0528
     18 C           1.9930   -4.2627    4.3106 C.3     1  UNL1       -0.0530
     19 C           0.9814   -3.1032    4.2508 C.3     1  UNL1       -0.0510
     20 C           0.8563   -2.3323    5.5757 C.3     1  UNL1       -0.0294
     21 C           0.1927   -0.9564    5.3842 C.3     1  UNL1        0.0483
     22 O           0.9568   -0.1578    4.4884 O.3     1  UNL1       -0.3706
     23 C           2.0168    0.5643    5.0974 C.3     1  UNL1        0.1238
     24 C           2.9364    1.0989    3.9879 C.2     1  UNL1        0.2417
     25 O           2.6972    2.2238    3.5477 O.2     1  UNL1       -0.2731
     26 N           3.9500    0.3241    3.5147 N.am    1  UNL1       -0.2914
     27 C           4.8624    0.8029    2.4498 C.3     1  UNL1        0.0991
     28 C           5.1392   -0.1637    1.2775 C.2     1  UNL1        0.2336
     29 O           6.1900   -0.0696    0.6430 O.2     1  UNL1       -0.2738
     30 N           4.1804   -1.0542    0.9658 N.am    1  UNL1       -0.3084
     31 C           6.1023    1.4810    3.0634 C.3     1  UNL1       -0.0379
     32 C           4.3015   -0.9472    4.1585 C.3     1  UNL1        0.0040
     33 C           2.7133   -5.0407   -0.1520 C.3     1  UNL1       -0.0624
     34 O           2.8310   -2.3962   -2.1949 O.3     1  UNL1       -0.3887
     35 H           0.9475    3.1235   -2.6267 H       1  UNL1        0.1886
     36 H           1.9692   -2.2385   -0.3532 H       1  UNL1        0.0624
     37 H           4.8424   -1.4430   -0.9530 H       1  UNL1        0.0524
     38 H           4.4331   -5.1552    1.0551 H       1  UNL1        0.0299
     39 H           4.3564    1.6055    1.9113 H       1  UNL1        0.0594
     40 H          -5.0097   -0.3674   -4.5956 H       1  UNL1        0.0230
     41 H          -5.3738    1.3200   -4.2442 H       1  UNL1        0.0230
     42 H          -5.4997    0.1054   -2.9712 H       1  UNL1        0.0230
     43 H          -3.0190   -0.2832   -3.1073 H       1  UNL1        0.0266
     44 H          -2.8940    0.9165   -4.3716 H       1  UNL1        0.0266
     45 H          -3.7075    2.6796   -2.7733 H       1  UNL1        0.0329
     46 H          -3.8423    1.4800   -1.5169 H       1  UNL1        0.0329
     47 H          -1.5059    0.8391   -0.1085 H       1  UNL1        0.0654
     48 H           2.2078    2.2989   -0.6660 H       1  UNL1        0.0489
     49 H           1.1872    2.2028    0.7399 H       1  UNL1        0.0489
     50 H           1.5474   -0.3018   -2.0173 H       1  UNL1        0.0450
     51 H           3.1429    0.2768   -1.6085 H       1  UNL1        0.0450
     52 H           4.9334   -3.7614   -0.9461 H       1  UNL1        0.0286
     53 H           5.5830   -3.2416    0.5597 H       1  UNL1        0.0286
     54 H           3.9573   -3.3826    2.6543 H       1  UNL1        0.0268
     55 H           2.4833   -2.9776    1.8079 H       1  UNL1        0.0268
     56 H           1.4827   -5.1595    2.4095 H       1  UNL1        0.0265
     57 H           3.0036   -5.7039    3.0722 H       1  UNL1        0.0265
     58 H           1.5782   -5.0641    4.9228 H       1  UNL1        0.0265
     59 H           2.9009   -3.9377    4.8197 H       1  UNL1        0.0265
     60 H           1.2849   -2.3984    3.4811 H       1  UNL1        0.0266
     61 H           0.0042   -3.4734    3.9394 H       1  UNL1        0.0266
     62 H           0.2830   -2.9257    6.2886 H       1  UNL1        0.0287
     63 H           1.8412   -2.1974    6.0222 H       1  UNL1        0.0287
     64 H          -0.7993   -1.0934    4.9530 H       1  UNL1        0.0560
     65 H           0.0502   -0.4477    6.3389 H       1  UNL1        0.0560
     66 H           1.5964    1.4035    5.6533 H       1  UNL1        0.0657
     67 H           2.5632   -0.0338    5.8249 H       1  UNL1        0.0657
     68 H           3.3639   -1.0861    1.5593 H       1  UNL1        0.1491
     69 H           6.7406    1.9244    2.2986 H       1  UNL1        0.0252
     70 H           6.7047    0.7678    3.6268 H       1  UNL1        0.0252
     71 H           5.8140    2.2825    3.7443 H       1  UNL1        0.0252
     72 H           4.6053   -0.7829    5.1929 H       1  UNL1        0.0429
     73 H           5.1362   -1.4510    3.6719 H       1  UNL1        0.0429
     74 H           3.4565   -1.6316    4.1507 H       1  UNL1        0.0429
     75 H           1.8559   -4.4066   -0.3654 H       1  UNL1        0.0232
     76 H           2.3280   -5.9489    0.3114 H       1  UNL1        0.0232
     77 H           3.1558   -5.3364   -1.1035 H       1  UNL1        0.0232
     78 H           3.4870   -1.9569   -2.7142 H       1  UNL1        0.2099
     79 H           2.3731    0.2666    0.7397 H       1  UNL1        0.1224
@<TRIPOS>BOND
     1     1     2    1
     2     1    40    1
     3     1    41    1
     4     1    42    1
     5     2     3    1
     6     2    43    1
     7     2    44    1
     8     3    45    1
     9     3    46    1
    10     3     4    1
    11     4     8   ar
    12     4     5   ar
    13     5     6   ar
    14     5    47    1
    15     6     7   ar
    16     6     9    1
    17     7     8   ar
    18     7    35    1
    19     9    10    1
    20     9    48    1
    21     9    49    1
    22    10    11    1
    23    10    79    1
    24    11    12    1
    25    11    50    1
    26    11    51    1
    27    12    36    1
    28    12    13    1
    29    12    34    1
    30    13    37    1
    31    13    30    1
    32    13    14    1
    33    14    15    1
    34    14    52    1
    35    14    53    1
    36    15    38    1
    37    15    16    1
    38    15    33    1
    39    16    17    1
    40    16    54    1
    41    16    55    1
    42    17    18    1
    43    17    56    1
    44    17    57    1
    45    18    19    1
    46    18    58    1
    47    18    59    1
    48    19    20    1
    49    19    60    1
    50    19    61    1
    51    20    21    1
    52    20    62    1
    53    20    63    1
    54    21    22    1
    55    21    64    1
    56    21    65    1
    57    22    23    1
    58    23    24    1
    59    23    66    1
    60    23    67    1
    61    24    25    2
    62    24    26   am
    63    26    27    1
    64    26    32    1
    65    27    39    1
    66    27    28    1
    67    27    31    1
    68    28    29    2
    69    28    30   am
    70    30    68    1
    71    31    69    1
    72    31    70    1
    73    31    71    1
    74    32    72    1
    75    32    73    1
    76    32    74    1
    77    33    75    1
    78    33    76    1
    79    33    77    1
    80    34    78    1
