@<TRIPOS>MOLECULE
BACE_13.smi:1
 77 80 0 0 0
SMALL
GASTEIGER
****
Structure written by MMmdl.
@<TRIPOS>ATOM
      1 C          -0.7264    9.0681    3.0360 C.3     1  UNL1        0.0369
      2 O          -1.3323    7.9458    2.4192 O.3     1  UNL1       -0.3784
      3 C          -0.3812    7.0293    1.9024 C.3     1  UNL1        0.0724
      4 C          -1.0454    5.8399    1.2358 C.ar    1  UNL1       -0.0195
      5 C          -0.5277    4.5431    1.4282 C.ar    1  UNL1       -0.0442
      6 C          -1.1236    3.4374    0.7866 C.ar    1  UNL1        0.0388
      7 C          -2.2667    3.6357   -0.0173 C.ar    1  UNL1       -0.0287
      8 C          -2.7877    4.9328   -0.2312 C.ar    1  UNL1        0.0282
      9 C          -2.1597    6.0306    0.3921 C.ar    1  UNL1       -0.0355
     10 N          -3.8977    5.1828   -1.0541 N.pl3   1  UNL1       -0.3438
     11 C          -4.9369    4.1725   -1.2192 C.3     1  UNL1        0.0092
     12 C          -5.1250    3.7329   -2.6821 C.3     1  UNL1       -0.0344
     13 C          -3.8866    3.0664   -3.3143 C.3     1  UNL1       -0.0172
     14 C          -4.2282    1.8834   -4.2389 C.3     1  UNL1        0.0896
     15 O          -4.8736    0.8317   -3.5233 O.3     1  UNL1       -0.4920
     16 C          -4.1555    0.0783   -2.6162 C.ar    1  UNL1        0.1208
     17 C          -4.9012   -0.7228   -1.7276 C.ar    1  UNL1       -0.0199
     18 C          -4.2590   -1.5198   -0.7615 C.ar    1  UNL1       -0.0580
     19 C          -2.8551   -1.5315   -0.6795 C.ar    1  UNL1       -0.0583
     20 C          -2.0907   -0.7456   -1.5646 C.ar    1  UNL1       -0.0421
     21 C          -2.7399    0.0547   -2.5303 C.ar    1  UNL1       -0.0167
     22 C          -0.5722   -0.7774   -1.4836 C.3     1  UNL1       -0.0064
     23 C           0.0073   -0.0480   -0.2462 C.3     1  UNL1        0.0586
     24 N          -0.5286    1.3084   -0.1408 N.am    1  UNL1       -0.3055
     25 C          -0.5559    2.0624    0.9716 C.2     1  UNL1        0.2444
     26 O          -0.1009    1.7013    2.0572 O.2     1  UNL1       -0.2702
     27 C           1.5626   -0.0387   -0.1767 C.3     1  UNL1        0.1182
     28 C           2.2040   -1.4320    0.0720 C.3     1  UNL1        0.0296
     29 C           3.7396   -1.3669    0.2312 C.3     1  UNL1        0.0935
     30 O           4.0775   -0.6804    1.4315 O.3     1  UNL1       -0.3634
     31 C           3.5906   -1.3390    2.5971 C.3     1  UNL1        0.1216
     32 C           2.0553   -1.4763    2.5357 C.3     1  UNL1       -0.0041
     33 N           1.6423   -2.1076    1.2654 N.4     1  UNL1        0.2346
     34 C           4.0737   -0.5602    3.8290 C.3     1  UNL1        0.0785
     35 O           3.4713    0.7245    3.8484 O.3     1  UNL1       -0.3802
     36 C           3.8718    1.4991    4.9646 C.3     1  UNL1        0.0366
     37 O           2.0706    0.4754   -1.3935 O.3     1  UNL1       -0.3843
     38 H          -0.3716   -0.5731    0.6315 H       1  UNL1        0.0529
     39 H           1.8929    0.6375    0.6120 H       1  UNL1        0.0670
     40 H           1.9801   -2.0709   -0.7827 H       1  UNL1        0.0900
     41 H           4.0356   -2.3351    2.6335 H       1  UNL1        0.0673
     42 H          -1.4983    9.7370    3.4160 H       1  UNL1        0.0524
     43 H          -0.1160    9.6272    2.3258 H       1  UNL1        0.0524
     44 H          -0.0993    8.7662    3.8758 H       1  UNL1        0.0524
     45 H           0.2533    7.5255    1.1667 H       1  UNL1        0.0610
     46 H           0.2664    6.6810    2.7088 H       1  UNL1        0.0610
     47 H           0.3392    4.4003    2.0575 H       1  UNL1        0.0628
     48 H          -2.7278    2.7750   -0.4739 H       1  UNL1        0.0643
     49 H          -2.5420    7.0284    0.2316 H       1  UNL1        0.0639
     50 H          -4.1974    6.1444   -1.1297 H       1  UNL1        0.1461
     51 H          -4.7766    3.3043   -0.5817 H       1  UNL1        0.0461
     52 H          -5.8691    4.6152   -0.8677 H       1  UNL1        0.0461
     53 H          -5.9656    3.0388   -2.7045 H       1  UNL1        0.0281
     54 H          -5.4325    4.5823   -3.2933 H       1  UNL1        0.0281
     55 H          -3.3276    3.8174   -3.8730 H       1  UNL1        0.0298
     56 H          -3.2053    2.7214   -2.5440 H       1  UNL1        0.0298
     57 H          -4.9136    2.2232   -5.0157 H       1  UNL1        0.0696
     58 H          -3.3472    1.5195   -4.7674 H       1  UNL1        0.0696
     59 H          -5.9800   -0.7203   -1.7824 H       1  UNL1        0.0654
     60 H          -4.8449   -2.1237   -0.0843 H       1  UNL1        0.0619
     61 H          -2.3668   -2.1476    0.0614 H       1  UNL1        0.0620
     62 H          -2.1323    0.6447   -3.1986 H       1  UNL1        0.0657
     63 H          -0.2588   -1.8215   -1.4823 H       1  UNL1        0.0332
     64 H          -0.1712   -0.3460   -2.4014 H       1  UNL1        0.0332
     65 H          -0.9140    1.7080   -0.9845 H       1  UNL1        0.1494
     66 H           4.1662   -2.3710    0.2502 H       1  UNL1        0.0617
     67 H           4.2026   -0.8550   -0.6122 H       1  UNL1        0.0617
     68 H           1.6936   -2.0809    3.3676 H       1  UNL1        0.0840
     69 H           1.5716   -0.5037    2.6234 H       1  UNL1        0.0840
     70 H           3.8075   -1.1044    4.7364 H       1  UNL1        0.0587
     71 H           5.1609   -0.4682    3.8106 H       1  UNL1        0.0587
     72 H           3.3839    2.4731    4.9280 H       1  UNL1        0.0524
     73 H           4.9502    1.6627    4.9652 H       1  UNL1        0.0524
     74 H           3.5897    1.0161    5.9010 H       1  UNL1        0.0524
     75 H           1.7520    1.3590   -1.5030 H       1  UNL1        0.2101
     76 H           0.6339   -2.1132    1.2059 H       1  UNL1        0.2019
     77 H           1.9728   -3.0621    1.2692 H       1  UNL1        0.2019
@<TRIPOS>BOND
     1     1     2    1
     2     1    42    1
     3     1    43    1
     4     1    44    1
     5     2     3    1
     6     3     4    1
     7     3    45    1
     8     3    46    1
     9     4     9   ar
    10     4     5   ar
    11     5     6   ar
    12     5    47    1
    13     6    25    1
    14     6     7   ar
    15     7     8   ar
    16     7    48    1
    17     8     9   ar
    18     8    10    1
    19     9    49    1
    20    10    11    1
    21    10    50    1
    22    11    12    1
    23    11    51    1
    24    11    52    1
    25    12    13    1
    26    12    53    1
    27    12    54    1
    28    13    14    1
    29    13    55    1
    30    13    56    1
    31    14    15    1
    32    14    57    1
    33    14    58    1
    34    15    16    1
    35    16    21   ar
    36    16    17   ar
    37    17    18   ar
    38    17    59    1
    39    18    19   ar
    40    18    60    1
    41    19    20   ar
    42    19    61    1
    43    20    21   ar
    44    20    22    1
    45    21    62    1
    46    22    23    1
    47    22    63    1
    48    22    64    1
    49    23    38    1
    50    23    24    1
    51    23    27    1
    52    24    25   am
    53    24    65    1
    54    25    26    2
    55    27    39    1
    56    27    28    1
    57    27    37    1
    58    28    40    1
    59    28    33    1
    60    28    29    1
    61    29    30    1
    62    29    66    1
    63    29    67    1
    64    30    31    1
    65    31    41    1
    66    31    32    1
    67    31    34    1
    68    32    33    1
    69    32    68    1
    70    32    69    1
    71    33    76    1
    72    33    77    1
    73    34    35    1
    74    34    70    1
    75    34    71    1
    76    35    36    1
    77    36    72    1
    78    36    73    1
    79    36    74    1
    80    37    75    1
