@<TRIPOS>MOLECULE
BACE_9.smi:1
 87 89 0 0 0
SMALL
GASTEIGER
****
Structure written by MMmdl.
@<TRIPOS>ATOM
      1 C           0.1463    1.3653   -3.9594 C.3     1  UNL1       -0.0624
      2 C          -0.8620    1.4895   -2.8054 C.3     1  UNL1       -0.0421
      3 C          -2.0958    2.2923   -3.2749 C.3     1  UNL1       -0.0504
      4 C          -3.2515    2.3345   -2.2640 C.3     1  UNL1       -0.0528
      5 C          -4.5204    2.9881   -2.8370 C.3     1  UNL1       -0.0530
      6 C          -5.6456    3.1254   -1.7991 C.3     1  UNL1       -0.0530
      7 C          -6.3644    1.7987   -1.4841 C.3     1  UNL1       -0.0516
      8 C          -7.2668    1.8622   -0.2365 C.3     1  UNL1       -0.0375
      9 C          -6.5547    1.4489    1.0638 C.3     1  UNL1        0.0091
     10 N          -5.4912    2.3738    1.4259 N.pl3   1  UNL1       -0.3438
     11 C          -4.3737    1.8595    2.0946 C.ar    1  UNL1        0.0282
     12 C          -4.4805    0.8330    3.0600 C.ar    1  UNL1       -0.0355
     13 C          -3.3309    0.3580    3.7246 C.ar    1  UNL1       -0.0195
     14 C          -2.0666    0.8956    3.4068 C.ar    1  UNL1       -0.0442
     15 C          -1.9479    1.9040    2.4287 C.ar    1  UNL1        0.0388
     16 C          -3.1065    2.3948    1.7905 C.ar    1  UNL1       -0.0287
     17 C          -0.6026    2.4842    2.1127 C.2     1  UNL1        0.2444
     18 O           0.0231    3.0831    2.9842 O.2     1  UNL1       -0.2702
     19 N          -0.1117    2.3336    0.8684 N.am    1  UNL1       -0.3060
     20 C          -0.5824    1.4474   -0.2027 C.3     1  UNL1        0.0508
     21 C          -0.1774    2.0913   -1.5498 C.3     1  UNL1       -0.0295
     22 C           0.0056    0.0114   -0.0468 C.3     1  UNL1        0.0859
     23 C           1.3924   -0.0662    0.6267 C.3     1  UNL1        0.0240
     24 N           2.0715   -1.3191    0.3121 N.3     1  UNL1       -0.3095
     25 C           3.3780   -1.4321    0.9538 C.3     1  UNL1        0.0213
     26 C           4.1262   -2.6886    0.5495 C.ar    1  UNL1       -0.0333
     27 C           4.3613   -2.9716   -0.8125 C.ar    1  UNL1       -0.0573
     28 C           5.0701   -4.1304   -1.1813 C.ar    1  UNL1       -0.0612
     29 C           5.5522   -5.0073   -0.1911 C.ar    1  UNL1       -0.0583
     30 C           5.3280   -4.7311    1.1758 C.ar    1  UNL1       -0.0445
     31 C           4.6125   -3.5693    1.5387 C.ar    1  UNL1       -0.0539
     32 C           5.8558   -5.6695    2.2538 C.3     1  UNL1       -0.0215
     33 C           7.3917   -5.7272    2.2499 C.3     1  UNL1       -0.0586
     34 C           5.2354   -7.0708    2.1411 C.3     1  UNL1       -0.0586
     35 O          -0.9156   -0.7703    0.6875 O.3     1  UNL1       -0.3887
     36 C          -3.4510   -0.7498    4.7576 C.3     1  UNL1        0.0724
     37 O          -2.6334   -0.5464    5.9021 O.3     1  UNL1       -0.3784
     38 C          -3.0963    0.4896    6.7548 C.3     1  UNL1        0.0369
     39 H          -1.2008    0.4780   -2.5826 H       1  UNL1        0.0299
     40 H          -1.6687    1.3901   -0.1937 H       1  UNL1        0.0524
     41 H           0.0741   -0.4537   -1.0300 H       1  UNL1        0.0624
     42 H           0.5366    2.3410   -4.2509 H       1  UNL1        0.0232
     43 H          -0.3132    0.9139   -4.8391 H       1  UNL1        0.0232
     44 H           0.9922    0.7372   -3.6776 H       1  UNL1        0.0232
     45 H          -1.7997    3.3101   -3.5324 H       1  UNL1        0.0268
     46 H          -2.4685    1.8467   -4.1982 H       1  UNL1        0.0268
     47 H          -3.4741    1.3209   -1.9315 H       1  UNL1        0.0265
     48 H          -2.9378    2.8918   -1.3817 H       1  UNL1        0.0265
     49 H          -4.2641    3.9828   -3.2033 H       1  UNL1        0.0265
     50 H          -4.8778    2.4280   -3.7020 H       1  UNL1        0.0265
     51 H          -5.2345    3.5750   -0.8966 H       1  UNL1        0.0265
     52 H          -6.3852    3.8368   -2.1680 H       1  UNL1        0.0265
     53 H          -6.9720    1.5317   -2.3494 H       1  UNL1        0.0266
     54 H          -5.6504    0.9839   -1.3663 H       1  UNL1        0.0266
     55 H          -7.7156    2.8513   -0.1360 H       1  UNL1        0.0280
     56 H          -8.0995    1.1739   -0.3845 H       1  UNL1        0.0280
     57 H          -7.2752    1.4172    1.8816 H       1  UNL1        0.0461
     58 H          -6.1576    0.4389    0.9518 H       1  UNL1        0.0461
     59 H          -5.3054    3.1053    0.7547 H       1  UNL1        0.1461
     60 H          -5.4458    0.4159    3.3071 H       1  UNL1        0.0639
     61 H          -1.1848    0.5259    3.9107 H       1  UNL1        0.0628
     62 H          -3.0208    3.1842    1.0572 H       1  UNL1        0.0643
     63 H           0.7697    2.7912    0.6867 H       1  UNL1        0.1494
     64 H           0.9067    2.0111   -1.6431 H       1  UNL1        0.0286
     65 H          -0.3760    3.1641   -1.5246 H       1  UNL1        0.0286
     66 H           2.0100    0.7595    0.2711 H       1  UNL1        0.0450
     67 H           1.2981    0.0590    1.7066 H       1  UNL1        0.0450
     68 H           1.4844   -2.0919    0.6106 H       1  UNL1        0.1223
     69 H           3.9995   -0.5757    0.6902 H       1  UNL1        0.0473
     70 H           3.2626   -1.4109    2.0382 H       1  UNL1        0.0473
     71 H           3.9995   -2.3000   -1.5773 H       1  UNL1        0.0621
     72 H           5.2470   -4.3453   -2.2247 H       1  UNL1        0.0618
     73 H           6.0978   -5.8915   -0.4860 H       1  UNL1        0.0620
     74 H           4.4386   -3.3483    2.5819 H       1  UNL1        0.0623
     75 H           5.5544   -5.2653    3.2210 H       1  UNL1        0.0343
     76 H           7.8206   -4.7336    2.3843 H       1  UNL1        0.0235
     77 H           7.7777   -6.1324    1.3141 H       1  UNL1        0.0235
     78 H           7.7622   -6.3568    3.0594 H       1  UNL1        0.0235
     79 H           4.1475   -7.0214    2.1939 H       1  UNL1        0.0235
     80 H           5.5748   -7.7151    2.9525 H       1  UNL1        0.0235
     81 H           5.5018   -7.5560    1.2018 H       1  UNL1        0.0235
     82 H          -1.0175   -0.3875    1.5455 H       1  UNL1        0.2099
     83 H          -4.4910   -0.8894    5.0573 H       1  UNL1        0.0610
     84 H          -3.1386   -1.6803    4.2835 H       1  UNL1        0.0610
     85 H          -2.4324    0.5766    7.6148 H       1  UNL1        0.0524
     86 H          -4.0992    0.2752    7.1258 H       1  UNL1        0.0524
     87 H          -3.1105    1.4544    6.2467 H       1  UNL1        0.0524
@<TRIPOS>BOND
     1     1     2    1
     2     1    42    1
     3     1    43    1
     4     1    44    1
     5     2    39    1
     6     2    21    1
     7     2     3    1
     8     3     4    1
     9     3    45    1
    10     3    46    1
    11     4     5    1
    12     4    47    1
    13     4    48    1
    14     5     6    1
    15     5    49    1
    16     5    50    1
    17     6     7    1
    18     6    51    1
    19     6    52    1
    20     7     8    1
    21     7    53    1
    22     7    54    1
    23     8     9    1
    24     8    55    1
    25     8    56    1
    26     9    10    1
    27     9    57    1
    28     9    58    1
    29    10    11    1
    30    10    59    1
    31    11    16   ar
    32    11    12   ar
    33    12    13   ar
    34    12    60    1
    35    13    14   ar
    36    13    36    1
    37    14    15   ar
    38    14    61    1
    39    15    16   ar
    40    15    17    1
    41    16    62    1
    42    17    18    2
    43    17    19   am
    44    19    20    1
    45    19    63    1
    46    20    40    1
    47    20    21    1
    48    20    22    1
    49    21    64    1
    50    21    65    1
    51    22    41    1
    52    22    23    1
    53    22    35    1
    54    23    24    1
    55    23    66    1
    56    23    67    1
    57    24    25    1
    58    24    68    1
    59    25    26    1
    60    25    69    1
    61    25    70    1
    62    26    31   ar
    63    26    27   ar
    64    27    28   ar
    65    27    71    1
    66    28    29   ar
    67    28    72    1
    68    29    30   ar
    69    29    73    1
    70    30    31   ar
    71    30    32    1
    72    31    74    1
    73    32    33    1
    74    32    34    1
    75    32    75    1
    76    33    76    1
    77    33    77    1
    78    33    78    1
    79    34    79    1
    80    34    80    1
    81    34    81    1
    82    35    82    1
    83    36    37    1
    84    36    83    1
    85    36    84    1
    86    37    38    1
    87    38    85    1
    88    38    86    1
    89    38    87    1
