@<TRIPOS>MOLECULE
BACE_4.smi:1
 89 91 0 0 0
SMALL
GASTEIGER
****
Structure written by MMmdl.
@<TRIPOS>ATOM
      1 C          -2.5684    3.6355    2.1843 C.3     1  UNL1       -0.0624
      2 C          -1.0458    3.6391    1.9463 C.3     1  UNL1       -0.0421
      3 C          -0.5970    4.4738    0.7224 C.3     1  UNL1       -0.0504
      4 C          -1.2044    5.8892    0.6392 C.3     1  UNL1       -0.0528
      5 C          -2.3584    5.9635   -0.3767 C.3     1  UNL1       -0.0530
      6 C          -3.2484    7.2107   -0.2466 C.3     1  UNL1       -0.0510
      7 C          -4.3042    7.1389    0.8757 C.3     1  UNL1       -0.0294
      8 C          -5.5359    6.2726    0.5485 C.3     1  UNL1        0.0483
      9 O          -5.2137    4.8928    0.6077 O.3     1  UNL1       -0.3706
     10 C          -6.3140    4.0421    0.3211 C.3     1  UNL1        0.1238
     11 C          -5.8526    2.5833    0.4615 C.2     1  UNL1        0.2417
     12 O          -6.2313    1.9601    1.4537 O.2     1  UNL1       -0.2731
     13 N          -5.0193    2.0488   -0.4692 N.am    1  UNL1       -0.2914
     14 C          -4.4157    0.7071   -0.2895 C.3     1  UNL1        0.0991
     15 C          -2.8835    0.7203   -0.4326 C.2     1  UNL1        0.2336
     16 O          -2.3471    0.4846   -1.5156 O.2     1  UNL1       -0.2738
     17 N          -2.1971    1.0237    0.6810 N.am    1  UNL1       -0.3084
     18 C          -0.7587    1.2607    0.7774 C.3     1  UNL1        0.0505
     19 C          -0.4227    2.2172    1.9592 C.3     1  UNL1       -0.0295
     20 C           0.0145   -0.0842    0.8120 C.3     1  UNL1        0.0859
     21 C           1.5145    0.1098    0.5266 C.3     1  UNL1        0.0245
     22 N           2.1562   -1.1447    0.1352 N.3     1  UNL1       -0.3042
     23 C           3.5429   -1.0005   -0.3063 C.3     1  UNL1        0.0447
     24 C           3.8001   -0.4331   -1.6851 C.3     1  UNL1       -0.0285
     25 C           4.0052   -1.9081   -1.4227 C.3     1  UNL1       -0.0285
     26 C           4.4781   -0.7039    0.8303 C.ar    1  UNL1       -0.0271
     27 C           4.9830   -1.7447    1.6340 C.ar    1  UNL1       -0.0568
     28 C           5.8440   -1.4557    2.7075 C.ar    1  UNL1       -0.0612
     29 C           6.2009   -0.1240    2.9916 C.ar    1  UNL1       -0.0580
     30 C           5.7015    0.9414    2.2025 C.ar    1  UNL1       -0.0417
     31 C           4.8438    0.6270    1.1222 C.ar    1  UNL1       -0.0531
     32 C           6.0518    2.4147    2.4844 C.3     1  UNL1       -0.0127
     33 C           6.7490    3.0269    1.2517 C.3     1  UNL1       -0.0560
     34 C           6.9984    2.5893    3.6931 C.3     1  UNL1       -0.0560
     35 C           4.7598    3.2035    2.7843 C.3     1  UNL1       -0.0560
     36 O          -0.1175   -0.6776    2.0898 O.3     1  UNL1       -0.3887
     37 C          -5.1349   -0.3321   -1.1688 C.3     1  UNL1       -0.0379
     38 C          -4.7253    2.7594   -1.7229 C.3     1  UNL1        0.0040
     39 H          -0.6274    4.1414    2.8198 H       1  UNL1        0.0299
     40 H          -4.5779    0.3621    0.7333 H       1  UNL1        0.0594
     41 H          -0.4647    1.7621   -0.1448 H       1  UNL1        0.0524
     42 H          -0.4013   -0.7635    0.0662 H       1  UNL1        0.0624
     43 H          -3.1165    3.3635    1.2860 H       1  UNL1        0.0232
     44 H          -2.9287    4.6157    2.4938 H       1  UNL1        0.0232
     45 H          -2.8455    2.9348    2.9722 H       1  UNL1        0.0232
     46 H           0.4892    4.5655    0.7596 H       1  UNL1        0.0268
     47 H          -0.8090    3.9435   -0.2054 H       1  UNL1        0.0268
     48 H          -1.5228    6.2243    1.6262 H       1  UNL1        0.0265
     49 H          -0.4325    6.5950    0.3306 H       1  UNL1        0.0265
     50 H          -1.9292    5.9393   -1.3788 H       1  UNL1        0.0265
     51 H          -2.9687    5.0695   -0.3069 H       1  UNL1        0.0265
     52 H          -2.6111    8.0821   -0.0919 H       1  UNL1        0.0266
     53 H          -3.7586    7.3865   -1.1943 H       1  UNL1        0.0266
     54 H          -3.8523    6.8158    1.8135 H       1  UNL1        0.0287
     55 H          -4.6587    8.1543    1.0556 H       1  UNL1        0.0287
     56 H          -6.3233    6.4822    1.2742 H       1  UNL1        0.0560
     57 H          -5.9301    6.5294   -0.4359 H       1  UNL1        0.0560
     58 H          -7.1181    4.2323    1.0339 H       1  UNL1        0.0657
     59 H          -6.7209    4.2379   -0.6711 H       1  UNL1        0.0657
     60 H          -2.7312    1.1881    1.5221 H       1  UNL1        0.1491
     61 H           0.6597    2.3379    2.0070 H       1  UNL1        0.0286
     62 H          -0.6964    1.7383    2.9000 H       1  UNL1        0.0286
     63 H           1.6264    0.8265   -0.2876 H       1  UNL1        0.0450
     64 H           2.0152    0.5471    1.3908 H       1  UNL1        0.0450
     65 H           1.6097   -1.6190   -0.5762 H       1  UNL1        0.1229
     66 H           2.9433   -0.1608   -2.2984 H       1  UNL1        0.0287
     67 H           4.6900    0.1762   -1.8302 H       1  UNL1        0.0287
     68 H           5.0315   -2.2697   -1.3967 H       1  UNL1        0.0287
     69 H           3.2821   -2.5889   -1.8678 H       1  UNL1        0.0287
     70 H           4.7075   -2.7687    1.4286 H       1  UNL1        0.0621
     71 H           6.2289   -2.2583    3.3190 H       1  UNL1        0.0618
     72 H           6.8591    0.0501    3.8282 H       1  UNL1        0.0620
     73 H           4.4435    1.4176    0.5055 H       1  UNL1        0.0624
     74 H           7.0311    4.0650    1.4303 H       1  UNL1        0.0238
     75 H           6.1083    3.0190    0.3701 H       1  UNL1        0.0238
     76 H           7.6583    2.4792    1.0013 H       1  UNL1        0.0238
     77 H           7.9501    2.0798    3.5371 H       1  UNL1        0.0238
     78 H           6.5543    2.2051    4.6120 H       1  UNL1        0.0238
     79 H           7.2262    3.6415    3.8668 H       1  UNL1        0.0238
     80 H           4.9761    4.2486    3.0073 H       1  UNL1        0.0238
     81 H           4.2360    2.7871    3.6456 H       1  UNL1        0.0238
     82 H           4.0660    3.1941    1.9434 H       1  UNL1        0.0238
     83 H          -1.0339   -0.8443    2.2484 H       1  UNL1        0.2099
     84 H          -4.7156   -1.3281   -1.0217 H       1  UNL1        0.0252
     85 H          -5.0529   -0.0941   -2.2297 H       1  UNL1        0.0252
     86 H          -6.1958   -0.3848   -0.9222 H       1  UNL1        0.0252
     87 H          -4.1485    3.6633   -1.5406 H       1  UNL1        0.0429
     88 H          -5.6449    3.0359   -2.2392 H       1  UNL1        0.0429
     89 H          -4.1601    2.1524   -2.4287 H       1  UNL1        0.0429
@<TRIPOS>BOND
     1     1     2    1
     2     1    43    1
     3     1    44    1
     4     1    45    1
     5     2    39    1
     6     2    19    1
     7     2     3    1
     8     3     4    1
     9     3    46    1
    10     3    47    1
    11     4     5    1
    12     4    48    1
    13     4    49    1
    14     5     6    1
    15     5    50    1
    16     5    51    1
    17     6     7    1
    18     6    52    1
    19     6    53    1
    20     7     8    1
    21     7    54    1
    22     7    55    1
    23     8     9    1
    24     8    56    1
    25     8    57    1
    26     9    10    1
    27    10    11    1
    28    10    58    1
    29    10    59    1
    30    11    12    2
    31    11    13   am
    32    13    14    1
    33    13    38    1
    34    14    40    1
    35    14    15    1
    36    14    37    1
    37    15    16    2
    38    15    17   am
    39    17    18    1
    40    17    60    1
    41    18    41    1
    42    18    19    1
    43    18    20    1
    44    19    61    1
    45    19    62    1
    46    20    42    1
    47    20    21    1
    48    20    36    1
    49    21    22    1
    50    21    63    1
    51    21    64    1
    52    22    23    1
    53    22    65    1
    54    23    25    1
    55    23    24    1
    56    23    26    1
    57    24    25    1
    58    24    66    1
    59    24    67    1
    60    25    68    1
    61    25    69    1
    62    26    31   ar
    63    26    27   ar
    64    27    28   ar
    65    27    70    1
    66    28    29   ar
    67    28    71    1
    68    29    30   ar
    69    29    72    1
    70    30    31   ar
    71    30    32    1
    72    31    73    1
    73    32    33    1
    74    32    34    1
    75    32    35    1
    76    33    74    1
    77    33    75    1
    78    33    76    1
    79    34    77    1
    80    34    78    1
    81    34    79    1
    82    35    80    1
    83    35    81    1
    84    35    82    1
    85    36    83    1
    86    37    84    1
    87    37    85    1
    88    37    86    1
    89    38    87    1
    90    38    88    1
    91    38    89    1
