@<TRIPOS>MOLECULE
BACE_9.smi:1
 88 90 0 0 0
SMALL
GASTEIGER
****
Structure written by MMmdl.
@<TRIPOS>ATOM
      1 C          -0.8895    3.0870   -4.3290 C.3     1  UNL1       -0.0624
      2 C          -1.6735    2.7876   -3.0408 C.3     1  UNL1       -0.0421
      3 C          -3.0353    3.5183   -3.0770 C.3     1  UNL1       -0.0504
      4 C          -3.9886    3.1501   -1.9302 C.3     1  UNL1       -0.0528
      5 C          -5.4009    3.7308   -2.1125 C.3     1  UNL1       -0.0530
      6 C          -6.3283    3.4321   -0.9232 C.3     1  UNL1       -0.0530
      7 C          -6.8348    1.9765   -0.8801 C.3     1  UNL1       -0.0516
      8 C          -7.4951    1.5864    0.4568 C.3     1  UNL1       -0.0375
      9 C          -6.5189    0.9674    1.4734 C.3     1  UNL1        0.0091
     10 N          -5.5112    1.9187    1.9177 N.pl3   1  UNL1       -0.3438
     11 C          -4.2440    1.4251    2.2507 C.ar    1  UNL1        0.0282
     12 C          -4.0661    0.1806    2.8956 C.ar    1  UNL1       -0.0355
     13 C          -2.7720   -0.2724    3.2265 C.ar    1  UNL1       -0.0195
     14 C          -1.6490    0.5107    2.8904 C.ar    1  UNL1       -0.0442
     15 C          -1.8155    1.7418    2.2234 C.ar    1  UNL1        0.0388
     16 C          -3.1156    2.2039    1.9275 C.ar    1  UNL1       -0.0287
     17 C          -0.6165    2.5691    1.8705 C.2     1  UNL1        0.2444
     18 O           0.1010    3.0177    2.7612 O.2     1  UNL1       -0.2702
     19 N          -0.3508    2.7927    0.5694 N.am    1  UNL1       -0.3058
     20 C          -0.9446    2.1492   -0.6082 C.3     1  UNL1        0.0545
     21 C          -0.8178    3.1352   -1.7935 C.3     1  UNL1       -0.0293
     22 C          -0.2709    0.7759   -0.9176 C.3     1  UNL1        0.1130
     23 C           1.1820    0.6042   -0.4263 C.3     1  UNL1       -0.0050
     24 N           1.7959   -0.6140   -0.9897 N.4     1  UNL1        0.2321
     25 C           3.1795   -0.8541   -0.5391 C.3     1  UNL1       -0.0076
     26 C           3.7306   -2.1147   -1.1732 C.ar    1  UNL1       -0.0027
     27 C           3.5785   -3.3580   -0.5255 C.ar    1  UNL1       -0.0535
     28 C           4.0847   -4.5289   -1.1202 C.ar    1  UNL1       -0.0611
     29 C           4.7430   -4.4611   -2.3630 C.ar    1  UNL1       -0.0583
     30 C           4.9010   -3.2208   -3.0198 C.ar    1  UNL1       -0.0444
     31 C           4.3910   -2.0500   -2.4181 C.ar    1  UNL1       -0.0501
     32 C           5.6130   -3.1390   -4.3644 C.3     1  UNL1       -0.0215
     33 C           4.8571   -3.9158   -5.4538 C.3     1  UNL1       -0.0586
     34 C           7.0784   -3.5894   -4.2595 C.3     1  UNL1       -0.0586
     35 O          -1.0699   -0.2580   -0.3772 O.3     1  UNL1       -0.3847
     36 C          -2.5884   -1.6143    3.9147 C.3     1  UNL1        0.0724
     37 O          -3.4884   -1.8210    4.9944 O.3     1  UNL1       -0.3784
     38 C          -3.1924   -1.0363    6.1393 C.3     1  UNL1        0.0369
     39 H          -1.8815    1.7179   -3.0502 H       1  UNL1        0.0299
     40 H          -2.0074    1.9917   -0.4450 H       1  UNL1        0.0526
     41 H          -0.2762    0.6134   -1.9950 H       1  UNL1        0.0666
     42 H          -0.6442    4.1468   -4.4062 H       1  UNL1        0.0232
     43 H          -1.4637    2.8132   -5.2147 H       1  UNL1        0.0232
     44 H           0.0442    2.5246   -4.3627 H       1  UNL1        0.0232
     45 H          -2.8783    4.5977   -3.0877 H       1  UNL1        0.0268
     46 H          -3.5304    3.2795   -4.0192 H       1  UNL1        0.0268
     47 H          -4.0439    2.0651   -1.8454 H       1  UNL1        0.0265
     48 H          -3.5795    3.5191   -0.9901 H       1  UNL1        0.0265
     49 H          -5.3200    4.8123   -2.2267 H       1  UNL1        0.0265
     50 H          -5.8484    3.3601   -3.0356 H       1  UNL1        0.0265
     51 H          -5.8103    3.6953   -0.0022 H       1  UNL1        0.0265
     52 H          -7.1931    4.0951   -0.9707 H       1  UNL1        0.0265
     53 H          -7.5597    1.8488   -1.6848 H       1  UNL1        0.0266
     54 H          -6.0308    1.2740   -1.0977 H       1  UNL1        0.0266
     55 H          -8.0186    2.4389    0.8913 H       1  UNL1        0.0280
     56 H          -8.2643    0.8417    0.2502 H       1  UNL1        0.0280
     57 H          -7.0711    0.6202    2.3471 H       1  UNL1        0.0461
     58 H          -6.0444    0.0909    1.0298 H       1  UNL1        0.0461
     59 H          -5.5329    2.8202    1.4630 H       1  UNL1        0.1461
     60 H          -4.9207   -0.4275    3.1550 H       1  UNL1        0.0639
     61 H          -0.6562    0.1597    3.1332 H       1  UNL1        0.0628
     62 H          -3.2472    3.1582    1.4372 H       1  UNL1        0.0643
     63 H           0.4315    3.4020    0.3785 H       1  UNL1        0.1494
     64 H           0.2367    3.1879   -2.0691 H       1  UNL1        0.0286
     65 H          -1.0722    4.1452   -1.4676 H       1  UNL1        0.0286
     66 H           1.7812    1.4622   -0.7342 H       1  UNL1        0.0840
     67 H           1.2214    0.5541    0.6629 H       1  UNL1        0.0840
     68 H           1.2296   -1.4066   -0.7218 H       1  UNL1        0.2018
     69 H           3.8090   -0.0038   -0.8046 H       1  UNL1        0.0866
     70 H           3.2041   -0.9471    0.5476 H       1  UNL1        0.0866
     71 H           3.0734   -3.4182    0.4275 H       1  UNL1        0.0622
     72 H           3.9676   -5.4810   -0.6235 H       1  UNL1        0.0618
     73 H           5.1263   -5.3669   -2.8097 H       1  UNL1        0.0620
     74 H           4.5051   -1.0963   -2.9129 H       1  UNL1        0.0625
     75 H           5.6238   -2.0918   -4.6699 H       1  UNL1        0.0343
     76 H           3.8375   -3.5453   -5.5627 H       1  UNL1        0.0235
     77 H           4.8022   -4.9804   -5.2256 H       1  UNL1        0.0235
     78 H           5.3494   -3.8118   -6.4210 H       1  UNL1        0.0235
     79 H           7.6172   -2.9998   -3.5170 H       1  UNL1        0.0235
     80 H           7.5938   -3.4670   -5.2126 H       1  UNL1        0.0235
     81 H           7.1594   -4.6388   -3.9746 H       1  UNL1        0.0235
     82 H          -1.9504   -0.1650   -0.7094 H       1  UNL1        0.2101
     83 H          -2.7682   -2.3940    3.1741 H       1  UNL1        0.0610
     84 H          -1.5582   -1.7402    4.2520 H       1  UNL1        0.0610
     85 H          -3.9123   -1.2562    6.9275 H       1  UNL1        0.0524
     86 H          -3.2512    0.0310    5.9233 H       1  UNL1        0.0524
     87 H          -2.1964   -1.2608    6.5231 H       1  UNL1        0.0524
     88 H           1.7926   -0.5425   -1.9971 H       1  UNL1        0.2018
@<TRIPOS>BOND
     1     1     2    1
     2     1    42    1
     3     1    43    1
     4     1    44    1
     5     2    39    1
     6     2    21    1
     7     2     3    1
     8     3     4    1
     9     3    45    1
    10     3    46    1
    11     4     5    1
    12     4    47    1
    13     4    48    1
    14     5     6    1
    15     5    49    1
    16     5    50    1
    17     6     7    1
    18     6    51    1
    19     6    52    1
    20     7     8    1
    21     7    53    1
    22     7    54    1
    23     8     9    1
    24     8    55    1
    25     8    56    1
    26     9    10    1
    27     9    57    1
    28     9    58    1
    29    10    11    1
    30    10    59    1
    31    11    16   ar
    32    11    12   ar
    33    12    13   ar
    34    12    60    1
    35    13    14   ar
    36    13    36    1
    37    14    15   ar
    38    14    61    1
    39    15    16   ar
    40    15    17    1
    41    16    62    1
    42    17    18    2
    43    17    19   am
    44    19    20    1
    45    19    63    1
    46    20    40    1
    47    20    21    1
    48    20    22    1
    49    21    64    1
    50    21    65    1
    51    22    41    1
    52    22    23    1
    53    22    35    1
    54    23    24    1
    55    23    66    1
    56    23    67    1
    57    24    25    1
    58    24    68    1
    59    24    88    1
    60    25    26    1
    61    25    69    1
    62    25    70    1
    63    26    31   ar
    64    26    27   ar
    65    27    28   ar
    66    27    71    1
    67    28    29   ar
    68    28    72    1
    69    29    30   ar
    70    29    73    1
    71    30    31   ar
    72    30    32    1
    73    31    74    1
    74    32    33    1
    75    32    34    1
    76    32    75    1
    77    33    76    1
    78    33    77    1
    79    33    78    1
    80    34    79    1
    81    34    80    1
    82    34    81    1
    83    35    82    1
    84    36    37    1
    85    36    83    1
    86    36    84    1
    87    37    38    1
    88    38    85    1
    89    38    86    1
    90    38    87    1
