@<TRIPOS>MOLECULE
BACE_16.smi:1
 84 87 0 0 0
SMALL
GASTEIGER
****
Structure written by MMmdl.
@<TRIPOS>ATOM
      1 C          -5.8271    2.9525   -4.2385 C.3     1  UNL1       -0.0586
      2 C          -4.9438    3.7696   -3.2831 C.3     1  UNL1       -0.0215
      3 C          -4.6983    5.1897   -3.8157 C.3     1  UNL1       -0.0586
      4 C          -3.6352    3.0544   -2.9691 C.ar    1  UNL1       -0.0445
      5 C          -2.7016    2.7765   -3.9906 C.ar    1  UNL1       -0.0583
      6 C          -1.4962    2.1162   -3.6881 C.ar    1  UNL1       -0.0612
      7 C          -1.2112    1.7353   -2.3633 C.ar    1  UNL1       -0.0573
      8 C          -2.1311    2.0190   -1.3275 C.ar    1  UNL1       -0.0333
      9 C          -3.3425    2.6698   -1.6430 C.ar    1  UNL1       -0.0539
     10 C          -1.8636    1.6478    0.1267 C.3     1  UNL1        0.0213
     11 N          -0.4582    1.4146    0.4569 N.3     1  UNL1       -0.3095
     12 C          -0.0608    0.0080    0.4535 C.3     1  UNL1        0.0240
     13 C           1.4585   -0.1343    0.6881 C.3     1  UNL1        0.0862
     14 C           2.0127   -1.5630    0.4578 C.3     1  UNL1        0.0545
     15 C           3.5626   -1.5894    0.4955 C.3     1  UNL1       -0.0066
     16 C           4.1716   -2.9652    0.2699 C.ar    1  UNL1       -0.0421
     17 C           4.1580   -3.9185    1.3069 C.ar    1  UNL1       -0.0583
     18 C           4.7029   -5.1977    1.0931 C.ar    1  UNL1       -0.0580
     19 C           5.2608   -5.5316   -0.1559 C.ar    1  UNL1       -0.0199
     20 C           5.2800   -4.5837   -1.2094 C.ar    1  UNL1        0.1208
     21 C           4.7400   -3.3013   -0.9774 C.ar    1  UNL1       -0.0167
     22 O           5.8009   -4.8218   -2.4650 O.3     1  UNL1       -0.4920
     23 C           6.1164   -6.1555   -2.8618 C.3     1  UNL1        0.0897
     24 C           4.8512   -6.9954   -3.1221 C.3     1  UNL1       -0.0156
     25 C           3.9390   -6.3819   -4.1951 C.3     1  UNL1       -0.0156
     26 C           2.5816   -7.1048   -4.3054 C.3     1  UNL1        0.0897
     27 O           1.6186   -6.3093   -4.9927 O.3     1  UNL1       -0.4918
     28 C           1.0702   -5.2181   -4.3456 C.ar    1  UNL1        0.1247
     29 C           1.3160   -4.8875   -2.9903 C.ar    1  UNL1       -0.0076
     30 C           0.7743   -3.7175   -2.4235 C.ar    1  UNL1        0.0436
     31 C          -0.0697   -2.8910   -3.1950 C.ar    1  UNL1       -0.0076
     32 C          -0.3633   -3.2284   -4.5390 C.ar    1  UNL1        0.1253
     33 C           0.2233   -4.3813   -5.0992 C.ar    1  UNL1        0.0218
     34 O          -1.1925   -2.4898   -5.3530 O.3     1  UNL1       -0.4844
     35 C          -1.9716   -1.4707   -4.7434 C.3     1  UNL1        0.1470
     36 C          -2.9422   -0.8899   -5.7691 C.2     1  UNL1        0.1673
     37 O          -2.7634   -1.0162   -6.9795 O.2     1  UNL1       -0.2941
     38 C          -4.1478   -0.1324   -5.2304 C.3     1  UNL1       -0.0026
     39 C           1.0983   -3.3748   -1.0031 C.2     1  UNL1        0.2446
     40 O           1.0447   -4.2313   -0.1205 O.2     1  UNL1       -0.2702
     41 N           1.5211   -2.1147   -0.8072 N.am    1  UNL1       -0.3057
     42 O           1.7068    0.2099    2.0385 O.3     1  UNL1       -0.3887
     43 H           1.9891    0.5644    0.0392 H       1  UNL1        0.0624
     44 H           1.6416   -2.1910    1.2704 H       1  UNL1        0.0527
     45 H          -6.0350    1.9629   -3.8309 H       1  UNL1        0.0235
     46 H          -5.3535    2.8217   -5.2115 H       1  UNL1        0.0235
     47 H          -6.7847    3.4467   -4.4041 H       1  UNL1        0.0235
     48 H          -5.4969    3.8713   -2.3483 H       1  UNL1        0.0343
     49 H          -4.1176    5.7788   -3.1053 H       1  UNL1        0.0235
     50 H          -5.6401    5.7127   -3.9836 H       1  UNL1        0.0235
     51 H          -4.1553    5.1777   -4.7611 H       1  UNL1        0.0235
     52 H          -2.9074    3.0636   -5.0112 H       1  UNL1        0.0620
     53 H          -0.7880    1.9018   -4.4747 H       1  UNL1        0.0618
     54 H          -0.2776    1.2340   -2.1580 H       1  UNL1        0.0621
     55 H          -4.0490    2.8836   -0.8542 H       1  UNL1        0.0623
     56 H          -2.2263    2.4763    0.7359 H       1  UNL1        0.0473
     57 H          -2.4762    0.7877    0.4000 H       1  UNL1        0.0473
     58 H          -0.6136   -0.5488    1.2114 H       1  UNL1        0.0450
     59 H          -0.3363   -0.4281   -0.5062 H       1  UNL1        0.0450
     60 H           3.9603   -0.9022   -0.2528 H       1  UNL1        0.0332
     61 H           3.9192   -1.2195    1.4575 H       1  UNL1        0.0332
     62 H           3.7240   -3.6731    2.2649 H       1  UNL1        0.0620
     63 H           4.6902   -5.9271    1.8893 H       1  UNL1        0.0619
     64 H           5.6671   -6.5232   -0.2793 H       1  UNL1        0.0654
     65 H           4.7483   -2.5737   -1.7759 H       1  UNL1        0.0657
     66 H           6.6917   -6.0895   -3.7855 H       1  UNL1        0.0696
     67 H           6.7782   -6.6392   -2.1435 H       1  UNL1        0.0696
     68 H           5.1398   -8.0020   -3.4256 H       1  UNL1        0.0299
     69 H           4.2903   -7.1118   -2.1952 H       1  UNL1        0.0299
     70 H           3.7814   -5.3320   -3.9533 H       1  UNL1        0.0299
     71 H           4.4389   -6.3861   -5.1640 H       1  UNL1        0.0299
     72 H           2.7170   -8.0297   -4.8663 H       1  UNL1        0.0696
     73 H           2.1984   -7.4150   -3.3327 H       1  UNL1        0.0696
     74 H           1.9552   -5.4988   -2.3715 H       1  UNL1        0.0662
     75 H          -0.4871   -2.0049   -2.7399 H       1  UNL1        0.0662
     76 H           0.0178   -4.6299   -6.1302 H       1  UNL1        0.0691
     77 H          -2.5386   -1.8752   -3.9039 H       1  UNL1        0.0777
     78 H          -1.3259   -0.6745   -4.3727 H       1  UNL1        0.0777
     79 H          -3.9858    0.1636   -4.1938 H       1  UNL1        0.0307
     80 H          -5.0384   -0.7588   -5.2761 H       1  UNL1        0.0307
     81 H          -4.3237    0.7647   -5.8236 H       1  UNL1        0.0307
     82 H           1.5494   -1.5013   -1.6088 H       1  UNL1        0.1494
     83 H           1.2365   -0.3932    2.5935 H       1  UNL1        0.2099
     84 H          -0.2358    1.8343    1.3542 H       1  UNL1        0.1223
@<TRIPOS>BOND
     1     1     2    1
     2     1    45    1
     3     1    46    1
     4     1    47    1
     5     2     3    1
     6     2     4    1
     7     2    48    1
     8     3    49    1
     9     3    50    1
    10     3    51    1
    11     4     9   ar
    12     4     5   ar
    13     5     6   ar
    14     5    52    1
    15     6     7   ar
    16     6    53    1
    17     7     8   ar
    18     7    54    1
    19     8     9   ar
    20     8    10    1
    21     9    55    1
    22    10    11    1
    23    10    56    1
    24    10    57    1
    25    11    12    1
    26    11    84    1
    27    12    13    1
    28    12    58    1
    29    12    59    1
    30    13    43    1
    31    13    14    1
    32    13    42    1
    33    14    44    1
    34    14    41    1
    35    14    15    1
    36    15    16    1
    37    15    60    1
    38    15    61    1
    39    16    21   ar
    40    16    17   ar
    41    17    18   ar
    42    17    62    1
    43    18    19   ar
    44    18    63    1
    45    19    20   ar
    46    19    64    1
    47    20    21   ar
    48    20    22    1
    49    21    65    1
    50    22    23    1
    51    23    24    1
    52    23    66    1
    53    23    67    1
    54    24    25    1
    55    24    68    1
    56    24    69    1
    57    25    26    1
    58    25    70    1
    59    25    71    1
    60    26    27    1
    61    26    72    1
    62    26    73    1
    63    27    28    1
    64    28    33   ar
    65    28    29   ar
    66    29    30   ar
    67    29    74    1
    68    30    31   ar
    69    30    39    1
    70    31    32   ar
    71    31    75    1
    72    32    33   ar
    73    32    34    1
    74    33    76    1
    75    34    35    1
    76    35    36    1
    77    35    77    1
    78    35    78    1
    79    36    37    2
    80    36    38    1
    81    38    79    1
    82    38    80    1
    83    38    81    1
    84    39    40    2
    85    39    41   am
    86    41    82    1
    87    42    83    1
