@<TRIPOS>MOLECULE
BACE_8.smi:1
 78 80 0 0 0
SMALL
GASTEIGER
****
Structure written by MMmdl.
@<TRIPOS>ATOM
      1 C          -1.2958    2.4878    3.1219 C.3     1  UNL1       -0.0623
      2 C          -2.6115    1.7299    2.8684 C.3     1  UNL1       -0.0400
      3 C          -3.2560    1.2716    4.1979 C.3     1  UNL1       -0.0268
      4 C          -3.9858    2.3933    4.9546 C.3     1  UNL1        0.0479
      5 O          -5.1354    2.7625    4.2114 O.3     1  UNL1       -0.3797
      6 C          -5.8199    3.8841    4.7432 C.3     1  UNL1        0.0477
      7 C          -7.0695    4.1840    3.8979 C.3     1  UNL1       -0.0281
      8 C          -6.7824    4.7742    2.5038 C.3     1  UNL1       -0.0354
      9 C          -6.1283    3.7801    1.5333 C.3     1  UNL1        0.0105
     10 N          -5.9530    4.3449    0.2052 N.pl3   1  UNL1       -0.3290
     11 C          -5.2484    3.6465   -0.7850 C.ar    1  UNL1        0.1211
     12 C          -4.7417    2.3394   -0.5871 C.ar    1  UNL1       -0.0097
     13 C          -4.0356    1.7165   -1.6397 C.ar    1  UNL1        0.0428
     14 C          -3.8951    2.4132   -2.8567 C.ar    1  UNL1       -0.0126
     15 C          -4.4336    3.7102   -2.9633 C.ar    1  UNL1        0.1320
     16 N          -5.0893    4.3130   -1.9482 N.ar    1  UNL1       -0.2208
     17 CL         -4.2534    4.5684   -4.4485 Cl      1  UNL1       -0.0619
     18 C          -3.5067    0.3174   -1.5087 C.2     1  UNL1        0.2446
     19 O          -3.8196   -0.5300   -2.3420 O.2     1  UNL1       -0.2702
     20 N          -2.6870    0.0148   -0.4844 N.am    1  UNL1       -0.3058
     21 C          -2.0069    0.9101    0.4585 C.3     1  UNL1        0.0545
     22 C          -2.4521    0.5373    1.8956 C.3     1  UNL1       -0.0292
     23 C          -0.4654    0.8111    0.2700 C.3     1  UNL1        0.1130
     24 C           0.0714   -0.5787   -0.1327 C.3     1  UNL1       -0.0050
     25 N           1.5440   -0.6320   -0.0480 N.4     1  UNL1        0.2321
     26 C           2.1176   -1.9356   -0.4305 C.3     1  UNL1       -0.0076
     27 C           3.6300   -1.8915   -0.3592 C.ar    1  UNL1       -0.0027
     28 C           4.2939   -2.2444    0.8334 C.ar    1  UNL1       -0.0535
     29 C           5.6991   -2.1969    0.8979 C.ar    1  UNL1       -0.0611
     30 C           6.4445   -1.7969   -0.2276 C.ar    1  UNL1       -0.0583
     31 C           5.7897   -1.4426   -1.4267 C.ar    1  UNL1       -0.0444
     32 C           4.3793   -1.4917   -1.4854 C.ar    1  UNL1       -0.0501
     33 C           6.6040   -1.0148   -2.6413 C.3     1  UNL1       -0.0215
     34 C           6.2953    0.4335   -3.0513 C.3     1  UNL1       -0.0586
     35 C           6.4205   -1.9874   -3.8169 C.3     1  UNL1       -0.0586
     36 O          -0.0692    1.7616   -0.6992 O.3     1  UNL1       -0.3847
     37 H          -3.2986    2.4269    2.3920 H       1  UNL1        0.0299
     38 H          -2.3004    1.9449    0.2868 H       1  UNL1        0.0526
     39 H           0.0253    1.1050    1.1967 H       1  UNL1        0.0666
     40 H          -0.5269    1.8264    3.5221 H       1  UNL1        0.0232
     41 H          -1.4325    3.3013    3.8336 H       1  UNL1        0.0232
     42 H          -0.9141    2.9400    2.2070 H       1  UNL1        0.0232
     43 H          -3.9783    0.4755    4.0130 H       1  UNL1        0.0290
     44 H          -2.4916    0.8314    4.8394 H       1  UNL1        0.0290
     45 H          -4.2933    2.0388    5.9393 H       1  UNL1        0.0560
     46 H          -3.3306    3.2508    5.1094 H       1  UNL1        0.0560
     47 H          -6.1197    3.6672    5.7695 H       1  UNL1        0.0560
     48 H          -5.1636    4.7551    4.7727 H       1  UNL1        0.0560
     49 H          -7.6786    3.2839    3.8050 H       1  UNL1        0.0288
     50 H          -7.6812    4.9015    4.4456 H       1  UNL1        0.0288
     51 H          -7.7261    5.1128    2.0741 H       1  UNL1        0.0281
     52 H          -6.1580    5.6631    2.6026 H       1  UNL1        0.0281
     53 H          -5.1486    3.4961    1.9083 H       1  UNL1        0.0462
     54 H          -6.7320    2.8749    1.4602 H       1  UNL1        0.0462
     55 H          -6.2778    5.2836    0.0220 H       1  UNL1        0.1474
     56 H          -4.8884    1.8117    0.3439 H       1  UNL1        0.0659
     57 H          -3.3825    1.9650   -3.6958 H       1  UNL1        0.0655
     58 H          -2.4146   -0.9551   -0.4220 H       1  UNL1        0.1494
     59 H          -1.7814   -0.2107    2.3202 H       1  UNL1        0.0286
     60 H          -3.4253    0.0465    1.8366 H       1  UNL1        0.0286
     61 H          -0.3373   -1.3400    0.5330 H       1  UNL1        0.0840
     62 H          -0.2374   -0.8364   -1.1472 H       1  UNL1        0.0840
     63 H           1.7389   -2.7146    0.2326 H       1  UNL1        0.0866
     64 H           1.8063   -2.1949   -1.4435 H       1  UNL1        0.0866
     65 H           3.7293   -2.5520    1.7017 H       1  UNL1        0.0622
     66 H           6.2070   -2.4679    1.8117 H       1  UNL1        0.0618
     67 H           7.5225   -1.7651   -0.1646 H       1  UNL1        0.0620
     68 H           3.8689   -1.2212   -2.3984 H       1  UNL1        0.0625
     69 H           7.6576   -1.0493   -2.3608 H       1  UNL1        0.0343
     70 H           6.4707    1.1212   -2.2234 H       1  UNL1        0.0235
     71 H           5.2590    0.5512   -3.3689 H       1  UNL1        0.0235
     72 H           6.9309    0.7482   -3.8794 H       1  UNL1        0.0235
     73 H           6.6924   -3.0035   -3.5301 H       1  UNL1        0.0235
     74 H           7.0509   -1.7048   -4.6607 H       1  UNL1        0.0235
     75 H           5.3888   -2.0051   -4.1689 H       1  UNL1        0.0235
     76 H          -0.3698    2.6157   -0.4260 H       1  UNL1        0.2101
     77 H           1.9217    0.0761   -0.6617 H       1  UNL1        0.2018
     78 H           1.8250   -0.4208    0.8986 H       1  UNL1        0.2018
@<TRIPOS>BOND
     1     1     2    1
     2     1    40    1
     3     1    41    1
     4     1    42    1
     5     2    37    1
     6     2    22    1
     7     2     3    1
     8     3     4    1
     9     3    43    1
    10     3    44    1
    11     4     5    1
    12     4    45    1
    13     4    46    1
    14     5     6    1
    15     6     7    1
    16     6    47    1
    17     6    48    1
    18     7     8    1
    19     7    49    1
    20     7    50    1
    21     8     9    1
    22     8    51    1
    23     8    52    1
    24     9    10    1
    25     9    53    1
    26     9    54    1
    27    10    11    1
    28    10    55    1
    29    11    16   ar
    30    11    12   ar
    31    12    13   ar
    32    12    56    1
    33    13    14   ar
    34    13    18    1
    35    14    15   ar
    36    14    57    1
    37    15    16   ar
    38    15    17    1
    39    18    19    2
    40    18    20   am
    41    20    21    1
    42    20    58    1
    43    21    38    1
    44    21    22    1
    45    21    23    1
    46    22    59    1
    47    22    60    1
    48    23    39    1
    49    23    24    1
    50    23    36    1
    51    24    25    1
    52    24    61    1
    53    24    62    1
    54    25    26    1
    55    25    77    1
    56    25    78    1
    57    26    27    1
    58    26    63    1
    59    26    64    1
    60    27    32   ar
    61    27    28   ar
    62    28    29   ar
    63    28    65    1
    64    29    30   ar
    65    29    66    1
    66    30    31   ar
    67    30    67    1
    68    31    32   ar
    69    31    33    1
    70    32    68    1
    71    33    34    1
    72    33    35    1
    73    33    69    1
    74    34    70    1
    75    34    71    1
    76    34    72    1
    77    35    73    1
    78    35    74    1
    79    35    75    1
    80    36    76    1
