@<TRIPOS>MOLECULE
BACE_5.smi:1
 79 80 0 0 0
SMALL
GASTEIGER
****
Structure written by MMmdl.
@<TRIPOS>ATOM
      1 C          -7.9736    2.5877   -0.4853 C.3     1  UNL1       -0.0649
      2 C          -6.5222    2.5473    0.0060 C.3     1  UNL1       -0.0504
      3 C          -5.9054    1.1433   -0.0875 C.3     1  UNL1       -0.0089
      4 C          -4.4758    1.1225    0.3771 C.ar    1  UNL1        0.0631
      5 C          -3.2949    1.1269   -0.4221 C.ar    1  UNL1       -0.0168
      6 C          -2.2724    1.1166    0.4846 C.ar    1  UNL1        0.0501
      7 N          -2.8618    1.0985    1.7276 N.ar    1  UNL1       -0.2801
      8 N          -4.2071    1.1040    1.6751 N.ar    1  UNL1       -0.1786
      9 C          -0.7932    1.1207    0.2966 C.3     1  UNL1        0.0380
     10 N          -0.2806   -0.2063   -0.0227 N.3     1  UNL1       -0.3081
     11 C           1.1393   -0.2090   -0.3621 C.3     1  UNL1        0.0240
     12 C           1.6336   -1.6254   -0.7115 C.3     1  UNL1        0.0859
     13 C           3.1823   -1.7284   -0.6970 C.3     1  UNL1        0.0505
     14 C           3.8811   -0.9220   -1.8310 C.3     1  UNL1       -0.0295
     15 C           5.4328   -0.8733   -1.8442 C.3     1  UNL1       -0.0421
     16 C           6.0203   -0.2310   -0.5646 C.3     1  UNL1       -0.0504
     17 C           7.5605   -0.1561   -0.5236 C.3     1  UNL1       -0.0528
     18 C           8.1697   -1.2503    0.3715 C.3     1  UNL1       -0.0530
     19 C           9.6720   -1.4965    0.1518 C.3     1  UNL1       -0.0510
     20 C          10.0127   -2.3781   -1.0673 C.3     1  UNL1       -0.0294
     21 C           9.7715   -3.8864   -0.8616 C.3     1  UNL1        0.0483
     22 O           8.3854   -4.1856   -0.8877 O.3     1  UNL1       -0.3706
     23 C           8.0993   -5.5633   -0.6963 C.3     1  UNL1        0.1238
     24 C           6.5797   -5.7646   -0.8022 C.2     1  UNL1        0.2417
     25 O           6.1460   -6.2905   -1.8278 O.2     1  UNL1       -0.2731
     26 N           5.7714   -5.3218    0.1965 N.am    1  UNL1       -0.2914
     27 C           4.2954   -5.3366    0.0632 C.3     1  UNL1        0.0991
     28 C           3.6594   -3.9616    0.3362 C.2     1  UNL1        0.2336
     29 O           3.2556   -3.6629    1.4602 O.2     1  UNL1       -0.2738
     30 N           3.5998   -3.1287   -0.7154 N.am    1  UNL1       -0.3084
     31 C           3.6912   -6.4973    0.8750 C.3     1  UNL1       -0.0379
     32 C           6.3283   -4.8600    1.4768 C.3     1  UNL1        0.0040
     33 C           6.0785   -2.2197   -2.2253 C.3     1  UNL1       -0.0624
     34 O           1.1480   -1.9520   -2.0004 O.3     1  UNL1       -0.3887
     35 H          -2.3652    1.0816    2.6070 H       1  UNL1        0.1886
     36 H           1.2161   -2.3311    0.0086 H       1  UNL1        0.0624
     37 H           3.5120   -1.3114    0.2550 H       1  UNL1        0.0524
     38 H           5.6891   -0.1987   -2.6624 H       1  UNL1        0.0299
     39 H           4.0186   -5.5509   -0.9705 H       1  UNL1        0.0594
     40 H          -8.3828    3.5948   -0.4051 H       1  UNL1        0.0230
     41 H          -8.6074    1.9235    0.1027 H       1  UNL1        0.0230
     42 H          -8.0449    2.2825   -1.5295 H       1  UNL1        0.0230
     43 H          -5.9260    3.2478   -0.5801 H       1  UNL1        0.0266
     44 H          -6.4839    2.8975    1.0383 H       1  UNL1        0.0266
     45 H          -6.4985    0.4426    0.5018 H       1  UNL1        0.0329
     46 H          -5.9598    0.7906   -1.1181 H       1  UNL1        0.0329
     47 H          -3.2122    1.1415   -1.4987 H       1  UNL1        0.0654
     48 H          -0.3058    1.5032    1.1942 H       1  UNL1        0.0489
     49 H          -0.5454    1.8157   -0.5064 H       1  UNL1        0.0489
     50 H           1.3320    0.4736   -1.1905 H       1  UNL1        0.0450
     51 H           1.7059    0.1700    0.4892 H       1  UNL1        0.0450
     52 H           3.5489   -1.2978   -2.7993 H       1  UNL1        0.0286
     53 H           3.5261    0.1076   -1.7897 H       1  UNL1        0.0286
     54 H           5.6232    0.7814   -0.4841 H       1  UNL1        0.0268
     55 H           5.6654   -0.7515    0.3245 H       1  UNL1        0.0268
     56 H           7.9692   -0.1972   -1.5330 H       1  UNL1        0.0265
     57 H           7.8643    0.8144   -0.1293 H       1  UNL1        0.0265
     58 H           8.0063   -0.9674    1.4119 H       1  UNL1        0.0265
     59 H           7.6237   -2.1781    0.2394 H       1  UNL1        0.0265
     60 H          10.1752   -0.5337    0.0556 H       1  UNL1        0.0266
     61 H          10.0936   -1.9587    1.0450 H       1  UNL1        0.0266
     62 H           9.4901   -2.0282   -1.9575 H       1  UNL1        0.0287
     63 H          11.0737   -2.2445   -1.2796 H       1  UNL1        0.0287
     64 H          10.2653   -4.4395   -1.6616 H       1  UNL1        0.0560
     65 H          10.2151   -4.2169    0.0787 H       1  UNL1        0.0560
     66 H           8.5923   -6.1514   -1.4724 H       1  UNL1        0.0657
     67 H           8.4840   -5.9195    0.2593 H       1  UNL1        0.0657
     68 H           3.9485   -3.4749   -1.5976 H       1  UNL1        0.1491
     69 H           2.6077   -6.5358    0.7579 H       1  UNL1        0.0252
     70 H           3.9037   -6.4034    1.9403 H       1  UNL1        0.0252
     71 H           4.0894   -7.4558    0.5408 H       1  UNL1        0.0252
     72 H           6.8915   -3.9377    1.3544 H       1  UNL1        0.0429
     73 H           6.9886   -5.6121    1.9094 H       1  UNL1        0.0429
     74 H           5.5607   -4.6727    2.2265 H       1  UNL1        0.0429
     75 H           6.0851   -2.9139   -1.3891 H       1  UNL1        0.0232
     76 H           7.1128   -2.0925   -2.5419 H       1  UNL1        0.0232
     77 H           5.5513   -2.6942   -3.0530 H       1  UNL1        0.0232
     78 H           1.4020   -2.8405   -2.1977 H       1  UNL1        0.2099
     79 H          -0.8134   -0.6021   -0.7910 H       1  UNL1        0.1224
@<TRIPOS>BOND
     1     1     2    1
     2     1    40    1
     3     1    41    1
     4     1    42    1
     5     2     3    1
     6     2    43    1
     7     2    44    1
     8     3    45    1
     9     3    46    1
    10     3     4    1
    11     4     8   ar
    12     4     5   ar
    13     5     6   ar
    14     5    47    1
    15     6     7   ar
    16     6     9    1
    17     7     8   ar
    18     7    35    1
    19     9    10    1
    20     9    48    1
    21     9    49    1
    22    10    11    1
    23    10    79    1
    24    11    12    1
    25    11    50    1
    26    11    51    1
    27    12    36    1
    28    12    13    1
    29    12    34    1
    30    13    37    1
    31    13    30    1
    32    13    14    1
    33    14    15    1
    34    14    52    1
    35    14    53    1
    36    15    38    1
    37    15    16    1
    38    15    33    1
    39    16    17    1
    40    16    54    1
    41    16    55    1
    42    17    18    1
    43    17    56    1
    44    17    57    1
    45    18    19    1
    46    18    58    1
    47    18    59    1
    48    19    20    1
    49    19    60    1
    50    19    61    1
    51    20    21    1
    52    20    62    1
    53    20    63    1
    54    21    22    1
    55    21    64    1
    56    21    65    1
    57    22    23    1
    58    23    24    1
    59    23    66    1
    60    23    67    1
    61    24    25    2
    62    24    26   am
    63    26    27    1
    64    26    32    1
    65    27    39    1
    66    27    28    1
    67    27    31    1
    68    28    29    2
    69    28    30   am
    70    30    68    1
    71    31    69    1
    72    31    70    1
    73    31    71    1
    74    32    72    1
    75    32    73    1
    76    32    74    1
    77    33    75    1
    78    33    76    1
    79    33    77    1
    80    34    78    1
