@<TRIPOS>MOLECULE
BACE_12.smi:1
 79 82 0 0 0
SMALL
GASTEIGER
****
Structure written by MMmdl.
@<TRIPOS>ATOM
      1 C          -3.5040    0.7852   -4.5392 C.3     1  UNL1       -0.0586
      2 C          -4.0109    1.2658   -3.1709 C.3     1  UNL1       -0.0215
      3 C          -5.0972    2.3433   -3.3149 C.3     1  UNL1       -0.0586
      4 C          -2.8642    1.7339   -2.2838 C.ar    1  UNL1       -0.0444
      5 C          -2.0918    2.8610   -2.6408 C.ar    1  UNL1       -0.0583
      6 C          -1.0302    3.2843   -1.8189 C.ar    1  UNL1       -0.0611
      7 C          -0.7305    2.5820   -0.6368 C.ar    1  UNL1       -0.0535
      8 C          -1.4926    1.4523   -0.2734 C.ar    1  UNL1       -0.0027
      9 C          -2.5597    1.0347   -1.0959 C.ar    1  UNL1       -0.0501
     10 C          -1.1615    0.6804    0.9912 C.3     1  UNL1       -0.0076
     11 N          -0.4318   -0.5721    0.7014 N.4     1  UNL1        0.2321
     12 C           0.9310   -0.3928    0.1555 C.3     1  UNL1       -0.0049
     13 C           1.6196   -1.7485   -0.0852 C.3     1  UNL1        0.1133
     14 C           3.1282   -1.6015   -0.4237 C.3     1  UNL1        0.0583
     15 C           3.4102   -0.8983   -1.7749 C.3     1  UNL1       -0.0066
     16 C           4.8871   -0.8112   -2.1260 C.ar    1  UNL1       -0.0453
     17 C           5.7212    0.0841   -1.4254 C.ar    1  UNL1       -0.0585
     18 C           7.0877    0.1774   -1.7481 C.ar    1  UNL1       -0.0612
     19 C           7.6249   -0.6218   -2.7746 C.ar    1  UNL1       -0.0586
     20 C           6.7996   -1.5212   -3.4817 C.ar    1  UNL1       -0.0471
     21 C           5.4295   -1.6132   -3.1544 C.ar    1  UNL1       -0.0553
     22 C           7.3953   -2.3804   -4.5861 C.3     1  UNL1       -0.0276
     23 C           8.2599   -3.5290   -4.0384 C.3     1  UNL1       -0.0476
     24 C           7.4419   -4.6903   -3.4472 C.3     1  UNL1       -0.0371
     25 C           8.1524   -5.3532   -2.2543 C.3     1  UNL1        0.0104
     26 N           7.3991   -6.4644   -1.6892 N.pl3   1  UNL1       -0.3289
     27 C           6.4139   -6.2578   -0.7123 C.ar    1  UNL1        0.1232
     28 C           5.8183   -4.9978   -0.4754 C.ar    1  UNL1       -0.0095
     29 C           4.8025   -4.8944    0.4981 C.ar    1  UNL1        0.0450
     30 C           4.4607   -6.0437    1.2400 C.ar    1  UNL1        0.0122
     31 C           5.1207   -7.2625    0.9469 C.ar    1  UNL1        0.2168
     32 N           6.0642   -7.3596   -0.0152 N.ar    1  UNL1       -0.1981
     33 O           4.8743   -8.4569    1.5878 O.3     1  UNL1       -0.4796
     34 C           3.9109   -8.4643    2.6306 C.3     1  UNL1        0.0804
     35 C           4.1074   -3.5898    0.7463 C.2     1  UNL1        0.2447
     36 O           3.7864   -3.2424    1.8829 O.2     1  UNL1       -0.2702
     37 N           3.8155   -2.8913   -0.3634 N.am    1  UNL1       -0.3055
     38 O           0.9467   -2.4035   -1.1442 O.3     1  UNL1       -0.3847
     39 H           1.5031   -2.3537    0.8144 H       1  UNL1        0.0666
     40 H           3.5801   -0.9844    0.3553 H       1  UNL1        0.0529
     41 H          -2.7712   -0.0143   -4.4262 H       1  UNL1        0.0235
     42 H          -3.0327    1.5929   -5.0999 H       1  UNL1        0.0235
     43 H          -4.3225    0.3970   -5.1458 H       1  UNL1        0.0235
     44 H          -4.4772    0.4080   -2.6844 H       1  UNL1        0.0343
     45 H          -5.4865    2.6395   -2.3405 H       1  UNL1        0.0235
     46 H          -5.9361    1.9754   -3.9059 H       1  UNL1        0.0235
     47 H          -4.7162    3.2381   -3.8077 H       1  UNL1        0.0235
     48 H          -2.3092    3.4059   -3.5477 H       1  UNL1        0.0620
     49 H          -0.4439    4.1475   -2.0973 H       1  UNL1        0.0618
     50 H           0.0893    2.9101   -0.0146 H       1  UNL1        0.0622
     51 H          -3.1417    0.1687   -0.8158 H       1  UNL1        0.0625
     52 H          -0.5801    1.2985    1.6767 H       1  UNL1        0.0866
     53 H          -2.0898    0.4306    1.5059 H       1  UNL1        0.0866
     54 H          -0.3579   -1.0986    1.5600 H       1  UNL1        0.2018
     55 H           0.8882    0.1796   -0.7713 H       1  UNL1        0.0840
     56 H           1.5104    0.1949    0.8688 H       1  UNL1        0.0840
     57 H           2.8949   -1.4143   -2.5856 H       1  UNL1        0.0332
     58 H           3.0092    0.1154   -1.7623 H       1  UNL1        0.0332
     59 H           5.3146    0.7029   -0.6389 H       1  UNL1        0.0620
     60 H           7.7242    0.8638   -1.2096 H       1  UNL1        0.0618
     61 H           8.6747   -0.5440   -3.0175 H       1  UNL1        0.0620
     62 H           4.7947   -2.3018   -3.6930 H       1  UNL1        0.0623
     63 H           6.6063   -2.7709   -5.2302 H       1  UNL1        0.0313
     64 H           8.0089   -1.7357   -5.2164 H       1  UNL1        0.0313
     65 H           8.8838   -3.9249   -4.8404 H       1  UNL1        0.0269
     66 H           8.9543   -3.1299   -3.2977 H       1  UNL1        0.0269
     67 H           6.4606   -4.3325   -3.1424 H       1  UNL1        0.0280
     68 H           7.2494   -5.4290   -4.2263 H       1  UNL1        0.0280
     69 H           9.1210   -5.7367   -2.5757 H       1  UNL1        0.0461
     70 H           8.3596   -4.6185   -1.4754 H       1  UNL1        0.0461
     71 H           7.7980   -7.3889   -1.7687 H       1  UNL1        0.1475
     72 H           6.1178   -4.1197   -1.0259 H       1  UNL1        0.0659
     73 H           3.6972   -5.9787    2.0008 H       1  UNL1        0.0678
     74 H           3.8369   -9.4694    3.0451 H       1  UNL1        0.0660
     75 H           2.9226   -8.1860    2.2624 H       1  UNL1        0.0660
     76 H           4.1964   -7.7932    3.4417 H       1  UNL1        0.0660
     77 H           4.1136   -3.2821   -1.2458 H       1  UNL1        0.1494
     78 H           1.3468   -3.2501   -1.2766 H       1  UNL1        0.2101
     79 H          -0.9711   -1.1120    0.0394 H       1  UNL1        0.2018
@<TRIPOS>BOND
     1     1     2    1
     2     1    41    1
     3     1    42    1
     4     1    43    1
     5     2     3    1
     6     2     4    1
     7     2    44    1
     8     3    45    1
     9     3    46    1
    10     3    47    1
    11     4     9   ar
    12     4     5   ar
    13     5     6   ar
    14     5    48    1
    15     6     7   ar
    16     6    49    1
    17     7     8   ar
    18     7    50    1
    19     8     9   ar
    20     8    10    1
    21     9    51    1
    22    10    11    1
    23    10    52    1
    24    10    53    1
    25    11    12    1
    26    11    54    1
    27    11    79    1
    28    12    13    1
    29    12    55    1
    30    12    56    1
    31    13    39    1
    32    13    14    1
    33    13    38    1
    34    14    40    1
    35    14    37    1
    36    14    15    1
    37    15    16    1
    38    15    57    1
    39    15    58    1
    40    16    21   ar
    41    16    17   ar
    42    17    18   ar
    43    17    59    1
    44    18    19   ar
    45    18    60    1
    46    19    20   ar
    47    19    61    1
    48    20    21   ar
    49    20    22    1
    50    21    62    1
    51    22    23    1
    52    22    63    1
    53    22    64    1
    54    23    24    1
    55    23    65    1
    56    23    66    1
    57    24    25    1
    58    24    67    1
    59    24    68    1
    60    25    26    1
    61    25    69    1
    62    25    70    1
    63    26    27    1
    64    26    71    1
    65    27    32   ar
    66    27    28   ar
    67    28    29   ar
    68    28    72    1
    69    29    30   ar
    70    29    35    1
    71    30    31   ar
    72    30    73    1
    73    31    32   ar
    74    31    33    1
    75    33    34    1
    76    34    74    1
    77    34    75    1
    78    34    76    1
    79    35    36    2
    80    35    37   am
    81    37    77    1
    82    38    78    1
