@<TRIPOS>MOLECULE
BACE_5.smi:1
 80 81 0 0 0
SMALL
GASTEIGER
****
Structure written by MMmdl.
@<TRIPOS>ATOM
      1 C          -5.6322    3.1425   -2.1029 C.3     1  UNL1       -0.0649
      2 C          -6.2780    2.3153   -0.9824 C.3     1  UNL1       -0.0504
      3 C          -5.5880    0.9628   -0.7359 C.3     1  UNL1       -0.0089
      4 C          -4.1605    1.1068   -0.2830 C.ar    1  UNL1        0.0632
      5 C          -2.9729    0.9387   -1.0543 C.ar    1  UNL1       -0.0129
      6 C          -1.9592    1.1916   -0.1735 C.ar    1  UNL1        0.0806
      7 N          -2.5593    1.4833    1.0302 N.ar    1  UNL1       -0.2762
      8 N          -3.9026    1.4329    0.9755 N.ar    1  UNL1       -0.1785
      9 C          -0.4786    1.1883   -0.3486 C.3     1  UNL1        0.0092
     10 N           0.0650   -0.1774   -0.2309 N.4     1  UNL1        0.2332
     11 C           1.5351   -0.2463   -0.3397 C.3     1  UNL1       -0.0049
     12 C           2.0457   -1.6921   -0.1661 C.3     1  UNL1        0.1129
     13 C           3.5859   -1.7953   -0.0221 C.3     1  UNL1        0.0543
     14 C           4.1757   -3.2325    0.0333 C.3     1  UNL1       -0.0293
     15 C           3.6418   -4.2656    1.0646 C.3     1  UNL1       -0.0421
     16 C           3.5311   -3.7263    2.5053 C.3     1  UNL1       -0.0504
     17 C           3.4587   -4.8215    3.5838 C.3     1  UNL1       -0.0528
     18 C           3.2368   -4.2395    4.9863 C.3     1  UNL1       -0.0530
     19 C           1.7533   -3.9816    5.3089 C.3     1  UNL1       -0.0510
     20 C           1.5699   -3.0547    6.5219 C.3     1  UNL1       -0.0294
     21 C           1.3222   -1.5860    6.1441 C.3     1  UNL1        0.0483
     22 O           2.2439   -1.1582    5.1528 O.3     1  UNL1       -0.3706
     23 C           2.3614    0.2535    5.0830 C.3     1  UNL1        0.1238
     24 C           3.0623    0.6540    3.7777 C.2     1  UNL1        0.2417
     25 O           2.3843    1.2599    2.9455 O.2     1  UNL1       -0.2731
     26 N           4.3797    0.3715    3.5735 N.am    1  UNL1       -0.2914
     27 C           5.0636    0.9088    2.3603 C.3     1  UNL1        0.0991
     28 C           4.7182    0.1676    1.0485 C.2     1  UNL1        0.2336
     29 O           5.0199    0.6929   -0.0232 O.2     1  UNL1       -0.2738
     30 N           4.0590   -1.0037    1.1178 N.am    1  UNL1       -0.3083
     31 C           6.6062    0.9253    2.4889 C.3     1  UNL1       -0.0379
     32 C           5.1841   -0.4071    4.5311 C.3     1  UNL1        0.0040
     33 C           2.3567   -4.9761    0.5956 C.3     1  UNL1       -0.0624
     34 O           1.6446   -2.4149   -1.3146 O.3     1  UNL1       -0.3847
     35 H          -2.0741    1.7199    1.8844 H       1  UNL1        0.1887
     36 H           1.5684   -2.1227    0.7131 H       1  UNL1        0.0666
     37 H           4.0041   -1.3611   -0.9321 H       1  UNL1        0.0526
     38 H           4.4050   -5.0449    1.0865 H       1  UNL1        0.0299
     39 H           4.7551    1.9483    2.2311 H       1  UNL1        0.0594
     40 H          -6.1880    4.0653   -2.2716 H       1  UNL1        0.0230
     41 H          -5.6157    2.5883   -3.0419 H       1  UNL1        0.0230
     42 H          -4.6063    3.4172   -1.8564 H       1  UNL1        0.0230
     43 H          -6.2862    2.8972   -0.0600 H       1  UNL1        0.0266
     44 H          -7.3231    2.1366   -1.2368 H       1  UNL1        0.0266
     45 H          -6.1551    0.4042    0.0101 H       1  UNL1        0.0329
     46 H          -5.6285    0.3646   -1.6470 H       1  UNL1        0.0329
     47 H          -2.8834    0.6774   -2.0985 H       1  UNL1        0.0656
     48 H          -0.0132    1.8307    0.4003 H       1  UNL1        0.0881
     49 H          -0.2200    1.5977   -1.3258 H       1  UNL1        0.0881
     50 H          -0.2071   -0.5533    0.6661 H       1  UNL1        0.2018
     51 H           1.8621    0.1675   -1.2949 H       1  UNL1        0.0840
     52 H           1.9393    0.4001    0.4372 H       1  UNL1        0.0840
     53 H           4.0997   -3.6744   -0.9610 H       1  UNL1        0.0286
     54 H           5.2501   -3.1319    0.1958 H       1  UNL1        0.0286
     55 H           4.4061   -3.1136    2.7236 H       1  UNL1        0.0268
     56 H           2.6678   -3.0660    2.5871 H       1  UNL1        0.0268
     57 H           2.6737   -5.5451    3.3659 H       1  UNL1        0.0265
     58 H           4.3957   -5.3793    3.5742 H       1  UNL1        0.0265
     59 H           3.6348   -4.9310    5.7299 H       1  UNL1        0.0265
     60 H           3.8200   -3.3244    5.0931 H       1  UNL1        0.0265
     61 H           1.2314   -3.5673    4.4458 H       1  UNL1        0.0266
     62 H           1.2745   -4.9405    5.5097 H       1  UNL1        0.0266
     63 H           0.7228   -3.4004    7.1153 H       1  UNL1        0.0287
     64 H           2.4374   -3.1280    7.1790 H       1  UNL1        0.0287
     65 H           0.3103   -1.4584    5.7571 H       1  UNL1        0.0560
     66 H           1.4024   -0.9724    7.0432 H       1  UNL1        0.0560
     67 H           1.3712    0.7133    5.1043 H       1  UNL1        0.0657
     68 H           2.9114    0.6373    5.9434 H       1  UNL1        0.0657
     69 H           3.8493   -1.3675    2.0364 H       1  UNL1        0.1491
     70 H           7.0643    1.4218    1.6324 H       1  UNL1        0.0252
     71 H           7.0364   -0.0754    2.5398 H       1  UNL1        0.0252
     72 H           6.9261    1.4818    3.3700 H       1  UNL1        0.0252
     73 H           5.9026    0.2367    5.0381 H       1  UNL1        0.0429
     74 H           5.7314   -1.1945    4.0129 H       1  UNL1        0.0429
     75 H           4.6224   -0.9098    5.3136 H       1  UNL1        0.0429
     76 H           1.4730   -4.3500    0.7008 H       1  UNL1        0.0232
     77 H           2.1746   -5.8836    1.1703 H       1  UNL1        0.0232
     78 H           2.4299   -5.2774   -0.4496 H       1  UNL1        0.0232
     79 H           2.1256   -2.0892   -2.0606 H       1  UNL1        0.2101
     80 H          -0.3395   -0.7520   -0.9567 H       1  UNL1        0.2018
@<TRIPOS>BOND
     1     1     2    1
     2     1    40    1
     3     1    41    1
     4     1    42    1
     5     2     3    1
     6     2    43    1
     7     2    44    1
     8     3    45    1
     9     3    46    1
    10     3     4    1
    11     4     8   ar
    12     4     5   ar
    13     5     6   ar
    14     5    47    1
    15     6     7   ar
    16     6     9    1
    17     7     8   ar
    18     7    35    1
    19     9    10    1
    20     9    48    1
    21     9    49    1
    22    10    11    1
    23    10    50    1
    24    10    80    1
    25    11    12    1
    26    11    51    1
    27    11    52    1
    28    12    36    1
    29    12    13    1
    30    12    34    1
    31    13    37    1
    32    13    30    1
    33    13    14    1
    34    14    15    1
    35    14    53    1
    36    14    54    1
    37    15    38    1
    38    15    16    1
    39    15    33    1
    40    16    17    1
    41    16    55    1
    42    16    56    1
    43    17    18    1
    44    17    57    1
    45    17    58    1
    46    18    19    1
    47    18    59    1
    48    18    60    1
    49    19    20    1
    50    19    61    1
    51    19    62    1
    52    20    21    1
    53    20    63    1
    54    20    64    1
    55    21    22    1
    56    21    65    1
    57    21    66    1
    58    22    23    1
    59    23    24    1
    60    23    67    1
    61    23    68    1
    62    24    25    2
    63    24    26   am
    64    26    27    1
    65    26    32    1
    66    27    39    1
    67    27    28    1
    68    27    31    1
    69    28    29    2
    70    28    30   am
    71    30    69    1
    72    31    70    1
    73    31    71    1
    74    31    72    1
    75    32    73    1
    76    32    74    1
    77    32    75    1
    78    33    76    1
    79    33    77    1
    80    33    78    1
    81    34    79    1
