@<TRIPOS>MOLECULE
BACE_14.smi:1
 86 90 0 0 0
SMALL
GASTEIGER
****
Structure written by MMmdl.
@<TRIPOS>ATOM
      1 C           3.7679    4.0786    1.1813 C.3     1  UNL1       -0.0586
      2 C           2.5105    4.9174    1.4584 C.3     1  UNL1       -0.0215
      3 C           2.2105    5.8866    0.3043 C.3     1  UNL1       -0.0586
      4 C           1.3126    4.0351    1.7825 C.ar    1  UNL1       -0.0443
      5 C           0.7119    4.0983    3.0574 C.ar    1  UNL1       -0.0583
      6 C          -0.3779    3.2639    3.3686 C.ar    1  UNL1       -0.0610
      7 C          -0.8672    2.3564    2.4104 C.ar    1  UNL1       -0.0529
      8 C          -0.2774    2.2817    1.1315 C.ar    1  UNL1        0.0034
      9 C           0.8036    3.1343    0.8223 C.ar    1  UNL1       -0.0495
     10 C          -0.7741    1.2873    0.1245 C.3     1  UNL1        0.0145
     11 C          -2.2271    1.2252   -0.2827 C.3     1  UNL1        0.0032
     12 C          -1.1766    1.6644   -1.2824 C.3     1  UNL1        0.0032
     13 N          -0.1524   -0.0502    0.2377 N.4     1  UNL1        0.2365
     14 C           1.2654   -0.1074   -0.1768 C.3     1  UNL1       -0.0044
     15 C           1.9009   -1.4718    0.1523 C.3     1  UNL1        0.1133
     16 C           3.4485   -1.5112    0.0233 C.3     1  UNL1        0.0583
     17 C           4.1257   -0.9926    1.3137 C.3     1  UNL1       -0.0065
     18 C           5.6315   -0.8102    1.1959 C.ar    1  UNL1       -0.0421
     19 C           6.4689   -1.9416    1.1329 C.ar    1  UNL1       -0.0583
     20 C           7.8616   -1.7808    1.0273 C.ar    1  UNL1       -0.0580
     21 C           8.4192   -0.4895    0.9896 C.ar    1  UNL1       -0.0199
     22 C           7.5991    0.6557    1.0506 C.ar    1  UNL1        0.1208
     23 C           6.1949    0.4846    1.1514 C.ar    1  UNL1       -0.0167
     24 O           8.2445    1.8745    1.0209 O.3     1  UNL1       -0.4920
     25 C           7.4914    3.0813    0.9432 C.3     1  UNL1        0.0896
     26 C           6.9822    3.3413   -0.4859 C.3     1  UNL1       -0.0172
     27 C           8.1145    3.4385   -1.5284 C.3     1  UNL1       -0.0344
     28 C           8.0200    2.3965   -2.6541 C.3     1  UNL1        0.0092
     29 N           6.9535    2.7061   -3.5991 N.pl3   1  UNL1       -0.3438
     30 C           5.9820    1.7473   -3.9210 C.ar    1  UNL1        0.0285
     31 C           5.5249    0.7798   -2.9992 C.ar    1  UNL1       -0.0287
     32 C           4.5231   -0.1456   -3.3668 C.ar    1  UNL1        0.0391
     33 C           4.0031   -0.1218   -4.6788 C.ar    1  UNL1       -0.0390
     34 C           4.4486    0.8405   -5.6147 C.ar    1  UNL1        0.0196
     35 C           5.4312    1.7752   -5.2178 C.ar    1  UNL1       -0.0303
     36 C           3.9041    0.8980   -7.0016 C.2     1  UNL1        0.1602
     37 O           4.2382    1.7469   -7.8276 O.2     1  UNL1       -0.2924
     38 C           2.8798   -0.1593   -7.4105 C.3     1  UNL1       -0.0014
     39 C           4.0278   -1.1649   -2.3838 C.2     1  UNL1        0.2445
     40 O           3.6911   -2.2907   -2.7494 O.2     1  UNL1       -0.2702
     41 N           3.9244   -0.7287   -1.1184 N.am    1  UNL1       -0.3055
     42 O           1.3294   -2.4729   -0.6662 O.3     1  UNL1       -0.3847
     43 H           1.6421   -1.7431    1.1768 H       1  UNL1        0.0666
     44 H           3.7746   -2.5458   -0.1026 H       1  UNL1        0.0529
     45 H           3.9944    3.4198    2.0203 H       1  UNL1        0.0235
     46 H           4.6334    4.7228    1.0287 H       1  UNL1        0.0235
     47 H           3.6555    3.4587    0.2912 H       1  UNL1        0.0235
     48 H           2.7202    5.5251    2.3400 H       1  UNL1        0.0343
     49 H           1.3514    6.5169    0.5361 H       1  UNL1        0.0235
     50 H           1.9946    5.3565   -0.6236 H       1  UNL1        0.0235
     51 H           3.0593    6.5450    0.1173 H       1  UNL1        0.0235
     52 H           1.0864    4.7826    3.8048 H       1  UNL1        0.0620
     53 H          -0.8335    3.3144    4.3467 H       1  UNL1        0.0618
     54 H          -1.6959    1.7113    2.6634 H       1  UNL1        0.0622
     55 H           1.2609    3.0775   -0.1549 H       1  UNL1        0.0625
     56 H          -2.6826    0.2503   -0.4471 H       1  UNL1        0.0329
     57 H          -2.8982    1.9951    0.0935 H       1  UNL1        0.0329
     58 H          -1.1585    2.7188   -1.5514 H       1  UNL1        0.0329
     59 H          -0.9523    0.9729   -2.0925 H       1  UNL1        0.0329
     60 H          -0.2175   -0.3461    1.2010 H       1  UNL1        0.2023
     61 H           1.3393    0.1160   -1.2421 H       1  UNL1        0.0840
     62 H           1.8193    0.6683    0.3490 H       1  UNL1        0.0840
     63 H           3.6856   -0.0389    1.6076 H       1  UNL1        0.0332
     64 H           3.9243   -1.6785    2.1375 H       1  UNL1        0.0332
     65 H           6.0456   -2.9349    1.1650 H       1  UNL1        0.0620
     66 H           8.5035   -2.6480    0.9790 H       1  UNL1        0.0619
     67 H           9.4908   -0.3761    0.9135 H       1  UNL1        0.0654
     68 H           5.5315    1.3339    1.1991 H       1  UNL1        0.0657
     69 H           6.6818    3.1014    1.6728 H       1  UNL1        0.0696
     70 H           8.1564    3.8950    1.2331 H       1  UNL1        0.0696
     71 H           6.2594    2.5781   -0.7662 H       1  UNL1        0.0298
     72 H           6.4247    4.2777   -0.4941 H       1  UNL1        0.0298
     73 H           8.1363    4.4417   -1.9564 H       1  UNL1        0.0281
     74 H           9.0796    3.3192   -1.0350 H       1  UNL1        0.0281
     75 H           8.9514    2.4116   -3.2203 H       1  UNL1        0.0461
     76 H           7.9468    1.3912   -2.2416 H       1  UNL1        0.0461
     77 H           7.1971    3.3561   -4.3331 H       1  UNL1        0.1461
     78 H           5.9294    0.7463   -1.9993 H       1  UNL1        0.0643
     79 H           3.2468   -0.8440   -4.9503 H       1  UNL1        0.0632
     80 H           5.7805    2.5224   -5.9166 H       1  UNL1        0.0643
     81 H           1.9836   -0.0806   -6.7948 H       1  UNL1        0.0309
     82 H           3.2977   -1.1600   -7.2982 H       1  UNL1        0.0309
     83 H           2.5898   -0.0274   -8.4532 H       1  UNL1        0.0309
     84 H           4.2184    0.2184   -0.9274 H       1  UNL1        0.1494
     85 H           1.7467   -3.2988   -0.4709 H       1  UNL1        0.2101
     86 H          -0.6725   -0.7009   -0.3338 H       1  UNL1        0.2023
@<TRIPOS>BOND
     1     1     2    1
     2     1    45    1
     3     1    46    1
     4     1    47    1
     5     2     3    1
     6     2     4    1
     7     2    48    1
     8     3    49    1
     9     3    50    1
    10     3    51    1
    11     4     9   ar
    12     4     5   ar
    13     5     6   ar
    14     5    52    1
    15     6     7   ar
    16     6    53    1
    17     7     8   ar
    18     7    54    1
    19     8     9   ar
    20     8    10    1
    21     9    55    1
    22    10    12    1
    23    10    11    1
    24    10    13    1
    25    11    12    1
    26    11    56    1
    27    11    57    1
    28    12    58    1
    29    12    59    1
    30    13    14    1
    31    13    60    1
    32    13    86    1
    33    14    15    1
    34    14    61    1
    35    14    62    1
    36    15    43    1
    37    15    16    1
    38    15    42    1
    39    16    44    1
    40    16    41    1
    41    16    17    1
    42    17    18    1
    43    17    63    1
    44    17    64    1
    45    18    23   ar
    46    18    19   ar
    47    19    20   ar
    48    19    65    1
    49    20    21   ar
    50    20    66    1
    51    21    22   ar
    52    21    67    1
    53    22    23   ar
    54    22    24    1
    55    23    68    1
    56    24    25    1
    57    25    26    1
    58    25    69    1
    59    25    70    1
    60    26    27    1
    61    26    71    1
    62    26    72    1
    63    27    28    1
    64    27    73    1
    65    27    74    1
    66    28    29    1
    67    28    75    1
    68    28    76    1
    69    29    30    1
    70    29    77    1
    71    30    35   ar
    72    30    31   ar
    73    31    32   ar
    74    31    78    1
    75    32    33   ar
    76    32    39    1
    77    33    34   ar
    78    33    79    1
    79    34    35   ar
    80    34    36    1
    81    35    80    1
    82    36    37    2
    83    36    38    1
    84    38    81    1
    85    38    82    1
    86    38    83    1
    87    39    40    2
    88    39    41   am
    89    41    84    1
    90    42    85    1
