@<TRIPOS>MOLECULE
BACE_5.smi:1
 80 81 0 0 0
SMALL
GASTEIGER
****
Structure written by MMmdl.
@<TRIPOS>ATOM
      1 C          -2.9824    2.1938   -6.0920 C.3     1  UNL1       -0.0649
      2 C          -2.2224    1.9789   -4.7784 C.3     1  UNL1       -0.0504
      3 C          -2.9927    2.5075   -3.5592 C.3     1  UNL1       -0.0089
      4 C          -2.2538    2.2604   -2.2736 C.ar    1  UNL1        0.0632
      5 C          -2.5058    1.2523   -1.2973 C.ar    1  UNL1       -0.0129
      6 C          -1.5526    1.4620   -0.3406 C.ar    1  UNL1        0.0806
      7 N          -0.8130    2.5423   -0.7654 N.ar    1  UNL1       -0.2762
      8 N          -1.2305    3.0361   -1.9452 N.ar    1  UNL1       -0.1785
      9 C          -1.2665    0.7442    0.9382 C.3     1  UNL1        0.0092
     10 N          -0.6641   -0.5856    0.7122 N.4     1  UNL1        0.2332
     11 C           0.6988   -0.5650    0.1391 C.3     1  UNL1       -0.0049
     12 C           1.2531   -1.9917   -0.0264 C.3     1  UNL1        0.1129
     13 C           2.7654   -2.0100   -0.3767 C.3     1  UNL1        0.0543
     14 C           3.0973   -1.5176   -1.8158 C.3     1  UNL1       -0.0293
     15 C           4.5933   -1.3980   -2.2163 C.3     1  UNL1       -0.0421
     16 C           5.3685   -0.3907   -1.3327 C.3     1  UNL1       -0.0504
     17 C           6.8648   -0.2396   -1.6768 C.3     1  UNL1       -0.0528
     18 C           7.7661   -0.9944   -0.6829 C.3     1  UNL1       -0.0530
     19 C           9.2097   -1.2141   -1.1657 C.3     1  UNL1       -0.0510
     20 C           9.3948   -2.3944   -2.1415 C.3     1  UNL1       -0.0294
     21 C           9.3757   -3.7870   -1.4813 C.3     1  UNL1        0.0483
     22 O           8.0550   -4.1538   -1.1172 O.3     1  UNL1       -0.3706
     23 C           7.9717   -5.4301   -0.5003 C.3     1  UNL1        0.1238
     24 C           6.4947   -5.7318   -0.2039 C.2     1  UNL1        0.2417
     25 O           5.9244   -6.5484   -0.9281 O.2     1  UNL1       -0.2731
     26 N           5.8608   -5.0674    0.7977 N.am    1  UNL1       -0.2914
     27 C           4.4018   -5.2048    1.0170 C.3     1  UNL1        0.0991
     28 C           3.6751   -3.8489    1.0597 C.2     1  UNL1        0.2336
     29 O           3.4535   -3.2817    2.1298 O.2     1  UNL1       -0.2738
     30 N           3.3268   -3.3362   -0.1314 N.am    1  UNL1       -0.3083
     31 C           4.1201   -6.1243    2.2196 C.3     1  UNL1       -0.0379
     32 C           6.6101   -4.2307    1.7471 C.3     1  UNL1        0.0040
     33 C           5.2911   -2.7640   -2.3721 C.3     1  UNL1       -0.0624
     34 O           0.5081   -2.6368   -1.0421 O.3     1  UNL1       -0.3847
     35 H          -0.0329    2.9498   -0.2691 H       1  UNL1        0.1887
     36 H           1.0900   -2.5298    0.9084 H       1  UNL1        0.0666
     37 H           3.2535   -1.3317    0.3234 H       1  UNL1        0.0526
     38 H           4.5860   -0.9714   -3.2206 H       1  UNL1        0.0299
     39 H           3.9466   -5.7160    0.1668 H       1  UNL1        0.0594
     40 H          -2.4068    1.8202   -6.9390 H       1  UNL1        0.0230
     41 H          -3.1789    3.2522   -6.2645 H       1  UNL1        0.0230
     42 H          -3.9393    1.6713   -6.0838 H       1  UNL1        0.0230
     43 H          -2.0215    0.9145   -4.6516 H       1  UNL1        0.0266
     44 H          -1.2513    2.4716   -4.8411 H       1  UNL1        0.0266
     45 H          -3.1826    3.5749   -3.6796 H       1  UNL1        0.0329
     46 H          -3.9725    2.0307   -3.5148 H       1  UNL1        0.0329
     47 H          -3.2697    0.4887   -1.3040 H       1  UNL1        0.0656
     48 H          -2.1967    0.6063    1.4898 H       1  UNL1        0.0881
     49 H          -0.6121    1.3385    1.5773 H       1  UNL1        0.0881
     50 H           0.6934   -0.0425   -0.8179 H       1  UNL1        0.0840
     51 H           1.3413    0.0053    0.8111 H       1  UNL1        0.0840
     52 H           2.6054   -2.1657   -2.5420 H       1  UNL1        0.0286
     53 H           2.6445   -0.5365   -1.9587 H       1  UNL1        0.0286
     54 H           4.8902    0.5843   -1.4357 H       1  UNL1        0.0268
     55 H           5.2721   -0.6487   -0.2784 H       1  UNL1        0.0268
     56 H           7.0533   -0.5572   -2.7021 H       1  UNL1        0.0265
     57 H           7.1366    0.8163   -1.6492 H       1  UNL1        0.0265
     58 H           7.7889   -0.4299    0.2499 H       1  UNL1        0.0265
     59 H           7.3153   -1.9478   -0.4280 H       1  UNL1        0.0265
     60 H           9.5669   -0.2966   -1.6342 H       1  UNL1        0.0266
     61 H           9.8559   -1.3717   -0.3016 H       1  UNL1        0.0266
     62 H           8.6647   -2.3479   -2.9494 H       1  UNL1        0.0287
     63 H          10.3678   -2.2735   -2.6186 H       1  UNL1        0.0287
     64 H           9.7634   -4.5230   -2.1869 H       1  UNL1        0.0560
     65 H          10.0303   -3.8029   -0.6086 H       1  UNL1        0.0560
     66 H           8.3627   -6.1908   -1.1782 H       1  UNL1        0.0657
     67 H           8.5777   -5.4740    0.4048 H       1  UNL1        0.0657
     68 H           3.5467   -3.8846   -0.9507 H       1  UNL1        0.1491
     69 H           3.0482   -6.2626    2.3660 H       1  UNL1        0.0252
     70 H           4.5297   -5.7199    3.1455 H       1  UNL1        0.0252
     71 H           4.5585   -7.1111    2.0671 H       1  UNL1        0.0252
     72 H           7.0474   -3.3653    1.2543 H       1  UNL1        0.0429
     73 H           7.4116   -4.8009    2.2174 H       1  UNL1        0.0429
     74 H           5.9912   -3.8596    2.5630 H       1  UNL1        0.0429
     75 H           5.5656   -3.1891   -1.4100 H       1  UNL1        0.0232
     76 H           6.2071   -2.6828   -2.9560 H       1  UNL1        0.0232
     77 H           4.6518   -3.4810   -2.8874 H       1  UNL1        0.0232
     78 H           0.8340   -3.5193   -1.1385 H       1  UNL1        0.2101
     79 H          -0.6230   -1.0688    1.5981 H       1  UNL1        0.2018
     80 H          -1.2633   -1.1085    0.0889 H       1  UNL1        0.2018
@<TRIPOS>BOND
     1     1     2    1
     2     1    40    1
     3     1    41    1
     4     1    42    1
     5     2     3    1
     6     2    43    1
     7     2    44    1
     8     3    45    1
     9     3    46    1
    10     3     4    1
    11     4     8   ar
    12     4     5   ar
    13     5     6   ar
    14     5    47    1
    15     6     7   ar
    16     6     9    1
    17     7     8   ar
    18     7    35    1
    19     9    10    1
    20     9    48    1
    21     9    49    1
    22    10    11    1
    23    10    79    1
    24    10    80    1
    25    11    12    1
    26    11    50    1
    27    11    51    1
    28    12    36    1
    29    12    13    1
    30    12    34    1
    31    13    37    1
    32    13    30    1
    33    13    14    1
    34    14    15    1
    35    14    52    1
    36    14    53    1
    37    15    38    1
    38    15    16    1
    39    15    33    1
    40    16    17    1
    41    16    54    1
    42    16    55    1
    43    17    18    1
    44    17    56    1
    45    17    57    1
    46    18    19    1
    47    18    58    1
    48    18    59    1
    49    19    20    1
    50    19    60    1
    51    19    61    1
    52    20    21    1
    53    20    62    1
    54    20    63    1
    55    21    22    1
    56    21    64    1
    57    21    65    1
    58    22    23    1
    59    23    24    1
    60    23    66    1
    61    23    67    1
    62    24    25    2
    63    24    26   am
    64    26    27    1
    65    26    32    1
    66    27    39    1
    67    27    28    1
    68    27    31    1
    69    28    29    2
    70    28    30   am
    71    30    68    1
    72    31    69    1
    73    31    70    1
    74    31    71    1
    75    32    72    1
    76    32    73    1
    77    32    74    1
    78    33    75    1
    79    33    76    1
    80    33    77    1
    81    34    78    1
