@<TRIPOS>MOLECULE
BACE_14.smi:1
 85 89 0 0 0
SMALL
GASTEIGER
****
Structure written by MMmdl.
@<TRIPOS>ATOM
      1 C          -2.5386    2.7616    4.9851 C.3     1  UNL1       -0.0586
      2 C          -1.0249    2.4957    5.0069 C.3     1  UNL1       -0.0215
      3 C          -0.7068    1.0728    5.4927 C.3     1  UNL1       -0.0586
      4 C          -0.3829    2.7830    3.6555 C.ar    1  UNL1       -0.0445
      5 C           0.5994    3.7890    3.5382 C.ar    1  UNL1       -0.0583
      6 C           1.1976    4.0522    2.2915 C.ar    1  UNL1       -0.0612
      7 C           0.8158    3.3136    1.1559 C.ar    1  UNL1       -0.0568
      8 C          -0.1688    2.3078    1.2552 C.ar    1  UNL1       -0.0271
      9 C          -0.7591    2.0475    2.5101 C.ar    1  UNL1       -0.0534
     10 C          -0.5779    1.5113    0.0507 C.3     1  UNL1        0.0447
     11 C          -2.0061    1.6086   -0.4343 C.3     1  UNL1       -0.0285
     12 C          -0.8863    2.1883   -1.2678 C.3     1  UNL1       -0.0285
     13 N           0.0356    0.1848    0.0312 N.3     1  UNL1       -0.3042
     14 C           1.4225    0.1628   -0.4283 C.3     1  UNL1        0.0245
     15 C           1.9734   -1.2741   -0.4704 C.3     1  UNL1        0.0862
     16 C           3.5258   -1.3113   -0.4652 C.3     1  UNL1        0.0545
     17 C           4.1685   -0.6656   -1.7181 C.3     1  UNL1       -0.0066
     18 C           5.6874   -0.7325   -1.7481 C.ar    1  UNL1       -0.0421
     19 C           6.4423    0.1099   -0.9080 C.ar    1  UNL1       -0.0583
     20 C           7.8475    0.0724   -0.9533 C.ar    1  UNL1       -0.0580
     21 C           8.5006   -0.8075   -1.8368 C.ar    1  UNL1       -0.0199
     22 C           7.7638   -1.6666   -2.6775 C.ar    1  UNL1        0.1208
     23 C           6.3472   -1.6166   -2.6297 C.ar    1  UNL1       -0.0167
     24 O           8.4912   -2.4994   -3.5045 O.3     1  UNL1       -0.4920
     25 C           7.8471   -3.5998   -4.1441 C.3     1  UNL1        0.0896
     26 C           7.4629   -4.6922   -3.1299 C.3     1  UNL1       -0.0172
     27 C           8.6744   -5.3162   -2.4088 C.3     1  UNL1       -0.0344
     28 C           8.4243   -5.6814   -0.9346 C.3     1  UNL1        0.0092
     29 N           7.3654   -6.6688   -0.7595 N.pl3   1  UNL1       -0.3438
     30 C           6.1956   -6.3540   -0.0484 C.ar    1  UNL1        0.0285
     31 C           5.7011   -5.0358    0.0783 C.ar    1  UNL1       -0.0287
     32 C           4.5029   -4.7781    0.7763 C.ar    1  UNL1        0.0391
     33 C           3.8166   -5.8437    1.3956 C.ar    1  UNL1       -0.0390
     34 C           4.2963   -7.1700    1.2847 C.ar    1  UNL1        0.0196
     35 C           5.4815   -7.4106    0.5521 C.ar    1  UNL1       -0.0303
     36 C           3.5825   -8.3165    1.9165 C.2     1  UNL1        0.1602
     37 O           3.9780   -9.4802    1.8546 O.2     1  UNL1       -0.2924
     38 C           2.2911   -8.0214    2.6777 C.3     1  UNL1       -0.0014
     39 C           3.9704   -3.3797    0.8757 C.2     1  UNL1        0.2445
     40 O           3.4764   -2.9614    1.9227 O.2     1  UNL1       -0.2702
     41 N           4.0231   -2.6733   -0.2665 N.am    1  UNL1       -0.3057
     42 O           1.4852   -1.8939   -1.6460 O.3     1  UNL1       -0.3887
     43 H           1.5934   -1.8221    0.3927 H       1  UNL1        0.0624
     44 H           3.8650   -0.7359    0.3985 H       1  UNL1        0.0527
     45 H          -2.7514    3.7889    4.6884 H       1  UNL1        0.0235
     46 H          -2.9769    2.6070    5.9716 H       1  UNL1        0.0235
     47 H          -3.0547    2.1000    4.2888 H       1  UNL1        0.0235
     48 H          -0.5908    3.1853    5.7322 H       1  UNL1        0.0343
     49 H           0.3699    0.9124    5.5564 H       1  UNL1        0.0235
     50 H          -1.1167    0.3170    4.8224 H       1  UNL1        0.0235
     51 H          -1.1247    0.8953    6.4841 H       1  UNL1        0.0235
     52 H           0.9007    4.3618    4.4028 H       1  UNL1        0.0620
     53 H           1.9512    4.8211    2.2065 H       1  UNL1        0.0618
     54 H           1.2832    3.5204    0.2043 H       1  UNL1        0.0621
     55 H          -1.5084    1.2737    2.5903 H       1  UNL1        0.0624
     56 H          -2.4845    0.7089   -0.8165 H       1  UNL1        0.0287
     57 H          -2.6689    2.3133    0.0645 H       1  UNL1        0.0287
     58 H          -0.8124    3.2729   -1.3174 H       1  UNL1        0.0287
     59 H          -0.6452    1.6625   -2.1896 H       1  UNL1        0.0287
     60 H          -0.5325   -0.4603   -0.5086 H       1  UNL1        0.1229
     61 H           1.5117    0.6312   -1.4092 H       1  UNL1        0.0450
     62 H           2.0288    0.7597    0.2537 H       1  UNL1        0.0450
     63 H           3.7876   -1.1382   -2.6239 H       1  UNL1        0.0332
     64 H           3.8791    0.3834   -1.7859 H       1  UNL1        0.0332
     65 H           5.9455    0.7910   -0.2326 H       1  UNL1        0.0620
     66 H           8.4257    0.7210   -0.3119 H       1  UNL1        0.0619
     67 H           9.5802   -0.8289   -1.8646 H       1  UNL1        0.0654
     68 H           5.7464   -2.2486   -3.2649 H       1  UNL1        0.0657
     69 H           6.9857   -3.2702   -4.7250 H       1  UNL1        0.0696
     70 H           8.5463   -4.0158   -4.8698 H       1  UNL1        0.0696
     71 H           6.7689   -4.2710   -2.4110 H       1  UNL1        0.0298
     72 H           6.9061   -5.4817   -3.6353 H       1  UNL1        0.0298
     73 H           9.0131   -6.1929   -2.9621 H       1  UNL1        0.0281
     74 H           9.5113   -4.6177   -2.4289 H       1  UNL1        0.0281
     75 H           9.3364   -6.1178   -0.5272 H       1  UNL1        0.0461
     76 H           8.2525   -4.7825   -0.3443 H       1  UNL1        0.0461
     77 H           7.6490   -7.6383   -0.7693 H       1  UNL1        0.1461
     78 H           6.2259   -4.2023   -0.3598 H       1  UNL1        0.0643
     79 H           2.9093   -5.6273    1.9405 H       1  UNL1        0.0632
     80 H           5.8597   -8.4184    0.4523 H       1  UNL1        0.0643
     81 H           1.5538   -7.5655    2.0169 H       1  UNL1        0.0309
     82 H           2.4840   -7.3442    3.5097 H       1  UNL1        0.0309
     83 H           1.8656   -8.9416    3.0788 H       1  UNL1        0.0309
     84 H           4.4298   -3.1244   -1.0731 H       1  UNL1        0.1494
     85 H           1.7954   -1.4065   -2.3937 H       1  UNL1        0.2099
@<TRIPOS>BOND
     1     1     2    1
     2     1    45    1
     3     1    46    1
     4     1    47    1
     5     2     3    1
     6     2     4    1
     7     2    48    1
     8     3    49    1
     9     3    50    1
    10     3    51    1
    11     4     9   ar
    12     4     5   ar
    13     5     6   ar
    14     5    52    1
    15     6     7   ar
    16     6    53    1
    17     7     8   ar
    18     7    54    1
    19     8     9   ar
    20     8    10    1
    21     9    55    1
    22    10    12    1
    23    10    11    1
    24    10    13    1
    25    11    12    1
    26    11    56    1
    27    11    57    1
    28    12    58    1
    29    12    59    1
    30    13    14    1
    31    13    60    1
    32    14    15    1
    33    14    61    1
    34    14    62    1
    35    15    43    1
    36    15    16    1
    37    15    42    1
    38    16    44    1
    39    16    41    1
    40    16    17    1
    41    17    18    1
    42    17    63    1
    43    17    64    1
    44    18    23   ar
    45    18    19   ar
    46    19    20   ar
    47    19    65    1
    48    20    21   ar
    49    20    66    1
    50    21    22   ar
    51    21    67    1
    52    22    23   ar
    53    22    24    1
    54    23    68    1
    55    24    25    1
    56    25    26    1
    57    25    69    1
    58    25    70    1
    59    26    27    1
    60    26    71    1
    61    26    72    1
    62    27    28    1
    63    27    73    1
    64    27    74    1
    65    28    29    1
    66    28    75    1
    67    28    76    1
    68    29    30    1
    69    29    77    1
    70    30    35   ar
    71    30    31   ar
    72    31    32   ar
    73    31    78    1
    74    32    33   ar
    75    32    39    1
    76    33    34   ar
    77    33    79    1
    78    34    35   ar
    79    34    36    1
    80    35    80    1
    81    36    37    2
    82    36    38    1
    83    38    81    1
    84    38    82    1
    85    38    83    1
    86    39    40    2
    87    39    41   am
    88    41    84    1
    89    42    85    1
