@<TRIPOS>MOLECULE
BACE_5.smi:1
 80 81 0 0 0
SMALL
GASTEIGER
****
Structure written by MMmdl.
@<TRIPOS>ATOM
      1 C           0.3865    2.9027   -6.3282 C.3     1  UNL1       -0.0649
      2 C          -0.0700    2.0741   -5.1224 C.3     1  UNL1       -0.0505
      3 C          -0.9115    2.8891   -4.1295 C.3     1  UNL1       -0.0112
      4 C          -1.3639    2.0882   -2.9537 C.ar    1  UNL1        0.0365
      5 C          -0.8952    2.0236   -1.6720 C.ar    1  UNL1       -0.0128
      6 C          -1.7344    1.0605   -1.0384 C.ar    1  UNL1        0.1072
      7 N          -2.6523    0.5702   -1.8589 N.ar    1  UNL1       -0.1733
      8 N          -2.4170    1.2049   -3.0224 N.ar    1  UNL1       -0.2812
      9 C          -1.6586    0.5556    0.3758 C.3     1  UNL1        0.0115
     10 N          -1.0509   -0.7900    0.4405 N.4     1  UNL1        0.2333
     11 C           0.3635   -0.8534    0.0136 C.3     1  UNL1       -0.0049
     12 C           0.9546   -2.2625    0.2195 C.3     1  UNL1        0.1129
     13 C           2.4712   -2.3522   -0.0910 C.3     1  UNL1        0.0543
     14 C           3.1115   -3.7635    0.0238 C.3     1  UNL1       -0.0293
     15 C           2.9512   -4.5964    1.3259 C.3     1  UNL1       -0.0421
     16 C           3.2299   -3.8081    2.6220 C.3     1  UNL1       -0.0504
     17 C           3.5138   -4.6916    3.8494 C.3     1  UNL1       -0.0528
     18 C           3.6931   -3.8648    5.1296 C.3     1  UNL1       -0.0530
     19 C           2.3616   -3.5043    5.8141 C.3     1  UNL1       -0.0510
     20 C           2.5275   -2.3919    6.8629 C.3     1  UNL1       -0.0294
     21 C           2.1744   -0.9908    6.3401 C.3     1  UNL1        0.0483
     22 O           2.7513   -0.7677    5.0622 O.3     1  UNL1       -0.3706
     23 C           2.8310    0.6078    4.7254 C.3     1  UNL1        0.1238
     24 C           3.0726    0.7622    3.2176 C.2     1  UNL1        0.2417
     25 O           2.1585    1.2566    2.5550 O.2     1  UNL1       -0.2731
     26 N           4.2576    0.3931    2.6557 N.am    1  UNL1       -0.2914
     27 C           4.5086    0.6988    1.2165 C.3     1  UNL1        0.0991
     28 C           3.7711   -0.2337    0.2293 C.2     1  UNL1        0.2336
     29 O           3.6643    0.1168   -0.9460 O.2     1  UNL1       -0.2738
     30 N           3.2353   -1.3776    0.6942 N.am    1  UNL1       -0.3083
     31 C           6.0102    0.6682    0.8413 C.3     1  UNL1       -0.0379
     32 C           5.3347   -0.2564    3.4229 C.3     1  UNL1        0.0040
     33 C           1.6240   -5.3792    1.3779 C.3     1  UNL1       -0.0624
     34 O           0.2664   -3.1380   -0.6539 O.3     1  UNL1       -0.3847
     35 H          -2.9726    1.0256   -3.8470 H       1  UNL1        0.1885
     36 H           0.7685   -2.5622    1.2494 H       1  UNL1        0.0666
     37 H           2.5791   -2.0881   -1.1446 H       1  UNL1        0.0526
     38 H           3.7282   -5.3593    1.2574 H       1  UNL1        0.0299
     39 H           4.1634    1.7159    1.0199 H       1  UNL1        0.0594
     40 H           0.9785    2.2959   -7.0139 H       1  UNL1        0.0230
     41 H           1.0012    3.7479   -6.0169 H       1  UNL1        0.0230
     42 H          -0.4670    3.2940   -6.8828 H       1  UNL1        0.0230
     43 H          -0.6456    1.2173   -5.4747 H       1  UNL1        0.0266
     44 H           0.8053    1.6693   -4.6128 H       1  UNL1        0.0266
     45 H          -0.3338    3.7454   -3.7795 H       1  UNL1        0.0328
     46 H          -1.7821    3.3015   -4.6408 H       1  UNL1        0.0328
     47 H          -0.0655    2.5735   -1.2521 H       1  UNL1        0.0656
     48 H          -1.0847    1.2421    0.9997 H       1  UNL1        0.0882
     49 H          -2.6570    0.5027    0.8111 H       1  UNL1        0.0882
     50 H          -1.1055   -1.1137    1.3955 H       1  UNL1        0.2018
     51 H           0.4618   -0.5543   -1.0308 H       1  UNL1        0.0840
     52 H           0.9102   -0.1213    0.6058 H       1  UNL1        0.0840
     53 H           2.7624   -4.3696   -0.8131 H       1  UNL1        0.0286
     54 H           4.1804   -3.6469   -0.1624 H       1  UNL1        0.0286
     55 H           4.1033   -3.1733    2.4704 H       1  UNL1        0.0268
     56 H           2.3977   -3.1370    2.8324 H       1  UNL1        0.0268
     57 H           2.7245   -5.4271    4.0027 H       1  UNL1        0.0265
     58 H           4.4259   -5.2598    3.6629 H       1  UNL1        0.0265
     59 H           4.3016   -4.4281    5.8381 H       1  UNL1        0.0265
     60 H           4.2648   -2.9650    4.9003 H       1  UNL1        0.0265
     61 H           1.6102   -3.2105    5.0803 H       1  UNL1        0.0266
     62 H           1.9689   -4.4010    6.2952 H       1  UNL1        0.0266
     63 H           1.8886   -2.6056    7.7205 H       1  UNL1        0.0287
     64 H           3.5476   -2.3972    7.2493 H       1  UNL1        0.0287
     65 H           1.0925   -0.8785    6.2581 H       1  UNL1        0.0560
     66 H           2.5213   -0.2475    7.0604 H       1  UNL1        0.0560
     67 H           1.8971    1.1118    4.9826 H       1  UNL1        0.0657
     68 H           3.6251    1.0967    5.2914 H       1  UNL1        0.0657
     69 H           3.3648   -1.5895    1.6733 H       1  UNL1        0.1491
     70 H           6.1618    1.0003   -0.1867 H       1  UNL1        0.0252
     71 H           6.4446   -0.3291    0.9171 H       1  UNL1        0.0252
     72 H           6.5913    1.3442    1.4690 H       1  UNL1        0.0252
     73 H           6.1694    0.4302    3.5648 H       1  UNL1        0.0429
     74 H           5.6987   -1.1375    2.8944 H       1  UNL1        0.0429
     75 H           5.0567   -0.6062    4.4134 H       1  UNL1        0.0429
     76 H           0.7736   -4.7444    1.6172 H       1  UNL1        0.0232
     77 H           1.6576   -6.1642    2.1326 H       1  UNL1        0.0232
     78 H           1.4163   -5.8693    0.4265 H       1  UNL1        0.0232
     79 H           0.4785   -2.9043   -1.5452 H       1  UNL1        0.2101
     80 H          -1.5900   -1.4147   -0.1424 H       1  UNL1        0.2018
@<TRIPOS>BOND
     1     1     2    1
     2     1    40    1
     3     1    41    1
     4     1    42    1
     5     2     3    1
     6     2    43    1
     7     2    44    1
     8     3     4    1
     9     3    45    1
    10     3    46    1
    11     4     8   ar
    12     4     5   ar
    13     5     6   ar
    14     5    47    1
    15     6     7   ar
    16     6     9    1
    17     7     8   ar
    18     8    35    1
    19     9    10    1
    20     9    48    1
    21     9    49    1
    22    10    11    1
    23    10    50    1
    24    10    80    1
    25    11    12    1
    26    11    51    1
    27    11    52    1
    28    12    36    1
    29    12    13    1
    30    12    34    1
    31    13    37    1
    32    13    30    1
    33    13    14    1
    34    14    15    1
    35    14    53    1
    36    14    54    1
    37    15    38    1
    38    15    16    1
    39    15    33    1
    40    16    17    1
    41    16    55    1
    42    16    56    1
    43    17    18    1
    44    17    57    1
    45    17    58    1
    46    18    19    1
    47    18    59    1
    48    18    60    1
    49    19    20    1
    50    19    61    1
    51    19    62    1
    52    20    21    1
    53    20    63    1
    54    20    64    1
    55    21    22    1
    56    21    65    1
    57    21    66    1
    58    22    23    1
    59    23    24    1
    60    23    67    1
    61    23    68    1
    62    24    25    2
    63    24    26   am
    64    26    27    1
    65    26    32    1
    66    27    39    1
    67    27    28    1
    68    27    31    1
    69    28    29    2
    70    28    30   am
    71    30    69    1
    72    31    70    1
    73    31    71    1
    74    31    72    1
    75    32    73    1
    76    32    74    1
    77    32    75    1
    78    33    76    1
    79    33    77    1
    80    33    78    1
    81    34    79    1
