@<TRIPOS>MOLECULE
BACE_5.smi:1
 79 80 0 0 0
SMALL
GASTEIGER
****
Structure written by MMmdl.
@<TRIPOS>ATOM
      1 C          -4.9193    0.4145   -3.8418 C.3     1  UNL1       -0.0649
      2 C          -3.4504    0.6497   -3.4726 C.3     1  UNL1       -0.0504
      3 C          -3.2762    1.7458   -2.4107 C.3     1  UNL1       -0.0089
      4 C          -1.8323    1.9554   -2.0493 C.ar    1  UNL1        0.0631
      5 C          -1.1313    1.4542   -0.9133 C.ar    1  UNL1       -0.0168
      6 C           0.1435    1.9221   -1.0692 C.ar    1  UNL1        0.0501
      7 N           0.1446    2.6508   -2.2362 N.ar    1  UNL1       -0.2801
      8 N          -1.0556    2.6780   -2.8444 N.ar    1  UNL1       -0.1786
      9 C           1.3699    1.7492   -0.2342 C.3     1  UNL1        0.0380
     10 N           1.7307    0.3478   -0.0414 N.3     1  UNL1       -0.3081
     11 C           2.2987   -0.2989   -1.2262 C.3     1  UNL1        0.0240
     12 C           2.7451   -1.7511   -0.9399 C.3     1  UNL1        0.0859
     13 C           4.1303   -1.8766   -0.2478 C.3     1  UNL1        0.0505
     14 C           4.6437   -3.3252    0.0108 C.3     1  UNL1       -0.0295
     15 C           3.7513   -4.3565    0.7591 C.3     1  UNL1       -0.0421
     16 C           3.1461   -3.8017    2.0603 C.3     1  UNL1       -0.0504
     17 C           2.3802   -4.8209    2.9279 C.3     1  UNL1       -0.0528
     18 C           1.9931   -4.2628    4.3107 C.3     1  UNL1       -0.0530
     19 C           0.9814   -3.1033    4.2510 C.3     1  UNL1       -0.0510
     20 C           0.8566   -2.3324    5.5759 C.3     1  UNL1       -0.0294
     21 C           0.1929   -0.9565    5.3845 C.3     1  UNL1        0.0483
     22 O           0.9570   -0.1579    4.4886 O.3     1  UNL1       -0.3706
     23 C           2.0170    0.5643    5.0975 C.3     1  UNL1        0.1238
     24 C           2.9366    1.0989    3.9880 C.2     1  UNL1        0.2417
     25 O           2.6974    2.2239    3.5479 O.2     1  UNL1       -0.2731
     26 N           3.9501    0.3241    3.5147 N.am    1  UNL1       -0.2914
     27 C           4.8624    0.8029    2.4498 C.3     1  UNL1        0.0991
     28 C           5.1392   -0.1636    1.2774 C.2     1  UNL1        0.2336
     29 O           6.1899   -0.0695    0.6428 O.2     1  UNL1       -0.2738
     30 N           4.1804   -1.0542    0.9658 N.am    1  UNL1       -0.3084
     31 C           6.1024    1.4810    3.0633 C.3     1  UNL1       -0.0379
     32 C           4.3016   -0.9472    4.1584 C.3     1  UNL1        0.0040
     33 C           2.7133   -5.0407   -0.1520 C.3     1  UNL1       -0.0624
     34 O           2.8308   -2.3961   -2.1948 O.3     1  UNL1       -0.3887
     35 H           0.9474    3.1237   -2.6263 H       1  UNL1        0.1886
     36 H           1.9690   -2.2385   -0.3531 H       1  UNL1        0.0624
     37 H           4.8422   -1.4430   -0.9531 H       1  UNL1        0.0524
     38 H           4.4332   -5.1551    1.0550 H       1  UNL1        0.0299
     39 H           4.3564    1.6055    1.9114 H       1  UNL1        0.0594
     40 H          -5.0094   -0.3673   -4.5963 H       1  UNL1        0.0230
     41 H          -5.3735    1.3201   -4.2449 H       1  UNL1        0.0230
     42 H          -5.4997    0.1055   -2.9720 H       1  UNL1        0.0230
     43 H          -3.0190   -0.2832   -3.1076 H       1  UNL1        0.0266
     44 H          -2.8937    0.9165   -4.3719 H       1  UNL1        0.0266
     45 H          -3.7076    2.6796   -2.7736 H       1  UNL1        0.0329
     46 H          -3.8425    1.4799   -1.5173 H       1  UNL1        0.0329
     47 H          -1.5062    0.8388   -0.1088 H       1  UNL1        0.0654
     48 H           2.2075    2.2989   -0.6656 H       1  UNL1        0.0489
     49 H           1.1868    2.2027    0.7401 H       1  UNL1        0.0489
     50 H           2.3727    0.2665    0.7399 H       1  UNL1        0.1224
     51 H           1.5472   -0.3018   -2.0171 H       1  UNL1        0.0450
     52 H           3.1427    0.2769   -1.6082 H       1  UNL1        0.0450
     53 H           4.9333   -3.7613   -0.9461 H       1  UNL1        0.0286
     54 H           5.5829   -3.2416    0.5596 H       1  UNL1        0.0286
     55 H           3.9573   -3.3826    2.6543 H       1  UNL1        0.0268
     56 H           2.4832   -2.9775    1.8080 H       1  UNL1        0.0268
     57 H           1.4826   -5.1594    2.4096 H       1  UNL1        0.0265
     58 H           3.0035   -5.7040    3.0722 H       1  UNL1        0.0265
     59 H           1.5784   -5.0642    4.9229 H       1  UNL1        0.0265
     60 H           2.9011   -3.9378    4.8197 H       1  UNL1        0.0265
     61 H           1.2848   -2.3985    3.4812 H       1  UNL1        0.0266
     62 H           0.0042   -3.4736    3.9398 H       1  UNL1        0.0266
     63 H           0.2834   -2.9257    6.2889 H       1  UNL1        0.0287
     64 H           1.8415   -2.1974    6.0223 H       1  UNL1        0.0287
     65 H          -0.7991   -1.0935    4.9534 H       1  UNL1        0.0560
     66 H           0.0506   -0.4478    6.3392 H       1  UNL1        0.0560
     67 H           1.5966    1.4035    5.6535 H       1  UNL1        0.0657
     68 H           2.5635   -0.0338    5.8250 H       1  UNL1        0.0657
     69 H           3.3640   -1.0861    1.5594 H       1  UNL1        0.1491
     70 H           6.7408    1.9244    2.2985 H       1  UNL1        0.0252
     71 H           6.7048    0.7678    3.6267 H       1  UNL1        0.0252
     72 H           5.8141    2.2825    3.7442 H       1  UNL1        0.0252
     73 H           4.6054   -0.7831    5.1928 H       1  UNL1        0.0429
     74 H           5.1363   -1.4510    3.6717 H       1  UNL1        0.0429
     75 H           3.4565   -1.6317    4.1506 H       1  UNL1        0.0429
     76 H           1.8558   -4.4066   -0.3654 H       1  UNL1        0.0232
     77 H           2.3280   -5.9489    0.3114 H       1  UNL1        0.0232
     78 H           3.1557   -5.3364   -1.1034 H       1  UNL1        0.0232
     79 H           3.4868   -1.9568   -2.7141 H       1  UNL1        0.2099
@<TRIPOS>BOND
     1     1     2    1
     2     1    40    1
     3     1    41    1
     4     1    42    1
     5     2     3    1
     6     2    43    1
     7     2    44    1
     8     3    45    1
     9     3    46    1
    10     3     4    1
    11     4     8   ar
    12     4     5   ar
    13     5     6   ar
    14     5    47    1
    15     6     7   ar
    16     6     9    1
    17     7     8   ar
    18     7    35    1
    19     9    10    1
    20     9    48    1
    21     9    49    1
    22    10    11    1
    23    10    50    1
    24    11    12    1
    25    11    51    1
    26    11    52    1
    27    12    36    1
    28    12    13    1
    29    12    34    1
    30    13    37    1
    31    13    30    1
    32    13    14    1
    33    14    15    1
    34    14    53    1
    35    14    54    1
    36    15    38    1
    37    15    16    1
    38    15    33    1
    39    16    17    1
    40    16    55    1
    41    16    56    1
    42    17    18    1
    43    17    57    1
    44    17    58    1
    45    18    19    1
    46    18    59    1
    47    18    60    1
    48    19    20    1
    49    19    61    1
    50    19    62    1
    51    20    21    1
    52    20    63    1
    53    20    64    1
    54    21    22    1
    55    21    65    1
    56    21    66    1
    57    22    23    1
    58    23    24    1
    59    23    67    1
    60    23    68    1
    61    24    25    2
    62    24    26   am
    63    26    27    1
    64    26    32    1
    65    27    39    1
    66    27    28    1
    67    27    31    1
    68    28    29    2
    69    28    30   am
    70    30    69    1
    71    31    70    1
    72    31    71    1
    73    31    72    1
    74    32    73    1
    75    32    74    1
    76    32    75    1
    77    33    76    1
    78    33    77    1
    79    33    78    1
    80    34    79    1
