@<TRIPOS>MOLECULE
BACE_6.smi:1
 82 84 0 0 0
SMALL
GASTEIGER
****
Structure written by MMmdl.
@<TRIPOS>ATOM
      1 C          -0.7171    7.6294   -6.3301 C.3     1  UNL1       -0.0493
      2 C           0.1316    7.4849   -5.0588 C.3     1  UNL1        0.0121
      3 N           0.0379    6.1236   -4.5020 N.am    1  UNL1       -0.2978
      4 C          -0.9967    5.9794   -3.4521 C.3     1  UNL1        0.0150
      5 C          -2.0916    4.9278   -3.7498 C.3     1  UNL1       -0.0371
      6 C          -3.3114    5.0332   -2.8123 C.3     1  UNL1       -0.0516
      7 C          -3.0405    4.7718   -1.3156 C.3     1  UNL1       -0.0528
      8 C          -2.8838    3.2837   -0.9387 C.3     1  UNL1       -0.0504
      9 C          -2.5404    3.0358    0.5563 C.3     1  UNL1       -0.0421
     10 C          -2.2531    1.5403    0.8718 C.3     1  UNL1       -0.0295
     11 C          -0.7644    1.1100    0.8011 C.3     1  UNL1        0.0508
     12 N          -0.2917    1.3031   -0.5649 N.am    1  UNL1       -0.3060
     13 C           0.7202    2.0884   -0.9644 C.2     1  UNL1        0.2444
     14 O           1.4737    2.7002   -0.2080 O.2     1  UNL1       -0.2702
     15 C           0.7846    2.2679   -2.4476 C.ar    1  UNL1        0.0374
     16 C           0.6434    1.1641   -3.3175 C.ar    1  UNL1       -0.0496
     17 C           0.6213    1.3624   -4.7098 C.ar    1  UNL1       -0.0603
     18 C           0.7027    2.6651   -5.2355 C.ar    1  UNL1       -0.0496
     19 C           0.8310    3.7772   -4.3744 C.ar    1  UNL1        0.0376
     20 C           0.9398    3.5620   -2.9831 C.ar    1  UNL1       -0.0375
     21 C           0.8854    5.1588   -4.9615 C.2     1  UNL1        0.2466
     22 O           1.6784    5.3564   -5.8839 O.2     1  UNL1       -0.2700
     23 C          -0.5428   -0.3627    1.2552 C.3     1  UNL1        0.0859
     24 C           0.9199   -0.8572    1.1800 C.3     1  UNL1        0.0240
     25 N           1.3223   -1.1624   -0.1892 N.3     1  UNL1       -0.3095
     26 C           2.7370   -1.4703   -0.3490 C.3     1  UNL1        0.0213
     27 C           3.1746   -1.2647   -1.7847 C.ar    1  UNL1       -0.0333
     28 C           2.7830   -2.1789   -2.7837 C.ar    1  UNL1       -0.0573
     29 C           3.1581   -1.9622   -4.1230 C.ar    1  UNL1       -0.0612
     30 C           3.9273   -0.8340   -4.4669 C.ar    1  UNL1       -0.0583
     31 C           4.3311    0.0840   -3.4724 C.ar    1  UNL1       -0.0445
     32 C           3.9459   -0.1358   -2.1322 C.ar    1  UNL1       -0.0539
     33 C           5.1680    1.3055   -3.8329 C.3     1  UNL1       -0.0215
     34 C           4.3641    2.3123   -4.6672 C.3     1  UNL1       -0.0586
     35 C           6.4846    0.9179   -4.5250 C.3     1  UNL1       -0.0586
     36 O          -0.9120   -0.4663    2.6159 O.3     1  UNL1       -0.3887
     37 C          -3.6572    3.5563    1.4829 C.3     1  UNL1       -0.0624
     38 H          -1.6426    3.6066    0.7981 H       1  UNL1        0.0299
     39 H          -0.1983    1.7550    1.4760 H       1  UNL1        0.0524
     40 H          -1.1875   -1.0329    0.6845 H       1  UNL1        0.0624
     41 H          -0.6396    8.6389   -6.7340 H       1  UNL1        0.0245
     42 H          -1.7697    7.4351   -6.1235 H       1  UNL1        0.0245
     43 H          -0.3943    6.9363   -7.1071 H       1  UNL1        0.0245
     44 H           1.1685    7.7416   -5.2830 H       1  UNL1        0.0462
     45 H          -0.1739    8.2341   -4.3278 H       1  UNL1        0.0462
     46 H          -0.5225    5.7911   -2.4920 H       1  UNL1        0.0464
     47 H          -1.5107    6.9303   -3.3103 H       1  UNL1        0.0464
     48 H          -2.4376    5.0660   -4.7747 H       1  UNL1        0.0280
     49 H          -1.7010    3.9138   -3.7022 H       1  UNL1        0.0280
     50 H          -3.7336    6.0334   -2.9167 H       1  UNL1        0.0266
     51 H          -4.0905    4.3528   -3.1580 H       1  UNL1        0.0266
     52 H          -2.1717    5.3370   -0.9799 H       1  UNL1        0.0265
     53 H          -3.8869    5.1827   -0.7665 H       1  UNL1        0.0265
     54 H          -3.8013    2.7515   -1.1925 H       1  UNL1        0.0268
     55 H          -2.1119    2.8548   -1.5734 H       1  UNL1        0.0268
     56 H          -2.6053    1.3281    1.8813 H       1  UNL1        0.0286
     57 H          -2.8587    0.9030    0.2259 H       1  UNL1        0.0286
     58 H          -0.8464    0.8695   -1.2887 H       1  UNL1        0.1494
     59 H           0.5460    0.1620   -2.9251 H       1  UNL1        0.0625
     60 H           0.5181    0.5170   -5.3740 H       1  UNL1        0.0618
     61 H           0.6528    2.8074   -6.3055 H       1  UNL1        0.0625
     62 H           1.0869    4.3965   -2.3140 H       1  UNL1        0.0633
     63 H           1.5765   -0.0994    1.6098 H       1  UNL1        0.0450
     64 H           1.0426   -1.7537    1.7897 H       1  UNL1        0.0450
     65 H           1.0711   -0.3947   -0.8040 H       1  UNL1        0.1223
     66 H           3.3398   -0.8208    0.2870 H       1  UNL1        0.0473
     67 H           2.9436   -2.4943   -0.0362 H       1  UNL1        0.0473
     68 H           2.1860   -3.0413   -2.5256 H       1  UNL1        0.0621
     69 H           2.8528   -2.6607   -4.8881 H       1  UNL1        0.0618
     70 H           4.2051   -0.6773   -5.4987 H       1  UNL1        0.0620
     71 H           4.2358    0.5686   -1.3661 H       1  UNL1        0.0623
     72 H           5.4373    1.8065   -2.9022 H       1  UNL1        0.0343
     73 H           3.4828    2.6460   -4.1219 H       1  UNL1        0.0235
     74 H           4.0301    1.8808   -5.6112 H       1  UNL1        0.0235
     75 H           4.9588    3.1964   -4.8983 H       1  UNL1        0.0235
     76 H           7.0674    0.2376   -3.9035 H       1  UNL1        0.0235
     77 H           7.0993    1.7985   -4.7135 H       1  UNL1        0.0235
     78 H           6.3107    0.4290   -5.4840 H       1  UNL1        0.0235
     79 H          -0.8192   -1.3678    2.8837 H       1  UNL1        0.2099
     80 H          -4.6094    3.0695    1.2697 H       1  UNL1        0.0232
     81 H          -3.8006    4.6317    1.3869 H       1  UNL1        0.0232
     82 H          -3.4178    3.3723    2.5307 H       1  UNL1        0.0232
@<TRIPOS>BOND
     1     1     2    1
     2     1    41    1
     3     1    42    1
     4     1    43    1
     5     2     3    1
     6     2    44    1
     7     2    45    1
     8     3    21   am
     9     3     4    1
    10     4     5    1
    11     4    46    1
    12     4    47    1
    13     5     6    1
    14     5    48    1
    15     5    49    1
    16     6     7    1
    17     6    50    1
    18     6    51    1
    19     7     8    1
    20     7    52    1
    21     7    53    1
    22     8     9    1
    23     8    54    1
    24     8    55    1
    25     9    38    1
    26     9    10    1
    27     9    37    1
    28    10    11    1
    29    10    56    1
    30    10    57    1
    31    11    39    1
    32    11    12    1
    33    11    23    1
    34    12    13   am
    35    12    58    1
    36    13    14    2
    37    13    15    1
    38    15    20   ar
    39    15    16   ar
    40    16    17   ar
    41    16    59    1
    42    17    18   ar
    43    17    60    1
    44    18    19   ar
    45    18    61    1
    46    19    20   ar
    47    19    21    1
    48    20    62    1
    49    21    22    2
    50    23    40    1
    51    23    24    1
    52    23    36    1
    53    24    25    1
    54    24    63    1
    55    24    64    1
    56    25    26    1
    57    25    65    1
    58    26    27    1
    59    26    66    1
    60    26    67    1
    61    27    32   ar
    62    27    28   ar
    63    28    29   ar
    64    28    68    1
    65    29    30   ar
    66    29    69    1
    67    30    31   ar
    68    30    70    1
    69    31    32   ar
    70    31    33    1
    71    32    71    1
    72    33    34    1
    73    33    35    1
    74    33    72    1
    75    34    73    1
    76    34    74    1
    77    34    75    1
    78    35    76    1
    79    35    77    1
    80    35    78    1
    81    36    79    1
    82    37    80    1
    83    37    81    1
    84    37    82    1
