@<TRIPOS>MOLECULE
BACE_20.smi:1
 78 79 0 0 0
SMALL
GASTEIGER
****
Structure written by MMmdl.
@<TRIPOS>ATOM
      1 C          -0.1307   11.0316    0.4701 C.3     1  UNL1       -0.0652
      2 C          -0.7587   10.2095   -0.6610 C.3     1  UNL1       -0.0545
      3 C          -0.4449    8.7120   -0.5438 C.3     1  UNL1       -0.0377
      4 C          -1.0701    7.8930   -1.6841 C.3     1  UNL1        0.0104
      5 N          -0.7450    6.4753   -1.5879 N.pl3   1  UNL1       -0.3289
      6 C          -1.3902    5.6409   -0.6630 C.ar    1  UNL1        0.1232
      7 C          -0.8581    4.3570   -0.4302 C.ar    1  UNL1       -0.0095
      8 C          -1.5030    3.5063    0.4959 C.ar    1  UNL1        0.0450
      9 C          -2.6498    3.9893    1.1617 C.ar    1  UNL1        0.0122
     10 C          -3.1161    5.2931    0.8638 C.ar    1  UNL1        0.2168
     11 N          -2.4972    6.0929   -0.0303 N.ar    1  UNL1       -0.1981
     12 O          -4.2242    5.8766    1.4379 O.3     1  UNL1       -0.4796
     13 C          -4.9534    5.1188    2.3918 C.3     1  UNL1        0.0804
     14 C          -0.9734    2.1345    0.7991 C.2     1  UNL1        0.2446
     15 O          -1.1650    1.6112    1.8969 O.2     1  UNL1       -0.2702
     16 N          -0.3534    1.5219   -0.2232 N.am    1  UNL1       -0.3057
     17 C           0.1507    0.1460   -0.2359 C.3     1  UNL1        0.0533
     18 C          -0.5432   -0.6855   -1.3393 C.3     1  UNL1       -0.0068
     19 C          -2.0597   -0.5771   -1.3082 C.ar    1  UNL1       -0.0455
     20 C          -2.7966   -1.2511   -0.3115 C.ar    1  UNL1       -0.0585
     21 C          -4.1990   -1.1288   -0.2640 C.ar    1  UNL1       -0.0615
     22 C          -4.8700   -0.3331   -1.2126 C.ar    1  UNL1       -0.0617
     23 C          -4.1382    0.3389   -2.2105 C.ar    1  UNL1       -0.0615
     24 C          -2.7362    0.2168   -2.2590 C.ar    1  UNL1       -0.0585
     25 C           1.6962    0.1073   -0.3111 C.3     1  UNL1        0.0745
     26 C           2.3909    0.8631    0.8476 C.3     1  UNL1       -0.0143
     27 C           3.9312    0.7238    0.9031 C.3     1  UNL1        0.0351
     28 C           4.5185    1.6005    2.0227 C.3     1  UNL1       -0.0540
     29 C           4.3742   -0.7353    1.0906 C.2     1  UNL1        0.2159
     30 O           4.0445   -1.3603    2.0990 O.2     1  UNL1       -0.2755
     31 N           5.1149   -1.2665    0.1071 N.am    1  UNL1       -0.3151
     32 C           5.6213   -2.6315    0.1006 C.3     1  UNL1        0.0116
     33 C           6.3620   -2.9251   -1.2133 C.3     1  UNL1       -0.0376
     34 C           6.8833   -4.3677   -1.3194 C.3     1  UNL1       -0.0545
     35 C           8.0401   -4.6804   -0.3608 C.3     1  UNL1       -0.0652
     36 O           2.1362    0.6313   -1.5502 O.3     1  UNL1       -0.3899
     37 H          -0.1210   -0.3289    0.7084 H       1  UNL1        0.0527
     38 H           1.9933   -0.9413   -0.2848 H       1  UNL1        0.0612
     39 H           4.3422    1.0880   -0.0400 H       1  UNL1        0.0392
     40 H          -0.3692   12.0895    0.3599 H       1  UNL1        0.0230
     41 H           0.9552   10.9338    0.4721 H       1  UNL1        0.0230
     42 H          -0.4989   10.7072    1.4438 H       1  UNL1        0.0230
     43 H          -1.8392   10.3573   -0.6558 H       1  UNL1        0.0263
     44 H          -0.4003   10.5850   -1.6200 H       1  UNL1        0.0263
     45 H           0.6362    8.5670   -0.5432 H       1  UNL1        0.0280
     46 H          -0.8056    8.3445    0.4177 H       1  UNL1        0.0280
     47 H          -2.1515    8.0314   -1.7098 H       1  UNL1        0.0461
     48 H          -0.6947    8.2558   -2.6411 H       1  UNL1        0.0461
     49 H           0.0985    6.1495   -2.0369 H       1  UNL1        0.1475
     50 H           0.0332    4.0397   -0.9526 H       1  UNL1        0.0659
     51 H          -3.1534    3.3587    1.8792 H       1  UNL1        0.0678
     52 H          -5.7973    5.7078    2.7510 H       1  UNL1        0.0660
     53 H          -4.3364    4.8654    3.2551 H       1  UNL1        0.0660
     54 H          -5.3528    4.2037    1.9521 H       1  UNL1        0.0660
     55 H          -0.2718    2.0364   -1.0880 H       1  UNL1        0.1494
     56 H          -0.1949   -0.3714   -2.3238 H       1  UNL1        0.0332
     57 H          -0.2646   -1.7355   -1.2429 H       1  UNL1        0.0332
     58 H          -2.2871   -1.8556    0.4245 H       1  UNL1        0.0620
     59 H          -4.7600   -1.6429    0.5026 H       1  UNL1        0.0618
     60 H          -5.9451   -0.2369   -1.1747 H       1  UNL1        0.0618
     61 H          -4.6519    0.9503   -2.9376 H       1  UNL1        0.0618
     62 H          -2.1817    0.7426   -3.0224 H       1  UNL1        0.0620
     63 H           2.1422    1.9234    0.7852 H       1  UNL1        0.0298
     64 H           1.9691    0.5215    1.7942 H       1  UNL1        0.0298
     65 H           5.6034    1.5013    2.0784 H       1  UNL1        0.0237
     66 H           4.1085    1.3346    2.9980 H       1  UNL1        0.0237
     67 H           4.2975    2.6540    1.8495 H       1  UNL1        0.0237
     68 H           5.3392   -0.6881   -0.6896 H       1  UNL1        0.1487
     69 H           6.2873   -2.7642    0.9538 H       1  UNL1        0.0462
     70 H           4.7905   -3.3279    0.2258 H       1  UNL1        0.0462
     71 H           5.6835   -2.7411   -2.0475 H       1  UNL1        0.0280
     72 H           7.1907   -2.2268   -1.3380 H       1  UNL1        0.0280
     73 H           6.0661   -5.0701   -1.1523 H       1  UNL1        0.0263
     74 H           7.2257   -4.5404   -2.3402 H       1  UNL1        0.0263
     75 H           8.4101   -5.6931   -0.5214 H       1  UNL1        0.0230
     76 H           7.7298   -4.6070    0.6814 H       1  UNL1        0.0230
     77 H           8.8741   -3.9950   -0.5131 H       1  UNL1        0.0230
     78 H           1.8946    1.5438   -1.5925 H       1  UNL1        0.2099
@<TRIPOS>BOND
     1     1     2    1
     2     1    40    1
     3     1    41    1
     4     1    42    1
     5     2     3    1
     6     2    43    1
     7     2    44    1
     8     3     4    1
     9     3    45    1
    10     3    46    1
    11     4     5    1
    12     4    47    1
    13     4    48    1
    14     5     6    1
    15     5    49    1
    16     6    11   ar
    17     6     7   ar
    18     7     8   ar
    19     7    50    1
    20     8     9   ar
    21     8    14    1
    22     9    10   ar
    23     9    51    1
    24    10    11   ar
    25    10    12    1
    26    12    13    1
    27    13    52    1
    28    13    53    1
    29    13    54    1
    30    14    15    2
    31    14    16   am
    32    16    17    1
    33    16    55    1
    34    17    37    1
    35    17    18    1
    36    17    25    1
    37    18    19    1
    38    18    56    1
    39    18    57    1
    40    19    24   ar
    41    19    20   ar
    42    20    21   ar
    43    20    58    1
    44    21    22   ar
    45    21    59    1
    46    22    23   ar
    47    22    60    1
    48    23    24   ar
    49    23    61    1
    50    24    62    1
    51    25    38    1
    52    25    26    1
    53    25    36    1
    54    26    27    1
    55    26    63    1
    56    26    64    1
    57    27    39    1
    58    27    28    1
    59    27    29    1
    60    28    65    1
    61    28    66    1
    62    28    67    1
    63    29    30    2
    64    29    31   am
    65    31    32    1
    66    31    68    1
    67    32    33    1
    68    32    69    1
    69    32    70    1
    70    33    34    1
    71    33    71    1
    72    33    72    1
    73    34    35    1
    74    34    73    1
    75    34    74    1
    76    35    75    1
    77    35    76    1
    78    35    77    1
    79    36    78    1
