@<TRIPOS>MOLECULE
BACE_2.smi:1
 95 97 0 0 0
SMALL
GASTEIGER
****
Structure written by MMmdl.
@<TRIPOS>ATOM
      1 C          -2.7656    2.3771    2.8849 C.ar    1  UNL1       -0.0193
      2 C          -2.1781    1.8247    4.0375 C.ar    1  UNL1       -0.0549
      3 C          -0.9366    1.1631    3.9538 C.ar    1  UNL1       -0.0443
      4 C          -0.2928    0.5936    5.2122 C.3     1  UNL1       -0.0215
      5 C           0.1128   -0.8813    5.0507 C.3     1  UNL1       -0.0586
      6 C           0.8870    1.4632    5.6712 C.3     1  UNL1       -0.0586
      7 C          -0.2991    1.0527    2.6997 C.ar    1  UNL1       -0.0502
      8 C          -0.8865    1.5941    1.5345 C.ar    1  UNL1        0.0115
      9 C          -2.1224    2.2828    1.6352 C.ar    1  UNL1        0.1260
     10 C          -0.1876    1.4535    0.1859 C.3     1  UNL1        0.0400
     11 C          -1.1189    1.8814   -0.9646 C.3     1  UNL1        0.0062
     12 C          -1.9629    3.1216   -0.6112 C.3     1  UNL1        0.1068
     13 O          -2.7470    2.8605    0.5516 O.3     1  UNL1       -0.4859
     14 C          -1.0979    4.3768   -0.3698 C.3     1  UNL1       -0.0251
     15 C          -2.9717    3.4042   -1.7367 C.3     1  UNL1       -0.0251
     16 N           0.3418    0.0988   -0.0178 N.3     1  UNL1       -0.3066
     17 C           1.1047   -0.1058   -1.2510 C.3     1  UNL1        0.0242
     18 C           1.7517   -1.5100   -1.3000 C.3     1  UNL1        0.0859
     19 O           1.7729   -1.8620   -2.6691 O.3     1  UNL1       -0.3887
     20 C           3.2194   -1.6028   -0.7807 C.3     1  UNL1        0.0505
     21 N           3.5024   -0.6969    0.3371 N.am    1  UNL1       -0.3084
     22 C           3.0876   -0.8014    1.6110 C.2     1  UNL1        0.2336
     23 O           2.3319   -1.6878    2.0077 O.2     1  UNL1       -0.2738
     24 C           3.6043    0.2619    2.5910 C.3     1  UNL1        0.0991
     25 C           3.4602    1.7249    2.1065 C.3     1  UNL1       -0.0379
     26 C           3.6775   -3.0487   -0.4401 C.3     1  UNL1       -0.0295
     27 C           4.0094   -3.9711   -1.6382 C.3     1  UNL1       -0.0421
     28 C           4.1914   -5.4313   -1.1851 C.3     1  UNL1       -0.0624
     29 C           5.1768   -3.4796   -2.5375 C.3     1  UNL1       -0.0504
     30 C           6.3905   -2.8132   -1.8516 C.3     1  UNL1       -0.0528
     31 C           7.1987   -3.7138   -0.9004 C.3     1  UNL1       -0.0530
     32 C           8.3866   -3.0011   -0.2308 C.3     1  UNL1       -0.0531
     33 C           7.9566   -1.8081    0.6405 C.3     1  UNL1       -0.0530
     34 C           9.0454   -1.3369    1.6158 C.3     1  UNL1       -0.0526
     35 C           8.7095   -0.0389    2.3801 C.3     1  UNL1       -0.0448
     36 C           7.4422   -0.1031    3.2683 C.3     1  UNL1        0.0242
     37 C           6.1121    0.2332    2.5534 C.2     1  UNL1        0.2159
     38 O           6.1632    0.7930    1.4581 O.2     1  UNL1       -0.2756
     39 N           4.9323   -0.0889    3.1511 N.am    1  UNL1       -0.2932
     40 C           4.9094   -0.8984    4.3778 C.3     1  UNL1        0.0039
     41 H           0.6512    2.1496    0.2154 H       1  UNL1        0.0512
     42 H           1.1141   -2.2274   -0.7811 H       1  UNL1        0.0624
     43 H           3.8680   -1.2100   -1.5635 H       1  UNL1        0.0524
     44 H           2.9021    0.2226    3.4225 H       1  UNL1        0.0594
     45 H           3.1294   -4.0049   -2.2789 H       1  UNL1        0.0299
     46 H          -3.7135    2.8892    2.9625 H       1  UNL1        0.0654
     47 H          -2.6829    1.9205    4.9875 H       1  UNL1        0.0622
     48 H          -1.0419    0.6251    6.0046 H       1  UNL1        0.0343
     49 H          -0.7414   -1.4919    4.7569 H       1  UNL1        0.0235
     50 H           0.4967   -1.2842    5.9882 H       1  UNL1        0.0235
     51 H           0.8905   -1.0125    4.2994 H       1  UNL1        0.0235
     52 H           0.5641    2.4861    5.8667 H       1  UNL1        0.0235
     53 H           1.6728    1.5045    4.9176 H       1  UNL1        0.0235
     54 H           1.3274    1.0763    6.5905 H       1  UNL1        0.0235
     55 H           0.6499    0.5465    2.6313 H       1  UNL1        0.0625
     56 H          -0.5470    2.0625   -1.8752 H       1  UNL1        0.0322
     57 H          -1.8016    1.0594   -1.1872 H       1  UNL1        0.0322
     58 H          -0.5001    4.6173   -1.2492 H       1  UNL1        0.0268
     59 H          -0.4121    4.2523    0.4681 H       1  UNL1        0.0268
     60 H          -1.7207    5.2437   -0.1472 H       1  UNL1        0.0268
     61 H          -2.4653    3.6210   -2.6778 H       1  UNL1        0.0268
     62 H          -3.6033    4.2600   -1.4960 H       1  UNL1        0.0268
     63 H          -3.6289    2.5499   -1.9034 H       1  UNL1        0.0268
     64 H           0.9033   -0.1732    0.7830 H       1  UNL1        0.1226
     65 H           0.4287    0.0068   -2.0992 H       1  UNL1        0.0450
     66 H           1.8678    0.6644   -1.3690 H       1  UNL1        0.0450
     67 H           2.1132   -2.7400   -2.7470 H       1  UNL1        0.2099
     68 H           4.1166    0.0766    0.1254 H       1  UNL1        0.1491
     69 H           2.4136    1.9722    1.9323 H       1  UNL1        0.0252
     70 H           3.9824    1.9245    1.1717 H       1  UNL1        0.0252
     71 H           3.8325    2.4233    2.8563 H       1  UNL1        0.0252
     72 H           4.5470   -3.0078    0.2158 H       1  UNL1        0.0286
     73 H           2.9019   -3.5255    0.1602 H       1  UNL1        0.0286
     74 H           5.0053   -5.5545   -0.4743 H       1  UNL1        0.0232
     75 H           4.3913   -6.0854   -2.0342 H       1  UNL1        0.0232
     76 H           3.2866   -5.8011   -0.7021 H       1  UNL1        0.0232
     77 H           5.5231   -4.2976   -3.1701 H       1  UNL1        0.0268
     78 H           4.7676   -2.7459   -3.2331 H       1  UNL1        0.0268
     79 H           7.0621   -2.4495   -2.6300 H       1  UNL1        0.0265
     80 H           6.0560   -1.9220   -1.3245 H       1  UNL1        0.0265
     81 H           6.5582   -4.0929   -0.1077 H       1  UNL1        0.0265
     82 H           7.5603   -4.5856   -1.4465 H       1  UNL1        0.0265
     83 H           8.9111   -3.7277    0.3908 H       1  UNL1        0.0265
     84 H           9.1033   -2.6718   -0.9839 H       1  UNL1        0.0265
     85 H           7.6688   -0.9774   -0.0039 H       1  UNL1        0.0265
     86 H           7.0691   -2.0878    1.2084 H       1  UNL1        0.0265
     87 H           9.2543   -2.1328    2.3316 H       1  UNL1        0.0265
     88 H           9.9722   -1.1797    1.0628 H       1  UNL1        0.0265
     89 H           9.5577    0.1880    3.0267 H       1  UNL1        0.0270
     90 H           8.6628    0.7989    1.6833 H       1  UNL1        0.0270
     91 H           7.4073   -1.0859    3.7366 H       1  UNL1        0.0358
     92 H           7.5494    0.6187    4.0786 H       1  UNL1        0.0358
     93 H           5.4761   -0.4171    5.1760 H       1  UNL1        0.0429
     94 H           5.3353   -1.8852    4.1924 H       1  UNL1        0.0429
     95 H           3.9043   -1.0676    4.7643 H       1  UNL1        0.0429
@<TRIPOS>BOND
     1     1     9   ar
     2     1     2   ar
     3     1    46    1
     4     2     3   ar
     5     2    47    1
     6     3     4    1
     7     3     7   ar
     8     4     5    1
     9     4     6    1
    10     4    48    1
    11     5    49    1
    12     5    50    1
    13     5    51    1
    14     6    52    1
    15     6    53    1
    16     6    54    1
    17     7     8   ar
    18     7    55    1
    19     8     9   ar
    20     8    10    1
    21     9    13    1
    22    10    41    1
    23    10    11    1
    24    10    16    1
    25    11    12    1
    26    11    56    1
    27    11    57    1
    28    12    13    1
    29    12    14    1
    30    12    15    1
    31    14    58    1
    32    14    59    1
    33    14    60    1
    34    15    61    1
    35    15    62    1
    36    15    63    1
    37    16    17    1
    38    16    64    1
    39    17    18    1
    40    17    65    1
    41    17    66    1
    42    18    42    1
    43    18    19    1
    44    18    20    1
    45    19    67    1
    46    20    43    1
    47    20    21    1
    48    20    26    1
    49    21    22   am
    50    21    68    1
    51    22    23    2
    52    22    24    1
    53    24    44    1
    54    24    39    1
    55    24    25    1
    56    25    69    1
    57    25    70    1
    58    25    71    1
    59    26    27    1
    60    26    72    1
    61    26    73    1
    62    27    45    1
    63    27    28    1
    64    27    29    1
    65    28    74    1
    66    28    75    1
    67    28    76    1
    68    29    30    1
    69    29    77    1
    70    29    78    1
    71    30    31    1
    72    30    79    1
    73    30    80    1
    74    31    32    1
    75    31    81    1
    76    31    82    1
    77    32    33    1
    78    32    83    1
    79    32    84    1
    80    33    34    1
    81    33    85    1
    82    33    86    1
    83    34    35    1
    84    34    87    1
    85    34    88    1
    86    35    36    1
    87    35    89    1
    88    35    90    1
    89    36    37    1
    90    36    91    1
    91    36    92    1
    92    37    38    2
    93    37    39   am
    94    39    40    1
    95    40    93    1
    96    40    94    1
    97    40    95    1
