@<TRIPOS>MOLECULE
BACE_15.smi:1
 83 86 0 0 0
SMALL
GASTEIGER
****
Structure written by MMmdl.
@<TRIPOS>ATOM
      1 C          -2.4813    2.5526   -5.1622 C.3     1  UNL1       -0.0586
      2 C          -0.9588    2.3452   -5.1918 C.3     1  UNL1       -0.0215
      3 C          -0.5838    0.9761   -5.7817 C.3     1  UNL1       -0.0586
      4 C          -0.3353    2.5538   -3.8174 C.ar    1  UNL1       -0.0444
      5 C           0.5946    3.5962   -3.6148 C.ar    1  UNL1       -0.0583
      6 C           1.1786    3.7913   -2.3487 C.ar    1  UNL1       -0.0611
      7 C           0.8379    2.9454   -1.2766 C.ar    1  UNL1       -0.0535
      8 C          -0.0899    1.9005   -1.4683 C.ar    1  UNL1       -0.0027
      9 C          -0.6756    1.7101   -2.7369 C.ar    1  UNL1       -0.0501
     10 C          -0.4546    0.9784   -0.3188 C.3     1  UNL1       -0.0076
     11 N           0.2273   -0.3296   -0.4163 N.4     1  UNL1        0.2321
     12 C           1.6954   -0.2843   -0.2466 C.3     1  UNL1       -0.0049
     13 C           2.3106   -1.6987   -0.2911 C.3     1  UNL1        0.1133
     14 C           3.8372   -1.7245   -0.0105 C.3     1  UNL1        0.0583
     15 C           4.4356   -3.1581   -0.0044 C.3     1  UNL1       -0.0065
     16 C           5.8913   -3.2057    0.4360 C.ar    1  UNL1       -0.0421
     17 C           6.8992   -2.7433   -0.4331 C.ar    1  UNL1       -0.0583
     18 C           8.2392   -2.7242   -0.0079 C.ar    1  UNL1       -0.0580
     19 C           8.5707   -3.1535    1.2906 C.ar    1  UNL1       -0.0199
     20 C           7.5771   -3.6217    2.1748 C.ar    1  UNL1        0.1208
     21 C           6.2331   -3.6677    1.7263 C.ar    1  UNL1       -0.0167
     22 O           8.0009   -3.9827    3.4360 O.3     1  UNL1       -0.4920
     23 C           7.0645   -4.4650    4.3942 C.3     1  UNL1        0.0897
     24 C           7.6731   -4.2460    5.7879 C.3     1  UNL1       -0.0156
     25 C           7.6517   -2.7644    6.2076 C.3     1  UNL1       -0.0156
     26 C           6.3552   -2.3491    6.9310 C.3     1  UNL1        0.0897
     27 O           6.1651   -0.9370    6.8686 O.3     1  UNL1       -0.4919
     28 C           5.6813   -0.3755    5.7028 C.ar    1  UNL1        0.1215
     29 C           5.8624    1.0122    5.5343 C.ar    1  UNL1       -0.0145
     30 C           5.4190    1.6669    4.3663 C.ar    1  UNL1       -0.0178
     31 C           4.7616    0.9300    3.3598 C.ar    1  UNL1       -0.0440
     32 C           4.5610   -0.4582    3.5128 C.ar    1  UNL1        0.0405
     33 C           5.0124   -1.0996    4.6850 C.ar    1  UNL1       -0.0078
     34 C           3.8567   -1.2580    2.4587 C.2     1  UNL1        0.2445
     35 O           3.0807   -2.1632    2.7652 O.2     1  UNL1       -0.2702
     36 N           4.2093   -0.9714    1.1936 N.am    1  UNL1       -0.3055
     37 C           5.6223    3.1630    4.2135 C.3     1  UNL1        0.0725
     38 O           5.8182    3.5430    2.8601 O.3     1  UNL1       -0.3784
     39 C           6.0157    4.9378    2.7091 C.3     1  UNL1        0.0369
     40 O           2.0927   -2.2076   -1.5935 O.3     1  UNL1       -0.3847
     41 H           1.7927   -2.3441    0.4195 H       1  UNL1        0.0666
     42 H           4.3267   -1.1789   -0.8187 H       1  UNL1        0.0529
     43 H          -2.7330    3.5466   -4.7911 H       1  UNL1        0.0235
     44 H          -2.9763    1.8221   -4.5218 H       1  UNL1        0.0235
     45 H          -2.9085    2.4573   -6.1607 H       1  UNL1        0.0235
     46 H          -0.5474    3.1035   -5.8596 H       1  UNL1        0.0343
     47 H           0.4986    0.8627   -5.8476 H       1  UNL1        0.0235
     48 H          -0.9878    0.8592   -6.7876 H       1  UNL1        0.0235
     49 H          -0.9683    0.1556   -5.1755 H       1  UNL1        0.0235
     50 H           0.8658    4.2514   -4.4297 H       1  UNL1        0.0620
     51 H           1.8899    4.5905   -2.2006 H       1  UNL1        0.0618
     52 H           1.2936    3.1000   -0.3095 H       1  UNL1        0.0622
     53 H          -1.3857    0.9090   -2.8817 H       1  UNL1        0.0625
     54 H          -0.2200    1.4484    0.6373 H       1  UNL1        0.0866
     55 H          -1.5321    0.8107   -0.3290 H       1  UNL1        0.0866
     56 H           2.1464    0.3426   -1.0169 H       1  UNL1        0.0840
     57 H           1.8993    0.1938    0.7116 H       1  UNL1        0.0840
     58 H           3.8480   -3.8034    0.6500 H       1  UNL1        0.0332
     59 H           4.3629   -3.5988   -0.9992 H       1  UNL1        0.0332
     60 H           6.6450   -2.3894   -1.4216 H       1  UNL1        0.0620
     61 H           9.0118   -2.3651   -0.6716 H       1  UNL1        0.0619
     62 H           9.6002   -3.1164    1.6155 H       1  UNL1        0.0654
     63 H           5.4389   -4.0223    2.3637 H       1  UNL1        0.0657
     64 H           6.1037   -3.9568    4.3550 H       1  UNL1        0.0696
     65 H           6.8887   -5.5259    4.2139 H       1  UNL1        0.0696
     66 H           7.1443   -4.8463    6.5291 H       1  UNL1        0.0299
     67 H           8.7008   -4.6116    5.7839 H       1  UNL1        0.0299
     68 H           8.4934   -2.5606    6.8702 H       1  UNL1        0.0299
     69 H           7.8172   -2.1401    5.3289 H       1  UNL1        0.0299
     70 H           5.4849   -2.9030    6.5840 H       1  UNL1        0.0696
     71 H           6.4450   -2.6206    7.9830 H       1  UNL1        0.0696
     72 H           6.3596    1.5778    6.3091 H       1  UNL1        0.0657
     73 H           4.4062    1.4353    2.4733 H       1  UNL1        0.0628
     74 H           4.8306   -2.1572    4.7761 H       1  UNL1        0.0662
     75 H           4.8710   -0.2197    1.0614 H       1  UNL1        0.1494
     76 H           4.7474    3.6723    4.6201 H       1  UNL1        0.0610
     77 H           6.4846    3.4709    4.8072 H       1  UNL1        0.0610
     78 H           6.1530    5.1759    1.6545 H       1  UNL1        0.0524
     79 H           6.9038    5.2705    3.2477 H       1  UNL1        0.0524
     80 H           5.1545    5.5003    3.0721 H       1  UNL1        0.0524
     81 H           2.4400   -3.0860   -1.6364 H       1  UNL1        0.2101
     82 H          -0.1500   -0.9347    0.2987 H       1  UNL1        0.2018
     83 H           0.0231   -0.7342   -1.3193 H       1  UNL1        0.2018
@<TRIPOS>BOND
     1     1     2    1
     2     1    43    1
     3     1    44    1
     4     1    45    1
     5     2     3    1
     6     2     4    1
     7     2    46    1
     8     3    47    1
     9     3    48    1
    10     3    49    1
    11     4     9   ar
    12     4     5   ar
    13     5     6   ar
    14     5    50    1
    15     6     7   ar
    16     6    51    1
    17     7     8   ar
    18     7    52    1
    19     8     9   ar
    20     8    10    1
    21     9    53    1
    22    10    11    1
    23    10    54    1
    24    10    55    1
    25    11    12    1
    26    11    82    1
    27    11    83    1
    28    12    13    1
    29    12    56    1
    30    12    57    1
    31    13    41    1
    32    13    14    1
    33    13    40    1
    34    14    42    1
    35    14    36    1
    36    14    15    1
    37    15    16    1
    38    15    58    1
    39    15    59    1
    40    16    21   ar
    41    16    17   ar
    42    17    18   ar
    43    17    60    1
    44    18    19   ar
    45    18    61    1
    46    19    20   ar
    47    19    62    1
    48    20    21   ar
    49    20    22    1
    50    21    63    1
    51    22    23    1
    52    23    24    1
    53    23    64    1
    54    23    65    1
    55    24    25    1
    56    24    66    1
    57    24    67    1
    58    25    26    1
    59    25    68    1
    60    25    69    1
    61    26    27    1
    62    26    70    1
    63    26    71    1
    64    27    28    1
    65    28    33   ar
    66    28    29   ar
    67    29    30   ar
    68    29    72    1
    69    30    31   ar
    70    30    37    1
    71    31    32   ar
    72    31    73    1
    73    32    33   ar
    74    32    34    1
    75    33    74    1
    76    34    35    2
    77    34    36   am
    78    36    75    1
    79    37    38    1
    80    37    76    1
    81    37    77    1
    82    38    39    1
    83    39    78    1
    84    39    79    1
    85    39    80    1
    86    40    81    1
