@<TRIPOS>MOLECULE
BACE_16.smi:1
 85 88 0 0 0
SMALL
GASTEIGER
****
Structure written by MMmdl.
@<TRIPOS>ATOM
      1 C          -4.3618    5.1131   -3.0333 C.3     1  UNL1       -0.0586
      2 C          -3.3176    5.7273   -2.0880 C.3     1  UNL1       -0.0215
      3 C          -1.9903    6.0025   -2.8116 C.3     1  UNL1       -0.0586
      4 C          -3.1125    4.8712   -0.8446 C.ar    1  UNL1       -0.0444
      5 C          -3.4353    5.3875    0.4288 C.ar    1  UNL1       -0.0583
      6 C          -3.2460    4.6031    1.5827 C.ar    1  UNL1       -0.0611
      7 C          -2.7321    3.2975    1.4720 C.ar    1  UNL1       -0.0535
      8 C          -2.4069    2.7720    0.2046 C.ar    1  UNL1       -0.0027
      9 C          -2.5987    3.5596   -0.9497 C.ar    1  UNL1       -0.0501
     10 C          -1.8449    1.3704    0.0836 C.3     1  UNL1       -0.0076
     11 N          -0.3722    1.3993    0.1540 N.4     1  UNL1        0.2321
     12 C           0.2609    0.0679    0.0741 C.3     1  UNL1       -0.0049
     13 C           1.7988    0.1670    0.1613 C.3     1  UNL1        0.1133
     14 C           2.5339   -1.1944    0.0262 C.3     1  UNL1        0.0583
     15 C           4.0816   -1.0574    0.0513 C.3     1  UNL1       -0.0065
     16 C           4.7003   -0.6965   -1.2939 C.ar    1  UNL1       -0.0421
     17 C           4.8024    0.6519   -1.6886 C.ar    1  UNL1       -0.0583
     18 C           5.3151    0.9748   -2.9578 C.ar    1  UNL1       -0.0580
     19 C           5.7289   -0.0446   -3.8367 C.ar    1  UNL1       -0.0199
     20 C           5.6486   -1.4061   -3.4480 C.ar    1  UNL1        0.1208
     21 C           5.1432   -1.7131   -2.1682 C.ar    1  UNL1       -0.0167
     22 O           6.0318   -2.4723   -4.2380 O.3     1  UNL1       -0.4920
     23 C           6.3075   -2.2570   -5.6201 C.3     1  UNL1        0.0897
     24 C           5.0047   -2.1034   -6.4258 C.3     1  UNL1       -0.0156
     25 C           4.2650   -3.4380   -6.6198 C.3     1  UNL1       -0.0156
     26 C           2.8367   -3.2576   -7.1659 C.3     1  UNL1        0.0897
     27 O           1.9873   -2.6774   -6.1780 O.3     1  UNL1       -0.4918
     28 C           1.6394   -3.4560   -5.0957 C.ar    1  UNL1        0.1247
     29 C           1.5770   -2.8277   -3.8384 C.ar    1  UNL1       -0.0076
     30 C           1.2741   -3.5659   -2.6712 C.ar    1  UNL1        0.0436
     31 C           0.9714   -4.9399   -2.7842 C.ar    1  UNL1       -0.0076
     32 C           1.0009   -5.5847   -4.0451 C.ar    1  UNL1        0.1253
     33 C           1.3412   -4.8356   -5.1888 C.ar    1  UNL1        0.0218
     34 O           0.7215   -6.9203   -4.2349 O.3     1  UNL1       -0.4844
     35 C           0.3722   -7.6922   -3.0940 C.3     1  UNL1        0.1470
     36 C           0.0955   -9.1353   -3.5116 C.2     1  UNL1        0.1673
     37 O           0.2104   -9.5126   -4.6769 O.2     1  UNL1       -0.2941
     38 C          -0.3296  -10.1009   -2.4129 C.3     1  UNL1       -0.0026
     39 C           1.2763   -2.9076   -1.3208 C.2     1  UNL1        0.2446
     40 O           0.5858   -3.3331   -0.3949 O.2     1  UNL1       -0.2702
     41 N           2.1406   -1.8891   -1.1992 N.am    1  UNL1       -0.3055
     42 O           2.1073    0.7177    1.4283 O.3     1  UNL1       -0.3847
     43 H           2.1529    0.8513   -0.6100 H       1  UNL1        0.0666
     44 H           2.2497   -1.8018    0.8880 H       1  UNL1        0.0529
     45 H          -5.3157    4.9730   -2.5241 H       1  UNL1        0.0235
     46 H          -4.0407    4.1431   -3.4138 H       1  UNL1        0.0235
     47 H          -4.5404    5.7608   -3.8922 H       1  UNL1        0.0235
     48 H          -3.7098    6.6923   -1.7636 H       1  UNL1        0.0343
     49 H          -1.2728    6.4809   -2.1445 H       1  UNL1        0.0235
     50 H          -2.1401    6.6672   -3.6629 H       1  UNL1        0.0235
     51 H          -1.5373    5.0846   -3.1867 H       1  UNL1        0.0235
     52 H          -3.8295    6.3883    0.5283 H       1  UNL1        0.0620
     53 H          -3.4949    5.0048    2.5539 H       1  UNL1        0.0618
     54 H          -2.5876    2.7033    2.3626 H       1  UNL1        0.0622
     55 H          -2.3482    3.1556   -1.9198 H       1  UNL1        0.0625
     56 H          -2.2419    0.7446    0.8843 H       1  UNL1        0.0866
     57 H          -2.1627    0.9260   -0.8606 H       1  UNL1        0.0866
     58 H          -0.0238    1.9710   -0.6019 H       1  UNL1        0.2018
     59 H          -0.1247   -0.5727    0.8687 H       1  UNL1        0.0840
     60 H          -0.0408   -0.3787   -0.8732 H       1  UNL1        0.0840
     61 H           4.4083   -0.3420    0.8062 H       1  UNL1        0.0332
     62 H           4.5082   -2.0124    0.3610 H       1  UNL1        0.0332
     63 H           4.4759    1.4408   -1.0268 H       1  UNL1        0.0620
     64 H           5.3847    2.0086   -3.2629 H       1  UNL1        0.0619
     65 H           6.1050    0.2513   -4.8031 H       1  UNL1        0.0654
     66 H           5.0663   -2.7481   -1.8678 H       1  UNL1        0.0657
     67 H           6.9801   -1.4138   -5.7725 H       1  UNL1        0.0696
     68 H           6.8580   -3.1227   -5.9890 H       1  UNL1        0.0696
     69 H           4.3518   -1.3768   -5.9420 H       1  UNL1        0.0299
     70 H           5.2369   -1.6896   -7.4075 H       1  UNL1        0.0299
     71 H           4.8366   -4.0563   -7.3125 H       1  UNL1        0.0299
     72 H           4.2368   -3.9928   -5.6816 H       1  UNL1        0.0299
     73 H           2.8588   -2.5875   -8.0256 H       1  UNL1        0.0696
     74 H           2.4431   -4.1982   -7.5477 H       1  UNL1        0.0696
     75 H           1.8008   -1.7722   -3.7805 H       1  UNL1        0.0662
     76 H           0.7304   -5.4916   -1.8878 H       1  UNL1        0.0662
     77 H           1.3528   -5.3434   -6.1404 H       1  UNL1        0.0691
     78 H           1.1850   -7.6836   -2.3671 H       1  UNL1        0.0777
     79 H          -0.5200   -7.2825   -2.6194 H       1  UNL1        0.0777
     80 H          -0.8743   -9.5732   -1.6300 H       1  UNL1        0.0307
     81 H           0.5454  -10.5742   -1.9679 H       1  UNL1        0.0307
     82 H          -0.9763  -10.8791   -2.8183 H       1  UNL1        0.0307
     83 H           2.6602   -1.6375   -2.0283 H       1  UNL1        0.1494
     84 H           3.0456    0.8115    1.4967 H       1  UNL1        0.2101
     85 H          -0.1018    1.8243    1.0297 H       1  UNL1        0.2018
@<TRIPOS>BOND
     1     1     2    1
     2     1    45    1
     3     1    46    1
     4     1    47    1
     5     2     3    1
     6     2     4    1
     7     2    48    1
     8     3    49    1
     9     3    50    1
    10     3    51    1
    11     4     9   ar
    12     4     5   ar
    13     5     6   ar
    14     5    52    1
    15     6     7   ar
    16     6    53    1
    17     7     8   ar
    18     7    54    1
    19     8     9   ar
    20     8    10    1
    21     9    55    1
    22    10    11    1
    23    10    56    1
    24    10    57    1
    25    11    12    1
    26    11    58    1
    27    11    85    1
    28    12    13    1
    29    12    59    1
    30    12    60    1
    31    13    43    1
    32    13    14    1
    33    13    42    1
    34    14    44    1
    35    14    41    1
    36    14    15    1
    37    15    16    1
    38    15    61    1
    39    15    62    1
    40    16    21   ar
    41    16    17   ar
    42    17    18   ar
    43    17    63    1
    44    18    19   ar
    45    18    64    1
    46    19    20   ar
    47    19    65    1
    48    20    21   ar
    49    20    22    1
    50    21    66    1
    51    22    23    1
    52    23    24    1
    53    23    67    1
    54    23    68    1
    55    24    25    1
    56    24    69    1
    57    24    70    1
    58    25    26    1
    59    25    71    1
    60    25    72    1
    61    26    27    1
    62    26    73    1
    63    26    74    1
    64    27    28    1
    65    28    33   ar
    66    28    29   ar
    67    29    30   ar
    68    29    75    1
    69    30    31   ar
    70    30    39    1
    71    31    32   ar
    72    31    76    1
    73    32    33   ar
    74    32    34    1
    75    33    77    1
    76    34    35    1
    77    35    36    1
    78    35    78    1
    79    35    79    1
    80    36    37    2
    81    36    38    1
    82    38    80    1
    83    38    81    1
    84    38    82    1
    85    39    40    2
    86    39    41   am
    87    41    83    1
    88    42    84    1
