@<TRIPOS>MOLECULE
BACE_4.smi:1
 90 92 0 0 0
SMALL
GASTEIGER
****
Structure written by MMmdl.
@<TRIPOS>ATOM
      1 C          -2.5964    3.6439    2.2118 C.3     1  UNL1       -0.0624
      2 C          -1.0663    3.6323    2.0239 C.3     1  UNL1       -0.0421
      3 C          -0.5667    4.5098    0.8506 C.3     1  UNL1       -0.0504
      4 C          -1.1438    5.9403    0.8147 C.3     1  UNL1       -0.0528
      5 C          -2.2615    6.0875   -0.2337 C.3     1  UNL1       -0.0530
      6 C          -3.1411    7.3376   -0.0635 C.3     1  UNL1       -0.0510
      7 C          -4.2444    7.2130    1.0077 C.3     1  UNL1       -0.0294
      8 C          -5.4692    6.3807    0.5806 C.3     1  UNL1        0.0483
      9 O          -5.1635    4.9957    0.5758 O.3     1  UNL1       -0.3706
     10 C          -6.2558    4.1769    0.1843 C.3     1  UNL1        0.1238
     11 C          -5.8201    2.7065    0.2729 C.2     1  UNL1        0.2417
     12 O          -6.2582    2.0387    1.2101 O.2     1  UNL1       -0.2731
     13 N          -4.9450    2.2083   -0.6395 N.am    1  UNL1       -0.2914
     14 C          -4.3708    0.8496   -0.5007 C.3     1  UNL1        0.0991
     15 C          -2.8334    0.8412   -0.5688 C.2     1  UNL1        0.2336
     16 O          -2.2465    0.6104   -1.6264 O.2     1  UNL1       -0.2738
     17 N          -2.1987    1.1163    0.5820 N.am    1  UNL1       -0.3083
     18 C          -0.7612    1.3042    0.7622 C.3     1  UNL1        0.0543
     19 C          -0.4643    2.2009    1.9998 C.3     1  UNL1       -0.0293
     20 C          -0.0379   -0.0694    0.7818 C.3     1  UNL1        0.1130
     21 C           1.4829    0.0550    0.5791 C.3     1  UNL1       -0.0044
     22 N           2.1003   -1.2682    0.3495 N.4     1  UNL1        0.2365
     23 C           3.5507   -1.2397    0.0628 C.3     1  UNL1        0.0145
     24 C           3.9953   -2.4038   -0.7906 C.3     1  UNL1        0.0032
     25 C           3.8795   -1.0201   -1.3964 C.3     1  UNL1        0.0032
     26 C           4.4012   -0.7196    1.1840 C.ar    1  UNL1        0.0035
     27 C           4.8460    0.6175    1.1830 C.ar    1  UNL1       -0.0529
     28 C           5.6346    1.1013    2.2409 C.ar    1  UNL1       -0.0610
     29 C           5.9824    0.2508    3.3063 C.ar    1  UNL1       -0.0580
     30 C           5.5476   -1.0952    3.3346 C.ar    1  UNL1       -0.0415
     31 C           4.7551   -1.5650    2.2571 C.ar    1  UNL1       -0.0493
     32 C           5.9455   -1.9950    4.5209 C.3     1  UNL1       -0.0127
     33 C           5.3705   -3.4256    4.4132 C.3     1  UNL1       -0.0560
     34 C           5.4244   -1.3816    5.8377 C.3     1  UNL1       -0.0560
     35 C           7.4822   -2.1123    4.5884 C.3     1  UNL1       -0.0560
     36 O          -0.2655   -0.7228    2.0164 O.3     1  UNL1       -0.3847
     37 C          -5.0661   -0.1326   -1.4614 C.3     1  UNL1       -0.0379
     38 C          -4.5792    2.9750   -1.8397 C.3     1  UNL1        0.0040
     39 H          -0.6702    4.0918    2.9306 H       1  UNL1        0.0299
     40 H          -4.5861    0.4580    0.4951 H       1  UNL1        0.0594
     41 H          -0.4021    1.8325   -0.1214 H       1  UNL1        0.0526
     42 H          -0.4357   -0.7002   -0.0143 H       1  UNL1        0.0666
     43 H          -3.1191    3.4188    1.2855 H       1  UNL1        0.0232
     44 H          -2.9519    4.6167    2.5488 H       1  UNL1        0.0232
     45 H          -2.9109    2.9172    2.9613 H       1  UNL1        0.0232
     46 H           0.5197    4.5775    0.9203 H       1  UNL1        0.0268
     47 H          -0.7641    4.0242   -0.1047 H       1  UNL1        0.0268
     48 H          -1.4890    6.2361    1.8054 H       1  UNL1        0.0265
     49 H          -0.3489    6.6443    0.5659 H       1  UNL1        0.0265
     50 H          -1.7991    6.1125   -1.2212 H       1  UNL1        0.0265
     51 H          -2.8844    5.1994   -0.2338 H       1  UNL1        0.0265
     52 H          -2.5006    8.1884    0.1721 H       1  UNL1        0.0266
     53 H          -3.6081    7.5794   -1.0190 H       1  UNL1        0.0266
     54 H          -3.8351    6.8324    1.9434 H       1  UNL1        0.0287
     55 H          -4.5974    8.2202    1.2308 H       1  UNL1        0.0287
     56 H          -6.2846    6.5584    1.2832 H       1  UNL1        0.0560
     57 H          -5.8188    6.6969   -0.4033 H       1  UNL1        0.0560
     58 H          -7.0971    4.3411    0.8599 H       1  UNL1        0.0657
     59 H          -6.6033    4.4304   -0.8174 H       1  UNL1        0.0657
     60 H          -2.7740    1.2872    1.3946 H       1  UNL1        0.1491
     61 H           0.6160    2.3029    2.1013 H       1  UNL1        0.0286
     62 H          -0.7871    1.6859    2.9054 H       1  UNL1        0.0286
     63 H           1.6899    0.6820   -0.2889 H       1  UNL1        0.0840
     64 H           1.9469    0.5364    1.4401 H       1  UNL1        0.0840
     65 H           5.0013   -2.7918   -0.6416 H       1  UNL1        0.0329
     66 H           3.2537   -3.1384   -1.0993 H       1  UNL1        0.0329
     67 H           3.0611   -0.8577   -2.0956 H       1  UNL1        0.0329
     68 H           4.8089   -0.5093   -1.6408 H       1  UNL1        0.0329
     69 H           4.5799    1.2776    0.3704 H       1  UNL1        0.0622
     70 H           5.9735    2.1267    2.2366 H       1  UNL1        0.0618
     71 H           6.5898    0.6463    4.1067 H       1  UNL1        0.0620
     72 H           4.3981   -2.5825    2.2285 H       1  UNL1        0.0625
     73 H           5.6664   -4.0349    5.2682 H       1  UNL1        0.0238
     74 H           5.7290   -3.9388    3.5200 H       1  UNL1        0.0238
     75 H           4.2801   -3.4216    4.3886 H       1  UNL1        0.0238
     76 H           4.3398   -1.2685    5.8186 H       1  UNL1        0.0238
     77 H           5.8534   -0.3988    6.0332 H       1  UNL1        0.0238
     78 H           5.6722   -2.0111    6.6932 H       1  UNL1        0.0238
     79 H           7.7949   -2.7576    5.4102 H       1  UNL1        0.0238
     80 H           7.9620   -1.1457    4.7424 H       1  UNL1        0.0238
     81 H           7.8858   -2.5365    3.6683 H       1  UNL1        0.0238
     82 H          -1.1987   -0.8088    2.1426 H       1  UNL1        0.2101
     83 H          -4.6729   -1.1428   -1.3441 H       1  UNL1        0.0252
     84 H          -4.9307    0.1549   -2.5045 H       1  UNL1        0.0252
     85 H          -6.1380   -0.1750   -1.2667 H       1  UNL1        0.0252
     86 H          -4.0078    3.8641   -1.5834 H       1  UNL1        0.0429
     87 H          -5.4679    3.2839   -2.3905 H       1  UNL1        0.0429
     88 H          -3.9800    2.3972   -2.5422 H       1  UNL1        0.0429
     89 H           1.9458   -1.8348    1.1715 H       1  UNL1        0.2023
     90 H           1.6323   -1.7034   -0.4324 H       1  UNL1        0.2023
@<TRIPOS>BOND
     1     1     2    1
     2     1    43    1
     3     1    44    1
     4     1    45    1
     5     2    39    1
     6     2    19    1
     7     2     3    1
     8     3     4    1
     9     3    46    1
    10     3    47    1
    11     4     5    1
    12     4    48    1
    13     4    49    1
    14     5     6    1
    15     5    50    1
    16     5    51    1
    17     6     7    1
    18     6    52    1
    19     6    53    1
    20     7     8    1
    21     7    54    1
    22     7    55    1
    23     8     9    1
    24     8    56    1
    25     8    57    1
    26     9    10    1
    27    10    11    1
    28    10    58    1
    29    10    59    1
    30    11    12    2
    31    11    13   am
    32    13    14    1
    33    13    38    1
    34    14    40    1
    35    14    15    1
    36    14    37    1
    37    15    16    2
    38    15    17   am
    39    17    18    1
    40    17    60    1
    41    18    41    1
    42    18    19    1
    43    18    20    1
    44    19    61    1
    45    19    62    1
    46    20    42    1
    47    20    21    1
    48    20    36    1
    49    21    22    1
    50    21    63    1
    51    21    64    1
    52    22    23    1
    53    22    89    1
    54    22    90    1
    55    23    25    1
    56    23    24    1
    57    23    26    1
    58    24    25    1
    59    24    65    1
    60    24    66    1
    61    25    67    1
    62    25    68    1
    63    26    31   ar
    64    26    27   ar
    65    27    28   ar
    66    27    69    1
    67    28    29   ar
    68    28    70    1
    69    29    30   ar
    70    29    71    1
    71    30    31   ar
    72    30    32    1
    73    31    72    1
    74    32    33    1
    75    32    34    1
    76    32    35    1
    77    33    73    1
    78    33    74    1
    79    33    75    1
    80    34    76    1
    81    34    77    1
    82    34    78    1
    83    35    79    1
    84    35    80    1
    85    35    81    1
    86    36    82    1
    87    37    83    1
    88    37    84    1
    89    37    85    1
    90    38    86    1
    91    38    87    1
    92    38    88    1
