@<TRIPOS>MOLECULE
BACE_15.smi:1
 82 85 0 0 0
SMALL
GASTEIGER
****
Structure written by MMmdl.
@<TRIPOS>ATOM
      1 C           0.6687    1.8773   -6.0273 C.3     1  UNL1       -0.0586
      2 C          -0.5645    1.9649   -5.1146 C.3     1  UNL1       -0.0215
      3 C          -1.7062    2.7530   -5.7747 C.3     1  UNL1       -0.0586
      4 C          -0.2110    2.5299   -3.7447 C.ar    1  UNL1       -0.0445
      5 C           0.3031    3.8388   -3.6153 C.ar    1  UNL1       -0.0583
      6 C           0.6310    4.3508   -2.3456 C.ar    1  UNL1       -0.0612
      7 C           0.4502    3.5576   -1.1971 C.ar    1  UNL1       -0.0573
      8 C          -0.0595    2.2482   -1.3141 C.ar    1  UNL1       -0.0333
      9 C          -0.3949    1.7418   -2.5884 C.ar    1  UNL1       -0.0539
     10 C          -0.2506    1.3968   -0.0697 C.3     1  UNL1        0.0213
     11 N           0.2961    0.0464   -0.1948 N.3     1  UNL1       -0.3095
     12 C           1.7566   -0.0017   -0.2383 C.3     1  UNL1        0.0240
     13 C           2.2664   -1.4554   -0.3268 C.3     1  UNL1        0.0862
     14 C           3.7875   -1.6023   -0.0558 C.3     1  UNL1        0.0545
     15 C           4.2739   -3.0777   -0.0850 C.3     1  UNL1       -0.0066
     16 C           5.7306   -3.2477    0.3216 C.ar    1  UNL1       -0.0421
     17 C           6.7529   -2.8783   -0.5747 C.ar    1  UNL1       -0.0583
     18 C           8.0998   -2.9803   -0.1846 C.ar    1  UNL1       -0.0580
     19 C           8.4250   -3.4363    1.1064 C.ar    1  UNL1       -0.0199
     20 C           7.4171   -3.8118    2.0182 C.ar    1  UNL1        0.1208
     21 C           6.0632   -3.7375    1.6043 C.ar    1  UNL1       -0.0167
     22 O           7.8421   -4.2070    3.2691 O.3     1  UNL1       -0.4920
     23 C           6.8980   -4.6146    4.2547 C.3     1  UNL1        0.0897
     24 C           7.5456   -4.4028    5.6323 C.3     1  UNL1       -0.0156
     25 C           7.6100   -2.9152    6.0266 C.3     1  UNL1       -0.0156
     26 C           6.3804   -2.4372    6.8245 C.3     1  UNL1        0.0897
     27 O           6.2637   -1.0161    6.7856 O.3     1  UNL1       -0.4919
     28 C           5.7508   -0.4154    5.6521 C.ar    1  UNL1        0.1215
     29 C           5.9194    0.9790    5.5280 C.ar    1  UNL1       -0.0145
     30 C           5.4424    1.6707    4.3946 C.ar    1  UNL1       -0.0178
     31 C           4.7717    0.9636    3.3757 C.ar    1  UNL1       -0.0440
     32 C           4.5848   -0.4303    3.4851 C.ar    1  UNL1        0.0405
     33 C           5.0643   -1.1078    4.6243 C.ar    1  UNL1       -0.0078
     34 C           3.8606   -1.1994    2.4226 C.2     1  UNL1        0.2445
     35 O           3.0633   -2.0884    2.7215 O.2     1  UNL1       -0.2702
     36 N           4.2170   -0.9031    1.1611 N.am    1  UNL1       -0.3057
     37 C           5.6164    3.1745    4.2937 C.3     1  UNL1        0.0725
     38 O           5.8276    3.6009    2.9568 O.3     1  UNL1       -0.3784
     39 C           5.9538    5.0077    2.8472 C.3     1  UNL1        0.0369
     40 O           2.0203   -1.8911   -1.6496 O.3     1  UNL1       -0.3887
     41 H           1.7071   -2.0885    0.3633 H       1  UNL1        0.0624
     42 H           4.3127   -1.0774   -0.8554 H       1  UNL1        0.0527
     43 H           1.4514    1.2718   -5.5694 H       1  UNL1        0.0235
     44 H           1.0873    2.8622   -6.2357 H       1  UNL1        0.0235
     45 H           0.4161    1.4180   -6.9832 H       1  UNL1        0.0235
     46 H          -0.9241    0.9455   -4.9686 H       1  UNL1        0.0343
     47 H          -2.5930    2.7604   -5.1403 H       1  UNL1        0.0235
     48 H          -1.9885    2.3073   -6.7287 H       1  UNL1        0.0235
     49 H          -1.4238    3.7887   -5.9652 H       1  UNL1        0.0235
     50 H           0.4481    4.4559   -4.4895 H       1  UNL1        0.0620
     51 H           1.0234    5.3529   -2.2530 H       1  UNL1        0.0618
     52 H           0.7064    3.9576   -0.2269 H       1  UNL1        0.0621
     53 H          -0.7891    0.7399   -2.6768 H       1  UNL1        0.0623
     54 H           0.1822    1.8990    0.7964 H       1  UNL1        0.0473
     55 H          -1.3226    1.3350    0.1186 H       1  UNL1        0.0473
     56 H          -0.0482   -0.5357    0.5623 H       1  UNL1        0.1223
     57 H           2.1421    0.5832   -1.0745 H       1  UNL1        0.0450
     58 H           2.1375    0.4733    0.6653 H       1  UNL1        0.0450
     59 H           3.6514   -3.6887    0.5696 H       1  UNL1        0.0332
     60 H           4.1461   -3.4932   -1.0852 H       1  UNL1        0.0332
     61 H           6.5053   -2.5051   -1.5577 H       1  UNL1        0.0620
     62 H           8.8839   -2.6944   -0.8700 H       1  UNL1        0.0619
     63 H           9.4620   -3.4928    1.4034 H       1  UNL1        0.0654
     64 H           5.2561   -4.0201    2.2612 H       1  UNL1        0.0657
     65 H           5.9653   -4.0570    4.2259 H       1  UNL1        0.0696
     66 H           6.6607   -5.6675    4.1001 H       1  UNL1        0.0696
     67 H           7.0018   -4.9627    6.3941 H       1  UNL1        0.0299
     68 H           8.5523   -4.8220    5.6157 H       1  UNL1        0.0299
     69 H           8.5005   -2.7354    6.6298 H       1  UNL1        0.0299
     70 H           7.7429   -2.3108    5.1286 H       1  UNL1        0.0299
     71 H           5.4617   -2.9355    6.5186 H       1  UNL1        0.0696
     72 H           6.5108   -2.7263    7.8676 H       1  UNL1        0.0696
     73 H           6.4284    1.5212    6.3116 H       1  UNL1        0.0657
     74 H           4.3908    1.4955    2.5155 H       1  UNL1        0.0628
     75 H           4.8929   -2.1693    4.6803 H       1  UNL1        0.0662
     76 H           4.8957   -0.1662    1.0348 H       1  UNL1        0.1494
     77 H           4.7210    3.6485    4.6988 H       1  UNL1        0.0610
     78 H           6.4591    3.4852    4.9136 H       1  UNL1        0.0610
     79 H           6.1173    5.2808    1.8048 H       1  UNL1        0.0524
     80 H           6.8007    5.3746    3.4287 H       1  UNL1        0.0524
     81 H           5.0490    5.5122    3.1888 H       1  UNL1        0.0524
     82 H           1.1008   -1.7718   -1.8335 H       1  UNL1        0.2099
@<TRIPOS>BOND
     1     1     2    1
     2     1    43    1
     3     1    44    1
     4     1    45    1
     5     2     3    1
     6     2     4    1
     7     2    46    1
     8     3    47    1
     9     3    48    1
    10     3    49    1
    11     4     9   ar
    12     4     5   ar
    13     5     6   ar
    14     5    50    1
    15     6     7   ar
    16     6    51    1
    17     7     8   ar
    18     7    52    1
    19     8     9   ar
    20     8    10    1
    21     9    53    1
    22    10    11    1
    23    10    54    1
    24    10    55    1
    25    11    12    1
    26    11    56    1
    27    12    13    1
    28    12    57    1
    29    12    58    1
    30    13    41    1
    31    13    14    1
    32    13    40    1
    33    14    42    1
    34    14    36    1
    35    14    15    1
    36    15    16    1
    37    15    59    1
    38    15    60    1
    39    16    21   ar
    40    16    17   ar
    41    17    18   ar
    42    17    61    1
    43    18    19   ar
    44    18    62    1
    45    19    20   ar
    46    19    63    1
    47    20    21   ar
    48    20    22    1
    49    21    64    1
    50    22    23    1
    51    23    24    1
    52    23    65    1
    53    23    66    1
    54    24    25    1
    55    24    67    1
    56    24    68    1
    57    25    26    1
    58    25    69    1
    59    25    70    1
    60    26    27    1
    61    26    71    1
    62    26    72    1
    63    27    28    1
    64    28    33   ar
    65    28    29   ar
    66    29    30   ar
    67    29    73    1
    68    30    31   ar
    69    30    37    1
    70    31    32   ar
    71    31    74    1
    72    32    33   ar
    73    32    34    1
    74    33    75    1
    75    34    35    2
    76    34    36   am
    77    36    76    1
    78    37    38    1
    79    37    77    1
    80    37    78    1
    81    38    39    1
    82    39    79    1
    83    39    80    1
    84    39    81    1
    85    40    82    1
