@<TRIPOS>MOLECULE
BACE_5.smi:1
 79 80 0 0 0
SMALL
GASTEIGER
****
Structure written by MMmdl.
@<TRIPOS>ATOM
      1 C          -3.9970   -0.0356   -1.3532 C.3     1  UNL1       -0.0649
      2 C          -4.3970    1.2969   -0.7037 C.3     1  UNL1       -0.0505
      3 C          -3.7512    2.5243   -1.3704 C.3     1  UNL1       -0.0112
      4 C          -2.2634    2.6097   -1.2268 C.ar    1  UNL1        0.0364
      5 C          -1.3946    2.0548   -0.3280 C.ar    1  UNL1       -0.0168
      6 C          -0.1122    2.5296   -0.7317 C.ar    1  UNL1        0.0768
      7 N          -0.1794    3.3276   -1.7866 N.ar    1  UNL1       -0.1774
      8 N          -1.4934    3.3723   -2.0750 N.ar    1  UNL1       -0.2813
      9 C           1.2251    2.2296   -0.1125 C.3     1  UNL1        0.0403
     10 N           1.4366    0.7997    0.0975 N.3     1  UNL1       -0.3080
     11 C           1.7158    0.0459   -1.1258 C.3     1  UNL1        0.0240
     12 C           1.9725   -1.4510   -0.8421 C.3     1  UNL1        0.0859
     13 C           3.4029   -1.7770   -0.3317 C.3     1  UNL1        0.0505
     14 C           3.7258   -3.2833   -0.1082 C.3     1  UNL1       -0.0295
     15 C           2.8052   -4.1549    0.7915 C.3     1  UNL1       -0.0421
     16 C           2.4486   -3.4891    2.1341 C.3     1  UNL1       -0.0504
     17 C           1.7842   -4.4177    3.1662 C.3     1  UNL1       -0.0528
     18 C           1.5590   -3.7246    4.5194 C.3     1  UNL1       -0.0530
     19 C           0.4125   -2.6951    4.4993 C.3     1  UNL1       -0.0510
     20 C           0.3375   -1.8152    5.7585 C.3     1  UNL1       -0.0294
     21 C           1.2856   -0.6050    5.7283 C.3     1  UNL1        0.0483
     22 O           2.6364   -1.0325    5.8472 O.3     1  UNL1       -0.3706
     23 C           3.5980    0.0162    5.8893 C.3     1  UNL1        0.1238
     24 C           3.8059    0.6433    4.4976 C.2     1  UNL1        0.2417
     25 O           3.2752    1.7340    4.2838 O.2     1  UNL1       -0.2731
     26 N           4.5664    0.0015    3.5707 N.am    1  UNL1       -0.2914
     27 C           4.9029    0.6481    2.2795 C.3     1  UNL1        0.0991
     28 C           4.8406   -0.2403    1.0222 C.2     1  UNL1        0.2336
     29 O           5.7726   -0.2371    0.2177 O.2     1  UNL1       -0.2738
     30 N           3.7336   -0.9837    0.8562 N.am    1  UNL1       -0.3084
     31 C           6.1762    1.5048    2.4220 C.3     1  UNL1       -0.0379
     32 C           5.2344   -1.2700    3.8851 C.3     1  UNL1        0.0040
     33 C           1.5742   -4.7047    0.0444 C.3     1  UNL1       -0.0624
     34 O           1.7905   -2.1227   -2.0724 O.3     1  UNL1       -0.3887
     35 H          -1.8472    3.9174   -2.8484 H       1  UNL1        0.1885
     36 H           1.2169   -1.8046   -0.1432 H       1  UNL1        0.0624
     37 H           4.0729   -1.4553   -1.1314 H       1  UNL1        0.0524
     38 H           3.4048   -5.0336    1.0333 H       1  UNL1        0.0299
     39 H           4.1149    1.3669    2.0475 H       1  UNL1        0.0594
     40 H          -4.5036   -0.8699   -0.8680 H       1  UNL1        0.0230
     41 H          -2.9243   -0.2142   -1.2785 H       1  UNL1        0.0230
     42 H          -4.2657   -0.0536   -2.4097 H       1  UNL1        0.0230
     43 H          -5.4812    1.3969   -0.7622 H       1  UNL1        0.0266
     44 H          -4.1535    1.2787    0.3593 H       1  UNL1        0.0266
     45 H          -4.0165    2.5391   -2.4280 H       1  UNL1        0.0328
     46 H          -4.1913    3.4250   -0.9423 H       1  UNL1        0.0328
     47 H          -1.6347    1.3983    0.4950 H       1  UNL1        0.0654
     48 H           1.2813    2.7368    0.8509 H       1  UNL1        0.0489
     49 H           2.0363    2.6450   -0.7120 H       1  UNL1        0.0489
     50 H           2.1845    0.6608    0.7690 H       1  UNL1        0.1224
     51 H           0.8633    0.1428   -1.7996 H       1  UNL1        0.0450
     52 H           2.5709    0.4741   -1.6506 H       1  UNL1        0.0450
     53 H           3.8089   -3.7669   -1.0821 H       1  UNL1        0.0286
     54 H           4.7351   -3.3389    0.3026 H       1  UNL1        0.0286
     55 H           3.3652   -3.0988    2.5736 H       1  UNL1        0.0268
     56 H           1.8068   -2.6298    1.9503 H       1  UNL1        0.0268
     57 H           0.8341   -4.7982    2.7908 H       1  UNL1        0.0265
     58 H           2.4241   -5.2871    3.3206 H       1  UNL1        0.0265
     59 H           1.3346   -4.4790    5.2742 H       1  UNL1        0.0265
     60 H           2.4936   -3.2639    4.8337 H       1  UNL1        0.0265
     61 H           0.4776   -2.0486    3.6252 H       1  UNL1        0.0266
     62 H          -0.5271   -3.2381    4.3923 H       1  UNL1        0.0266
     63 H          -0.6805   -1.4330    5.8403 H       1  UNL1        0.0287
     64 H           0.5048   -2.4124    6.6555 H       1  UNL1        0.0287
     65 H           1.1295   -0.0349    4.8118 H       1  UNL1        0.0560
     66 H           1.0463    0.0568    6.5619 H       1  UNL1        0.0560
     67 H           3.2887    0.7826    6.6020 H       1  UNL1        0.0657
     68 H           4.5382   -0.3770    6.2742 H       1  UNL1        0.0657
     69 H           3.0301   -0.9450    1.5796 H       1  UNL1        0.1491
     70 H           6.4021    2.0428    1.5006 H       1  UNL1        0.0252
     71 H           7.0414    0.8887    2.6689 H       1  UNL1        0.0252
     72 H           6.0638    2.2502    3.2099 H       1  UNL1        0.0252
     73 H           6.0046   -1.1137    4.6409 H       1  UNL1        0.0429
     74 H           5.7334   -1.7204    3.0281 H       1  UNL1        0.0429
     75 H           4.5289   -2.0078    4.2657 H       1  UNL1        0.0429
     76 H           0.8002   -3.9538   -0.0988 H       1  UNL1        0.0232
     77 H           1.1197   -5.5300    0.5921 H       1  UNL1        0.0232
     78 H           1.8478   -5.0926   -0.9371 H       1  UNL1        0.0232
     79 H           2.4276   -1.7961   -2.6891 H       1  UNL1        0.2099
@<TRIPOS>BOND
     1     1     2    1
     2     1    40    1
     3     1    41    1
     4     1    42    1
     5     2     3    1
     6     2    43    1
     7     2    44    1
     8     3    45    1
     9     3    46    1
    10     3     4    1
    11     4     8   ar
    12     4     5   ar
    13     5     6   ar
    14     5    47    1
    15     6     9    1
    16     6     7   ar
    17     7     8   ar
    18     8    35    1
    19     9    10    1
    20     9    48    1
    21     9    49    1
    22    10    11    1
    23    10    50    1
    24    11    12    1
    25    11    51    1
    26    11    52    1
    27    12    36    1
    28    12    13    1
    29    12    34    1
    30    13    37    1
    31    13    30    1
    32    13    14    1
    33    14    15    1
    34    14    53    1
    35    14    54    1
    36    15    38    1
    37    15    16    1
    38    15    33    1
    39    16    17    1
    40    16    55    1
    41    16    56    1
    42    17    18    1
    43    17    57    1
    44    17    58    1
    45    18    19    1
    46    18    59    1
    47    18    60    1
    48    19    20    1
    49    19    61    1
    50    19    62    1
    51    20    21    1
    52    20    63    1
    53    20    64    1
    54    21    22    1
    55    21    65    1
    56    21    66    1
    57    22    23    1
    58    23    24    1
    59    23    67    1
    60    23    68    1
    61    24    25    2
    62    24    26   am
    63    26    27    1
    64    26    32    1
    65    27    39    1
    66    27    28    1
    67    27    31    1
    68    28    29    2
    69    28    30   am
    70    30    69    1
    71    31    70    1
    72    31    71    1
    73    31    72    1
    74    32    73    1
    75    32    74    1
    76    32    75    1
    77    33    76    1
    78    33    77    1
    79    33    78    1
    80    34    79    1
