@<TRIPOS>MOLECULE
BACE_18.smi:1
 66 67 0 0 0
SMALL
GASTEIGER
****
Structure written by MMmdl.
@<TRIPOS>ATOM
      1 O          -1.9275   -0.8394   -1.9685 O.3     1  UNL1       -0.3924
      2 C          -0.5485   -0.5595   -1.8425 C.3     1  UNL1        0.0719
      3 C          -0.2066   -0.1966   -0.3811 C.3     1  UNL1        0.0965
      4 O          -0.7696    1.0826   -0.1452 O.3     1  UNL1       -0.3877
      5 C           1.3195   -0.1293   -0.0902 C.3     1  UNL1        0.0517
      6 N           1.6863    0.5823    1.1479 N.am    1  UNL1       -0.3059
      7 C           1.4734    0.3178    2.4538 C.2     1  UNL1        0.2445
      8 O           2.0853    0.9263    3.3287 O.2     1  UNL1       -0.2702
      9 C           2.0581   -1.4912   -0.2118 C.3     1  UNL1       -0.0294
     10 C           3.6087   -1.4566   -0.1081 C.3     1  UNL1       -0.0421
     11 C           4.2363   -0.3254   -0.9469 C.3     1  UNL1       -0.0624
     12 C           4.2355   -2.8017   -0.5527 C.3     1  UNL1       -0.0504
     13 C           4.0145   -3.9984    0.3885 C.3     1  UNL1       -0.0528
     14 C           4.8957   -3.9489    1.6505 C.3     1  UNL1       -0.0530
     15 C           4.7722   -5.1932    2.5538 C.3     1  UNL1       -0.0530
     16 C           3.8958   -4.9828    3.7997 C.3     1  UNL1       -0.0500
     17 C           2.3997   -4.8320    3.4933 C.3     1  UNL1       -0.0186
     18 C           1.5944   -4.3998    4.7295 C.3     1  UNL1        0.0896
     19 O           0.2398   -4.1182    4.3965 O.3     1  UNL1       -0.4919
     20 C          -0.0768   -2.8942    3.8415 C.ar    1  UNL1        0.1219
     21 C           0.8730   -1.9202    3.4389 C.ar    1  UNL1       -0.0078
     22 C           0.4561   -0.7046    2.8605 C.ar    1  UNL1        0.0409
     23 C          -1.4477   -2.6140    3.6738 C.ar    1  UNL1       -0.0078
     24 C          -1.8805   -1.3727    3.1633 C.ar    1  UNL1        0.0410
     25 C          -0.9205   -0.4200    2.7625 C.ar    1  UNL1       -0.0373
     26 C          -3.3498   -1.1080    2.9879 C.2     1  UNL1        0.2463
     27 O          -4.0265   -1.9255    2.3625 O.2     1  UNL1       -0.2700
     28 N          -3.8737    0.0214    3.5242 N.am    1  UNL1       -0.3036
     29 C          -5.2650    0.3925    3.2599 C.3     1  UNL1        0.0031
     30 C          -3.1751    0.8927    4.4744 C.3     1  UNL1        0.0031
     31 H          -0.6732   -0.9354    0.2669 H       1  UNL1        0.0635
     32 H           1.7113    0.5132   -0.8783 H       1  UNL1        0.0525
     33 H           3.8804   -1.2691    0.9308 H       1  UNL1        0.0299
     34 H          -2.1076   -1.0714   -2.8666 H       1  UNL1        0.2095
     35 H          -0.0242   -1.4555   -2.1677 H       1  UNL1        0.0583
     36 H          -0.2678    0.2407   -2.5286 H       1  UNL1        0.0583
     37 H          -0.3783    1.6985   -0.7453 H       1  UNL1        0.2100
     38 H           2.3274    1.3461    0.9894 H       1  UNL1        0.1494
     39 H           1.6610   -2.1763    0.5375 H       1  UNL1        0.0286
     40 H           1.8121   -1.9398   -1.1716 H       1  UNL1        0.0286
     41 H           3.9381   -0.3953   -1.9934 H       1  UNL1        0.0232
     42 H           5.3253   -0.3643   -0.9099 H       1  UNL1        0.0232
     43 H           3.9535    0.6603   -0.5792 H       1  UNL1        0.0232
     44 H           3.8510   -3.0578   -1.5409 H       1  UNL1        0.0268
     45 H           5.3106   -2.6800   -0.6910 H       1  UNL1        0.0268
     46 H           2.9599   -4.0933    0.6372 H       1  UNL1        0.0265
     47 H           4.2653   -4.9064   -0.1610 H       1  UNL1        0.0265
     48 H           5.9352   -3.8651    1.3311 H       1  UNL1        0.0265
     49 H           4.6932   -3.0448    2.2251 H       1  UNL1        0.0265
     50 H           4.4280   -6.0573    1.9843 H       1  UNL1        0.0265
     51 H           5.7722   -5.4542    2.9021 H       1  UNL1        0.0265
     52 H           4.0315   -5.8256    4.4783 H       1  UNL1        0.0266
     53 H           4.2533   -4.1045    4.3388 H       1  UNL1        0.0266
     54 H           2.2672   -4.0974    2.7051 H       1  UNL1        0.0298
     55 H           2.0021   -5.7676    3.0991 H       1  UNL1        0.0298
     56 H           1.5945   -5.2118    5.4571 H       1  UNL1        0.0696
     57 H           2.0535   -3.5506    5.2378 H       1  UNL1        0.0696
     58 H           1.9332   -2.0863    3.5531 H       1  UNL1        0.0662
     59 H          -2.1755   -3.3572    3.9673 H       1  UNL1        0.0662
     60 H          -1.2420    0.5290    2.3597 H       1  UNL1        0.0633
     61 H          -5.5325    0.2277    2.2151 H       1  UNL1        0.0428
     62 H          -5.4477    1.4474    3.4690 H       1  UNL1        0.0428
     63 H          -5.9385   -0.1973    3.8826 H       1  UNL1        0.0428
     64 H          -2.4943    0.3355    5.1196 H       1  UNL1        0.0428
     65 H          -3.8769    1.4033    5.1351 H       1  UNL1        0.0428
     66 H          -2.6050    1.6564    3.9447 H       1  UNL1        0.0428
@<TRIPOS>BOND
     1     1     2    1
     2     1    34    1
     3     2     3    1
     4     2    35    1
     5     2    36    1
     6     3    31    1
     7     3     4    1
     8     3     5    1
     9     4    37    1
    10     5    32    1
    11     5     6    1
    12     5     9    1
    13     6     7   am
    14     6    38    1
    15     7    22    1
    16     7     8    2
    17     9    10    1
    18     9    39    1
    19     9    40    1
    20    10    33    1
    21    10    11    1
    22    10    12    1
    23    11    41    1
    24    11    42    1
    25    11    43    1
    26    12    13    1
    27    12    44    1
    28    12    45    1
    29    13    14    1
    30    13    46    1
    31    13    47    1
    32    14    15    1
    33    14    48    1
    34    14    49    1
    35    15    16    1
    36    15    50    1
    37    15    51    1
    38    16    17    1
    39    16    52    1
    40    16    53    1
    41    17    18    1
    42    17    54    1
    43    17    55    1
    44    18    19    1
    45    18    56    1
    46    18    57    1
    47    19    20    1
    48    20    21   ar
    49    20    23   ar
    50    21    22   ar
    51    21    58    1
    52    22    25   ar
    53    23    24   ar
    54    23    59    1
    55    24    25   ar
    56    24    26    1
    57    25    60    1
    58    26    27    2
    59    26    28   am
    60    28    29    1
    61    28    30    1
    62    29    61    1
    63    29    62    1
    64    29    63    1
    65    30    64    1
    66    30    65    1
    67    30    66    1
