@<TRIPOS>MOLECULE
BACE_11.smi:1
 80 82 0 0 0
SMALL
GASTEIGER
****
Structure written by MMmdl.
@<TRIPOS>ATOM
      1 C          -1.9699   -1.0817   -4.0000 C.3     1  UNL1       -0.0379
      2 C          -1.3602    0.3256   -3.8577 C.3     1  UNL1        0.0991
      3 C          -1.4263    0.9203   -2.4336 C.2     1  UNL1        0.2336
      4 O          -2.4712    0.8188   -1.7916 O.2     1  UNL1       -0.2738
      5 N          -0.3545    1.5907   -1.9720 N.am    1  UNL1       -0.3081
      6 C          -0.2676    2.4196   -0.7635 C.3     1  UNL1        0.0542
      7 C          -1.0188    3.7605   -0.9590 C.3     1  UNL1       -0.0066
      8 C          -0.5084    4.5630   -2.1478 C.ar    1  UNL1       -0.0421
      9 C           0.4559    5.5734   -1.9597 C.ar    1  UNL1       -0.0583
     10 C           0.9495    6.2904   -3.0660 C.ar    1  UNL1       -0.0580
     11 C           0.4996    5.9883   -4.3663 C.ar    1  UNL1       -0.0199
     12 C          -0.4591    4.9650   -4.5694 C.ar    1  UNL1        0.1208
     13 C          -0.9746    4.2850   -3.4497 C.ar    1  UNL1       -0.0167
     14 O          -0.9255    4.5624   -5.8009 O.3     1  UNL1       -0.4920
     15 C          -0.3569    5.1363   -6.9668 C.3     1  UNL1        0.0896
     16 C          -0.8044    4.3334   -8.1984 C.3     1  UNL1       -0.0186
     17 C          -0.0552    2.9970   -8.3921 C.3     1  UNL1       -0.0495
     18 C          -0.8834    1.7221   -8.1181 C.3     1  UNL1       -0.0447
     19 C          -1.1415    1.3654   -6.6363 C.3     1  UNL1        0.0242
     20 C           0.0879    0.8642   -5.8472 C.2     1  UNL1        0.2159
     21 O           1.1901    0.8762   -6.3990 O.2     1  UNL1       -0.2756
     22 N          -0.0635    0.4068   -4.5749 N.am    1  UNL1       -0.2932
     23 C           1.1073   -0.1818   -3.9070 C.3     1  UNL1        0.0039
     24 C          -0.6642    1.6793    0.5461 C.3     1  UNL1        0.0862
     25 C          -0.1214    0.2418    0.7038 C.3     1  UNL1        0.0240
     26 N           1.3128    0.1582    0.4378 N.3     1  UNL1       -0.3095
     27 C           1.8312   -1.2046    0.4801 C.3     1  UNL1        0.0213
     28 C           3.2982   -1.2724    0.1028 C.ar    1  UNL1       -0.0333
     29 C           4.2317   -1.8613    0.9798 C.ar    1  UNL1       -0.0573
     30 C           5.5914   -1.9292    0.6201 C.ar    1  UNL1       -0.0612
     31 C           6.0220   -1.4112   -0.6167 C.ar    1  UNL1       -0.0583
     32 C           5.0947   -0.8202   -1.5030 C.ar    1  UNL1       -0.0445
     33 C           3.7342   -0.7568   -1.1357 C.ar    1  UNL1       -0.0539
     34 C           5.5461   -0.2533   -2.8432 C.3     1  UNL1       -0.0215
     35 C           6.1117   -1.3487   -3.7600 C.3     1  UNL1       -0.0586
     36 C           6.5383    0.9060   -2.6630 C.3     1  UNL1       -0.0586
     37 O          -0.2354    2.4178    1.6729 O.3     1  UNL1       -0.3887
     38 H          -2.0729    0.9800   -4.3544 H       1  UNL1        0.0594
     39 H           0.7928    2.6626   -0.6802 H       1  UNL1        0.0527
     40 H          -1.7514    1.6326    0.6108 H       1  UNL1        0.0624
     41 H          -2.9628   -1.1382   -3.5526 H       1  UNL1        0.0252
     42 H          -1.3465   -1.8341   -3.5160 H       1  UNL1        0.0252
     43 H          -2.0724   -1.3626   -5.0484 H       1  UNL1        0.0252
     44 H           0.4565    1.6120   -2.5732 H       1  UNL1        0.1491
     45 H          -2.0872    3.5810   -1.0852 H       1  UNL1        0.0332
     46 H          -0.9248    4.3754   -0.0633 H       1  UNL1        0.0332
     47 H           0.8223    5.7990   -0.9689 H       1  UNL1        0.0620
     48 H           1.6855    7.0670   -2.9186 H       1  UNL1        0.0619
     49 H           0.9083    6.5513   -5.1915 H       1  UNL1        0.0654
     50 H          -1.7156    3.5148   -3.6023 H       1  UNL1        0.0657
     51 H          -0.7006    6.1679   -7.0532 H       1  UNL1        0.0696
     52 H           0.7330    5.1517   -6.9219 H       1  UNL1        0.0696
     53 H          -1.8845    4.1838   -8.1862 H       1  UNL1        0.0298
     54 H          -0.6075    4.9519   -9.0749 H       1  UNL1        0.0298
     55 H           0.2522    2.9503   -9.4374 H       1  UNL1        0.0266
     56 H           0.8783    2.9923   -7.8306 H       1  UNL1        0.0266
     57 H          -1.8412    1.8081   -8.6321 H       1  UNL1        0.0270
     58 H          -0.3856    0.8765   -8.5950 H       1  UNL1        0.0270
     59 H          -1.5871    2.2173   -6.1275 H       1  UNL1        0.0358
     60 H          -1.8886    0.5717   -6.6191 H       1  UNL1        0.0358
     61 H           1.8388    0.5919   -3.6704 H       1  UNL1        0.0429
     62 H           1.5925   -0.9262   -4.5406 H       1  UNL1        0.0429
     63 H           0.8432   -0.6914   -2.9798 H       1  UNL1        0.0429
     64 H          -0.3435   -0.1345    1.7033 H       1  UNL1        0.0450
     65 H          -0.6532   -0.4137    0.0139 H       1  UNL1        0.0450
     66 H           1.5127    0.5672   -0.4693 H       1  UNL1        0.1223
     67 H           1.6872   -1.6296    1.4742 H       1  UNL1        0.0473
     68 H           1.2777   -1.8374   -0.2151 H       1  UNL1        0.0473
     69 H           3.9095   -2.2624    1.9297 H       1  UNL1        0.0621
     70 H           6.3056   -2.3796    1.2936 H       1  UNL1        0.0618
     71 H           7.0675   -1.4699   -0.8812 H       1  UNL1        0.0620
     72 H           3.0173   -0.3074   -1.8052 H       1  UNL1        0.0623
     73 H           4.6663    0.1560   -3.3423 H       1  UNL1        0.0343
     74 H           5.3774   -2.1379   -3.9248 H       1  UNL1        0.0235
     75 H           7.0052   -1.8075   -3.3357 H       1  UNL1        0.0235
     76 H           6.3811   -0.9422   -4.7353 H       1  UNL1        0.0235
     77 H           6.1061    1.6989   -2.0514 H       1  UNL1        0.0235
     78 H           6.8080    1.3428   -3.6249 H       1  UNL1        0.0235
     79 H           7.4594    0.5774   -2.1808 H       1  UNL1        0.0235
     80 H           0.7095    2.4070    1.6929 H       1  UNL1        0.2099
@<TRIPOS>BOND
     1     1     2    1
     2     1    41    1
     3     1    42    1
     4     1    43    1
     5     2    38    1
     6     2    22    1
     7     2     3    1
     8     3     4    2
     9     3     5   am
    10     5     6    1
    11     5    44    1
    12     6    39    1
    13     6     7    1
    14     6    24    1
    15     7     8    1
    16     7    45    1
    17     7    46    1
    18     8    13   ar
    19     8     9   ar
    20     9    10   ar
    21     9    47    1
    22    10    11   ar
    23    10    48    1
    24    11    12   ar
    25    11    49    1
    26    12    13   ar
    27    12    14    1
    28    13    50    1
    29    14    15    1
    30    15    16    1
    31    15    51    1
    32    15    52    1
    33    16    17    1
    34    16    53    1
    35    16    54    1
    36    17    18    1
    37    17    55    1
    38    17    56    1
    39    18    19    1
    40    18    57    1
    41    18    58    1
    42    19    20    1
    43    19    59    1
    44    19    60    1
    45    20    21    2
    46    20    22   am
    47    22    23    1
    48    23    61    1
    49    23    62    1
    50    23    63    1
    51    24    40    1
    52    24    25    1
    53    24    37    1
    54    25    26    1
    55    25    64    1
    56    25    65    1
    57    26    27    1
    58    26    66    1
    59    27    28    1
    60    27    67    1
    61    27    68    1
    62    28    33   ar
    63    28    29   ar
    64    29    30   ar
    65    29    69    1
    66    30    31   ar
    67    30    70    1
    68    31    32   ar
    69    31    71    1
    70    32    33   ar
    71    32    34    1
    72    33    72    1
    73    34    35    1
    74    34    36    1
    75    34    73    1
    76    35    74    1
    77    35    75    1
    78    35    76    1
    79    36    77    1
    80    36    78    1
    81    36    79    1
    82    37    80    1
