@<TRIPOS>MOLECULE
BACE_10.smi:1
 86 88 0 0 0
SMALL
GASTEIGER
****
Structure written by MMmdl.
@<TRIPOS>ATOM
      1 C          -0.2187    4.6100   -3.1909 C.3     1  UNL1       -0.0623
      2 C          -0.5910    3.9273   -1.8610 C.3     1  UNL1       -0.0400
      3 C          -0.4846    4.9052   -0.6645 C.3     1  UNL1       -0.0268
      4 C          -1.3834    6.1487   -0.7713 C.3     1  UNL1        0.0479
      5 O          -2.7352    5.7366   -0.9091 O.3     1  UNL1       -0.3797
      6 C          -3.5472    6.0133    0.2198 C.3     1  UNL1        0.0477
      7 C          -4.9146    5.3453    0.0147 C.3     1  UNL1       -0.0281
      8 C          -4.8813    3.8200    0.2097 C.3     1  UNL1       -0.0354
      9 C          -4.9024    3.4149    1.6927 C.3     1  UNL1        0.0092
     10 N          -4.8196    1.9719    1.8740 N.pl3   1  UNL1       -0.3438
     11 C          -3.5977    1.3819    2.2294 C.ar    1  UNL1        0.0282
     12 C          -3.6275    0.1549    2.9233 C.ar    1  UNL1       -0.0355
     13 C          -2.4308   -0.4685    3.3358 C.ar    1  UNL1       -0.0195
     14 C          -1.1929    0.1277    3.0236 C.ar    1  UNL1       -0.0442
     15 C          -1.1458    1.3355    2.2974 C.ar    1  UNL1        0.0388
     16 C          -2.3494    1.9685    1.9192 C.ar    1  UNL1       -0.0287
     17 C           0.1806    1.9598    1.9833 C.2     1  UNL1        0.2444
     18 O           0.9496    2.2492    2.8968 O.2     1  UNL1       -0.2702
     19 N           0.5097    2.1742    0.6955 N.am    1  UNL1       -0.3058
     20 C          -0.1594    1.7098   -0.5266 C.3     1  UNL1        0.0545
     21 C           0.2578    2.6434   -1.6906 C.3     1  UNL1       -0.0292
     22 C           0.1868    0.2224   -0.8404 C.3     1  UNL1        0.1130
     23 C           1.6124   -0.2221   -0.4571 C.3     1  UNL1       -0.0050
     24 N           1.9004   -1.5860   -0.9496 N.4     1  UNL1        0.2321
     25 C           3.2308   -2.1176   -0.5836 C.3     1  UNL1       -0.0076
     26 C           3.3908   -2.2615    0.9197 C.ar    1  UNL1       -0.0027
     27 C           4.2372   -1.3866    1.6322 C.ar    1  UNL1       -0.0535
     28 C           4.3581   -1.5048    3.0295 C.ar    1  UNL1       -0.0611
     29 C           3.6322   -2.4945    3.7192 C.ar    1  UNL1       -0.0583
     30 C           2.7821   -3.3749    3.0159 C.ar    1  UNL1       -0.0444
     31 C           2.6699   -3.2557    1.6132 C.ar    1  UNL1       -0.0501
     32 C           1.9839   -4.4296    3.7713 C.3     1  UNL1       -0.0215
     33 C           2.3524   -5.8538    3.3270 C.3     1  UNL1       -0.0586
     34 C           0.4734   -4.1722    3.6612 C.3     1  UNL1       -0.0586
     35 O          -0.7553   -0.6190   -0.2045 O.3     1  UNL1       -0.3847
     36 C          -2.4574   -1.7910    4.0800 C.3     1  UNL1        0.0724
     37 O          -3.6656   -1.9955    4.7944 O.3     1  UNL1       -0.3784
     38 C          -3.6913   -3.2415    5.4685 C.3     1  UNL1        0.0369
     39 H          -1.6322    3.6132   -1.9450 H       1  UNL1        0.0299
     40 H          -1.2414    1.7972   -0.4402 H       1  UNL1        0.0526
     41 H           0.0422    0.0406   -1.9057 H       1  UNL1        0.0666
     42 H           0.7911    5.0199   -3.1564 H       1  UNL1        0.0232
     43 H          -0.9029    5.4217   -3.4362 H       1  UNL1        0.0232
     44 H          -0.2623    3.9072   -4.0232 H       1  UNL1        0.0232
     45 H          -0.7625    4.3947    0.2555 H       1  UNL1        0.0290
     46 H           0.5522    5.2189   -0.5382 H       1  UNL1        0.0290
     47 H          -1.2385    6.7926    0.0984 H       1  UNL1        0.0560
     48 H          -1.1095    6.7540   -1.6346 H       1  UNL1        0.0560
     49 H          -3.0762    5.6569    1.1369 H       1  UNL1        0.0560
     50 H          -3.6681    7.0934    0.3123 H       1  UNL1        0.0560
     51 H          -5.6438    5.7805    0.6991 H       1  UNL1        0.0288
     52 H          -5.2718    5.5774   -0.9892 H       1  UNL1        0.0288
     53 H          -5.7518    3.3828   -0.2808 H       1  UNL1        0.0281
     54 H          -4.0091    3.4007   -0.2936 H       1  UNL1        0.0281
     55 H          -4.1106    3.9163    2.2492 H       1  UNL1        0.0461
     56 H          -5.8369    3.7500    2.1433 H       1  UNL1        0.0461
     57 H          -5.6615    1.5055    2.1808 H       1  UNL1        0.1461
     58 H          -4.5790   -0.3028    3.1524 H       1  UNL1        0.0639
     59 H          -0.2750   -0.3546    3.3293 H       1  UNL1        0.0628
     60 H          -2.3029    2.9050    1.3832 H       1  UNL1        0.0643
     61 H           1.3920    2.6416    0.5456 H       1  UNL1        0.1494
     62 H           0.1709    2.0899   -2.6257 H       1  UNL1        0.0286
     63 H           1.3160    2.8982   -1.6122 H       1  UNL1        0.0286
     64 H           2.3448    0.4641   -0.8840 H       1  UNL1        0.0840
     65 H           1.7344   -0.1923    0.6257 H       1  UNL1        0.0840
     66 H           1.1972   -2.2074   -0.5753 H       1  UNL1        0.2018
     67 H           3.3582   -3.0955   -1.0490 H       1  UNL1        0.0866
     68 H           4.0087   -1.4703   -0.9910 H       1  UNL1        0.0866
     69 H           4.7910   -0.6180    1.1129 H       1  UNL1        0.0622
     70 H           5.0043   -0.8318    3.5743 H       1  UNL1        0.0618
     71 H           3.7287   -2.5703    4.7925 H       1  UNL1        0.0620
     72 H           2.0161   -3.9196    1.0666 H       1  UNL1        0.0625
     73 H           2.2452   -4.3482    4.8273 H       1  UNL1        0.0343
     74 H           3.4191   -6.0397    3.4556 H       1  UNL1        0.0235
     75 H           2.1074   -6.0271    2.2789 H       1  UNL1        0.0235
     76 H           1.8165   -6.5979    3.9172 H       1  UNL1        0.0235
     77 H           0.2253   -3.1755    4.0251 H       1  UNL1        0.0235
     78 H          -0.0930   -4.8900    4.2549 H       1  UNL1        0.0235
     79 H           0.1246   -4.2465    2.6309 H       1  UNL1        0.0235
     80 H          -1.6248   -0.3417   -0.4526 H       1  UNL1        0.2101
     81 H          -2.3107   -2.5935    3.3557 H       1  UNL1        0.0610
     82 H          -1.6187   -1.8203    4.7772 H       1  UNL1        0.0610
     83 H          -4.6317   -3.3466    6.0095 H       1  UNL1        0.0524
     84 H          -2.8773   -3.3169    6.1908 H       1  UNL1        0.0524
     85 H          -3.6127   -4.0712    4.7650 H       1  UNL1        0.0524
     86 H           1.8214   -1.5830   -1.9563 H       1  UNL1        0.2018
@<TRIPOS>BOND
     1     1     2    1
     2     1    42    1
     3     1    43    1
     4     1    44    1
     5     2    39    1
     6     2    21    1
     7     2     3    1
     8     3     4    1
     9     3    45    1
    10     3    46    1
    11     4     5    1
    12     4    47    1
    13     4    48    1
    14     5     6    1
    15     6     7    1
    16     6    49    1
    17     6    50    1
    18     7     8    1
    19     7    51    1
    20     7    52    1
    21     8     9    1
    22     8    53    1
    23     8    54    1
    24     9    10    1
    25     9    55    1
    26     9    56    1
    27    10    11    1
    28    10    57    1
    29    11    16   ar
    30    11    12   ar
    31    12    13   ar
    32    12    58    1
    33    13    14   ar
    34    13    36    1
    35    14    15   ar
    36    14    59    1
    37    15    16   ar
    38    15    17    1
    39    16    60    1
    40    17    18    2
    41    17    19   am
    42    19    20    1
    43    19    61    1
    44    20    40    1
    45    20    21    1
    46    20    22    1
    47    21    62    1
    48    21    63    1
    49    22    41    1
    50    22    23    1
    51    22    35    1
    52    23    24    1
    53    23    64    1
    54    23    65    1
    55    24    25    1
    56    24    66    1
    57    24    86    1
    58    25    26    1
    59    25    67    1
    60    25    68    1
    61    26    31   ar
    62    26    27   ar
    63    27    28   ar
    64    27    69    1
    65    28    29   ar
    66    28    70    1
    67    29    30   ar
    68    29    71    1
    69    30    31   ar
    70    30    32    1
    71    31    72    1
    72    32    33    1
    73    32    34    1
    74    32    73    1
    75    33    74    1
    76    33    75    1
    77    33    76    1
    78    34    77    1
    79    34    78    1
    80    34    79    1
    81    35    80    1
    82    36    37    1
    83    36    81    1
    84    36    82    1
    85    37    38    1
    86    38    83    1
    87    38    84    1
    88    38    85    1
