@<TRIPOS>MOLECULE
BACE_7.smi:1
 98 102 0 0 0
SMALL
GASTEIGER
****
Structure written by MMmdl.
@<TRIPOS>ATOM
      1 C           0.0420    4.4734    0.2528 C.3     1  UNL1       -0.0624
      2 C          -0.4687    3.7759    1.5256 C.3     1  UNL1       -0.0421
      3 C          -0.3557    4.7085    2.7572 C.3     1  UNL1       -0.0504
      4 C          -1.5899    5.6148    2.9488 C.3     1  UNL1       -0.0528
      5 C          -2.7705    4.8708    3.5999 C.3     1  UNL1       -0.0516
      6 C          -4.1152    5.6114    3.5008 C.3     1  UNL1       -0.0371
      7 C          -5.3119    4.8280    4.0941 C.3     1  UNL1        0.0156
      8 N          -5.5640    3.5386    3.4191 N.am    1  UNL1       -0.2907
      9 C          -6.0474    3.5306    2.1491 C.2     1  UNL1        0.2471
     10 O          -6.6300    4.4866    1.6370 O.2     1  UNL1       -0.2700
     11 C          -5.6988    2.3541    1.2866 C.ar    1  UNL1        0.0384
     12 C          -6.6978    1.5524    0.6991 C.ar    1  UNL1       -0.0373
     13 C          -6.3391    0.4638   -0.1295 C.ar    1  UNL1        0.0383
     14 C          -4.9724    0.1931   -0.3784 C.ar    1  UNL1       -0.0373
     15 C          -3.9657    0.9990    0.1964 C.ar    1  UNL1        0.0381
     16 C          -4.3460    2.0817    1.0164 C.ar    1  UNL1       -0.0375
     17 C          -2.5128    0.7646   -0.1090 C.2     1  UNL1        0.2444
     18 O          -2.1497    0.3094   -1.1933 O.2     1  UNL1       -0.2702
     19 N          -1.6731    1.0985    0.8846 N.am    1  UNL1       -0.3060
     20 C          -0.2262    1.2770    0.7880 C.3     1  UNL1        0.0508
     21 C           0.2247    2.4073    1.7538 C.3     1  UNL1       -0.0295
     22 C           0.5055   -0.0743    0.9862 C.3     1  UNL1        0.0859
     23 C           2.0038    0.0189    0.6442 C.3     1  UNL1        0.0240
     24 N           2.5581   -1.2928    0.3153 N.3     1  UNL1       -0.3095
     25 C           3.9976   -1.2882    0.0653 C.3     1  UNL1        0.0213
     26 C           4.3704   -0.6342   -1.2519 C.ar    1  UNL1       -0.0333
     27 C           4.8933    0.6749   -1.2680 C.ar    1  UNL1       -0.0573
     28 C           5.2330    1.2833   -2.4908 C.ar    1  UNL1       -0.0612
     29 C           5.0549    0.5840   -3.6997 C.ar    1  UNL1       -0.0583
     30 C           4.5325   -0.7283   -3.6944 C.ar    1  UNL1       -0.0445
     31 C           4.1891   -1.3309   -2.4647 C.ar    1  UNL1       -0.0539
     32 C           4.3449   -1.4947   -4.9979 C.3     1  UNL1       -0.0215
     33 C           5.6895   -1.7678   -5.6896 C.3     1  UNL1       -0.0586
     34 C           3.3558   -0.7882   -5.9381 C.3     1  UNL1       -0.0586
     35 O           0.3942   -0.4855    2.3357 O.3     1  UNL1       -0.3887
     36 C          -7.3784   -0.3710   -0.7262 C.ar    1  UNL1        0.2271
     37 N          -8.7025   -0.2570   -0.6125 N.ar    1  UNL1       -0.2175
     38 C          -9.2257   -1.2968   -1.3665 C.ar    1  UNL1        0.0663
     39 C          -8.1797   -1.9976   -1.9052 C.ar    1  UNL1        0.1125
     40 O          -7.0039   -1.4222   -1.5082 O.2     1  UNL1       -0.4436
     41 C          -5.4787    2.3075    4.2451 C.3     1  UNL1        0.0487
     42 C          -6.6996    2.2017    5.1793 C.3     1  UNL1       -0.0422
     43 C          -4.1357    2.0924    4.9470 C.ar    1  UNL1       -0.0273
     44 C          -3.8807    2.5979    6.2435 C.ar    1  UNL1       -0.0568
     45 C          -2.6299    2.3930    6.8572 C.ar    1  UNL1       -0.0614
     46 C          -1.6244    1.6721    6.1870 C.ar    1  UNL1       -0.0617
     47 C          -1.8741    1.1502    4.9048 C.ar    1  UNL1       -0.0614
     48 C          -3.1231    1.3579    4.2903 C.ar    1  UNL1       -0.0568
     49 H          -1.5278    3.5902    1.3701 H       1  UNL1        0.0299
     50 H          -0.0104    1.6088   -0.2286 H       1  UNL1        0.0524
     51 H           0.0367   -0.8268    0.3498 H       1  UNL1        0.0624
     52 H          -5.5779    1.4309    3.6053 H       1  UNL1        0.0548
     53 H           1.1145    4.6624    0.3069 H       1  UNL1        0.0232
     54 H          -0.4554    5.4316    0.1017 H       1  UNL1        0.0232
     55 H          -0.1450    3.8720   -0.6364 H       1  UNL1        0.0232
     56 H          -0.2148    4.1301    3.6711 H       1  UNL1        0.0268
     57 H           0.5408    5.3228    2.6644 H       1  UNL1        0.0268
     58 H          -1.3239    6.4643    3.5784 H       1  UNL1        0.0265
     59 H          -1.8890    6.0336    1.9874 H       1  UNL1        0.0265
     60 H          -2.8743    3.8970    3.1320 H       1  UNL1        0.0266
     61 H          -2.5359    4.6745    4.6462 H       1  UNL1        0.0266
     62 H          -4.0304    6.5685    4.0162 H       1  UNL1        0.0280
     63 H          -4.3175    5.8538    2.4571 H       1  UNL1        0.0280
     64 H          -5.1512    4.6907    5.1608 H       1  UNL1        0.0465
     65 H          -6.2103    5.4441    4.0316 H       1  UNL1        0.0465
     66 H          -7.7386    1.7716    0.8911 H       1  UNL1        0.0633
     67 H          -4.6911   -0.6310   -1.0183 H       1  UNL1        0.0633
     68 H          -3.5955    2.7306    1.4363 H       1  UNL1        0.0633
     69 H          -2.0934    1.4035    1.7502 H       1  UNL1        0.1494
     70 H           1.3052    2.5417    1.7001 H       1  UNL1        0.0286
     71 H           0.0203    2.0806    2.7731 H       1  UNL1        0.0286
     72 H           2.1336    0.6800   -0.2131 H       1  UNL1        0.0450
     73 H           2.5540    0.4753    1.4684 H       1  UNL1        0.0450
     74 H           2.3368   -1.9563    1.0512 H       1  UNL1        0.1223
     75 H           4.5274   -0.8043    0.8867 H       1  UNL1        0.0473
     76 H           4.3608   -2.3160    0.0359 H       1  UNL1        0.0473
     77 H           5.0319    1.2162   -0.3436 H       1  UNL1        0.0621
     78 H           5.6324    2.2868   -2.5014 H       1  UNL1        0.0618
     79 H           5.3227    1.0599   -4.6313 H       1  UNL1        0.0620
     80 H           3.7858   -2.3330   -2.4462 H       1  UNL1        0.0623
     81 H           3.9109   -2.4646   -4.7511 H       1  UNL1        0.0343
     82 H           6.3618   -2.3202   -5.0325 H       1  UNL1        0.0235
     83 H           6.1902   -0.8427   -5.9771 H       1  UNL1        0.0235
     84 H           5.5516   -2.3626   -6.5930 H       1  UNL1        0.0235
     85 H           2.3881   -0.6499   -5.4553 H       1  UNL1        0.0235
     86 H           3.1906   -1.3736   -6.8430 H       1  UNL1        0.0235
     87 H           3.7193    0.1932   -6.2437 H       1  UNL1        0.0235
     88 H           0.8215    0.1577    2.8802 H       1  UNL1        0.2099
     89 H         -10.2901   -1.4557   -1.4588 H       1  UNL1        0.0862
     90 H          -8.1062   -2.8651   -2.5442 H       1  UNL1        0.1046
     91 H          -6.6907    1.2602    5.7291 H       1  UNL1        0.0251
     92 H          -7.6286    2.2361    4.6090 H       1  UNL1        0.0251
     93 H          -6.7370    3.0119    5.9070 H       1  UNL1        0.0251
     94 H          -4.6357    3.1527    6.7794 H       1  UNL1        0.0621
     95 H          -2.4428    2.7886    7.8446 H       1  UNL1        0.0618
     96 H          -0.6657    1.5143    6.6585 H       1  UNL1        0.0618
     97 H          -1.1078    0.5882    4.3929 H       1  UNL1        0.0618
     98 H          -3.2995    0.9462    3.3085 H       1  UNL1        0.0621
@<TRIPOS>BOND
     1     1     2    1
     2     1    53    1
     3     1    54    1
     4     1    55    1
     5     2    49    1
     6     2    21    1
     7     2     3    1
     8     3     4    1
     9     3    56    1
    10     3    57    1
    11     4     5    1
    12     4    58    1
    13     4    59    1
    14     5     6    1
    15     5    60    1
    16     5    61    1
    17     6     7    1
    18     6    62    1
    19     6    63    1
    20     7     8    1
    21     7    64    1
    22     7    65    1
    23     8     9   am
    24     8    41    1
    25     9    10    2
    26     9    11    1
    27    11    16   ar
    28    11    12   ar
    29    12    13   ar
    30    12    66    1
    31    13    14   ar
    32    13    36    1
    33    14    15   ar
    34    14    67    1
    35    15    16   ar
    36    15    17    1
    37    16    68    1
    38    17    18    2
    39    17    19   am
    40    19    20    1
    41    19    69    1
    42    20    50    1
    43    20    21    1
    44    20    22    1
    45    21    70    1
    46    21    71    1
    47    22    51    1
    48    22    23    1
    49    22    35    1
    50    23    24    1
    51    23    72    1
    52    23    73    1
    53    24    25    1
    54    24    74    1
    55    25    26    1
    56    25    75    1
    57    25    76    1
    58    26    31   ar
    59    26    27   ar
    60    27    28   ar
    61    27    77    1
    62    28    29   ar
    63    28    78    1
    64    29    30   ar
    65    29    79    1
    66    30    31   ar
    67    30    32    1
    68    31    80    1
    69    32    33    1
    70    32    34    1
    71    32    81    1
    72    33    82    1
    73    33    83    1
    74    33    84    1
    75    34    85    1
    76    34    86    1
    77    34    87    1
    78    35    88    1
    79    36    40   ar
    80    36    37   ar
    81    37    38   ar
    82    38    39   ar
    83    38    89    1
    84    39    40   ar
    85    39    90    1
    86    41    52    1
    87    41    42    1
    88    41    43    1
    89    42    91    1
    90    42    92    1
    91    42    93    1
    92    43    48   ar
    93    43    44   ar
    94    44    45   ar
    95    44    94    1
    96    45    46   ar
    97    45    95    1
    98    46    47   ar
    99    46    96    1
   100    47    48   ar
   101    47    97    1
   102    48    98    1
