@<TRIPOS>MOLECULE
BACE_16.smi:1
 84 87 0 0 0
SMALL
GASTEIGER
****
Structure written by MMmdl.
@<TRIPOS>ATOM
      1 C          -3.3554    0.6113   -5.9868 C.3     1  UNL1       -0.0586
      2 C          -2.0199    0.6291   -5.2285 C.3     1  UNL1       -0.0215
      3 C          -0.8643    0.1274   -6.1073 C.3     1  UNL1       -0.0586
      4 C          -2.1172   -0.1373   -3.9151 C.ar    1  UNL1       -0.0445
      5 C          -2.2926   -1.5387   -3.9043 C.ar    1  UNL1       -0.0583
      6 C          -2.3892   -2.2331   -2.6829 C.ar    1  UNL1       -0.0612
      7 C          -2.3156   -1.5318   -1.4644 C.ar    1  UNL1       -0.0573
      8 C          -2.1407   -0.1325   -1.4646 C.ar    1  UNL1       -0.0333
      9 C          -2.0410    0.5585   -2.6898 C.ar    1  UNL1       -0.0539
     10 C          -2.0275    0.6303   -0.1568 C.3     1  UNL1        0.0213
     11 N          -0.6458    1.0037    0.1328 N.3     1  UNL1       -0.3095
     12 C           0.1379   -0.0876    0.7076 C.3     1  UNL1        0.0240
     13 C           1.6529    0.1555    0.5282 C.3     1  UNL1        0.0862
     14 C           2.4796   -1.1336    0.2639 C.3     1  UNL1        0.0545
     15 C           3.9942   -0.8535    0.0575 C.3     1  UNL1       -0.0066
     16 C           4.3559   -0.3804   -1.3462 C.ar    1  UNL1       -0.0421
     17 C           4.2754    0.9869   -1.6749 C.ar    1  UNL1       -0.0583
     18 C           4.5421    1.4106   -2.9890 C.ar    1  UNL1       -0.0580
     19 C           4.8920    0.4732   -3.9797 C.ar    1  UNL1       -0.0199
     20 C           4.9956   -0.9048   -3.6615 C.ar    1  UNL1        0.1208
     21 C           4.7366   -1.3124   -2.3366 C.ar    1  UNL1       -0.0167
     22 O           5.3343   -1.8947   -4.5633 O.3     1  UNL1       -0.4920
     23 C           5.3448   -1.5974   -5.9576 C.3     1  UNL1        0.0897
     24 C           3.9131   -1.5432   -6.5207 C.3     1  UNL1       -0.0156
     25 C           3.2829   -2.9379   -6.6733 C.3     1  UNL1       -0.0156
     26 C           1.7734   -2.8830   -6.9710 C.3     1  UNL1        0.0897
     27 O           1.0512   -2.4363   -5.8261 O.3     1  UNL1       -0.4918
     28 C           0.9621   -3.2944   -4.7535 C.ar    1  UNL1        0.1247
     29 C           1.0940   -2.7419   -3.4667 C.ar    1  UNL1       -0.0076
     30 C           1.0677   -3.5649   -2.3168 C.ar    1  UNL1        0.0436
     31 C           0.8443   -4.9508   -2.4688 C.ar    1  UNL1       -0.0076
     32 C           0.6737   -5.5198   -3.7545 C.ar    1  UNL1        0.1253
     33 C           0.7410   -4.6843   -4.8863 C.ar    1  UNL1        0.0218
     34 O           0.4484   -6.8597   -3.9822 O.3     1  UNL1       -0.4844
     35 C           0.3712   -7.7199   -2.8540 C.3     1  UNL1        0.1470
     36 C           0.1034   -9.1515   -3.3151 C.2     1  UNL1        0.1673
     37 O          -0.0435   -9.4393   -4.5022 O.2     1  UNL1       -0.2941
     38 C           0.0266  -10.2217   -2.2337 C.3     1  UNL1       -0.0026
     39 C           1.2710   -2.9850   -0.9445 C.2     1  UNL1        0.2446
     40 O           0.8705   -3.5679    0.0631 O.2     1  UNL1       -0.2702
     41 N           1.9726   -1.8417   -0.9130 N.am    1  UNL1       -0.3057
     42 O           2.1118    0.7547    1.7232 O.3     1  UNL1       -0.3887
     43 H           1.8174    0.8512   -0.2953 H       1  UNL1        0.0624
     44 H           2.3803   -1.7702    1.1452 H       1  UNL1        0.0527
     45 H          -4.1578    1.0259   -5.3757 H       1  UNL1        0.0235
     46 H          -3.6413   -0.4021   -6.2702 H       1  UNL1        0.0235
     47 H          -3.2959    1.2061   -6.8987 H       1  UNL1        0.0235
     48 H          -1.8024    1.6703   -4.9864 H       1  UNL1        0.0343
     49 H           0.0838    0.1680   -5.5702 H       1  UNL1        0.0235
     50 H          -0.7608    0.7396   -7.0035 H       1  UNL1        0.0235
     51 H          -1.0237   -0.9008   -6.4320 H       1  UNL1        0.0235
     52 H          -2.3517   -2.0885   -4.8321 H       1  UNL1        0.0620
     53 H          -2.5150   -3.3058   -2.6814 H       1  UNL1        0.0618
     54 H          -2.3821   -2.0720   -0.5313 H       1  UNL1        0.0621
     55 H          -1.9029    1.6301   -2.6849 H       1  UNL1        0.0623
     56 H          -2.6344    1.5316   -0.2470 H       1  UNL1        0.0473
     57 H          -2.4565    0.0531    0.6635 H       1  UNL1        0.0473
     58 H          -0.2036    1.2896   -0.7349 H       1  UNL1        0.1223
     59 H          -0.1225   -0.2410    1.7558 H       1  UNL1        0.0450
     60 H          -0.1454   -1.0112    0.2114 H       1  UNL1        0.0450
     61 H           4.3705   -0.1394    0.7903 H       1  UNL1        0.0332
     62 H           4.5464   -1.7749    0.2469 H       1  UNL1        0.0332
     63 H           3.9923    1.7116   -0.9254 H       1  UNL1        0.0620
     64 H           4.4691    2.4581   -3.2416 H       1  UNL1        0.0619
     65 H           5.0755    0.8443   -4.9753 H       1  UNL1        0.0654
     66 H           4.7980   -2.3619   -2.0872 H       1  UNL1        0.0657
     67 H           5.9010   -0.6861   -6.1741 H       1  UNL1        0.0696
     68 H           5.8999   -2.3881   -6.4632 H       1  UNL1        0.0696
     69 H           3.2874   -0.9136   -5.8876 H       1  UNL1        0.0299
     70 H           3.9300   -1.0609   -7.4984 H       1  UNL1        0.0299
     71 H           3.7885   -3.4626   -7.4844 H       1  UNL1        0.0299
     72 H           3.4633   -3.5329   -5.7774 H       1  UNL1        0.0299
     73 H           1.5876   -2.1775   -7.7813 H       1  UNL1        0.0696
     74 H           1.4132   -3.8427   -7.3379 H       1  UNL1        0.0696
     75 H           1.2465   -1.6755   -3.3813 H       1  UNL1        0.0662
     76 H           0.8141   -5.5701   -1.5847 H       1  UNL1        0.0662
     77 H           0.6042   -5.1336   -5.8573 H       1  UNL1        0.0691
     78 H           1.3071   -7.6961   -2.2947 H       1  UNL1        0.0777
     79 H          -0.4354   -7.4037   -2.1917 H       1  UNL1        0.0777
     80 H          -0.3264   -9.7940   -1.2951 H       1  UNL1        0.0307
     81 H           1.0108  -10.6597   -2.0673 H       1  UNL1        0.0307
     82 H          -0.6599  -11.0145   -2.5312 H       1  UNL1        0.0307
     83 H           2.2538   -1.4592   -1.8044 H       1  UNL1        0.1494
     84 H           1.6071    1.5393    1.8746 H       1  UNL1        0.2099
@<TRIPOS>BOND
     1     1     2    1
     2     1    45    1
     3     1    46    1
     4     1    47    1
     5     2     3    1
     6     2     4    1
     7     2    48    1
     8     3    49    1
     9     3    50    1
    10     3    51    1
    11     4     9   ar
    12     4     5   ar
    13     5     6   ar
    14     5    52    1
    15     6     7   ar
    16     6    53    1
    17     7     8   ar
    18     7    54    1
    19     8     9   ar
    20     8    10    1
    21     9    55    1
    22    10    11    1
    23    10    56    1
    24    10    57    1
    25    11    12    1
    26    11    58    1
    27    12    13    1
    28    12    59    1
    29    12    60    1
    30    13    43    1
    31    13    14    1
    32    13    42    1
    33    14    44    1
    34    14    41    1
    35    14    15    1
    36    15    16    1
    37    15    61    1
    38    15    62    1
    39    16    21   ar
    40    16    17   ar
    41    17    18   ar
    42    17    63    1
    43    18    19   ar
    44    18    64    1
    45    19    20   ar
    46    19    65    1
    47    20    21   ar
    48    20    22    1
    49    21    66    1
    50    22    23    1
    51    23    24    1
    52    23    67    1
    53    23    68    1
    54    24    25    1
    55    24    69    1
    56    24    70    1
    57    25    26    1
    58    25    71    1
    59    25    72    1
    60    26    27    1
    61    26    73    1
    62    26    74    1
    63    27    28    1
    64    28    33   ar
    65    28    29   ar
    66    29    30   ar
    67    29    75    1
    68    30    31   ar
    69    30    39    1
    70    31    32   ar
    71    31    76    1
    72    32    33   ar
    73    32    34    1
    74    33    77    1
    75    34    35    1
    76    35    36    1
    77    35    78    1
    78    35    79    1
    79    36    37    2
    80    36    38    1
    81    38    80    1
    82    38    81    1
    83    38    82    1
    84    39    40    2
    85    39    41   am
    86    41    83    1
    87    42    84    1
