@<TRIPOS>MOLECULE
BACE_14.smi:1
 85 89 0 0 0
SMALL
GASTEIGER
****
Structure written by MMmdl.
@<TRIPOS>ATOM
      1 C           3.7375    4.5314    1.4876 C.3     1  UNL1       -0.0586
      2 C           2.4303    5.0190    2.1279 C.3     1  UNL1       -0.0215
      3 C           1.8199    6.1894    1.3417 C.3     1  UNL1       -0.0586
      4 C           1.4323    3.8821    2.3060 C.ar    1  UNL1       -0.0445
      5 C           0.9871    3.5283    3.5971 C.ar    1  UNL1       -0.0583
      6 C           0.0559    2.4865    3.7633 C.ar    1  UNL1       -0.0612
      7 C          -0.4352    1.7936    2.6409 C.ar    1  UNL1       -0.0568
      8 C           0.0023    2.1319    1.3430 C.ar    1  UNL1       -0.0271
      9 C           0.9397    3.1757    1.1868 C.ar    1  UNL1       -0.0534
     10 C          -0.5090    1.3729    0.1514 C.3     1  UNL1        0.0447
     11 C          -0.8344    2.0756   -1.1499 C.3     1  UNL1       -0.0285
     12 C          -1.9483    1.5553   -0.2695 C.3     1  UNL1       -0.0285
     13 N           0.0290    0.0150    0.0991 N.3     1  UNL1       -0.3042
     14 C           1.3962   -0.0544   -0.4138 C.3     1  UNL1        0.0245
     15 C           1.9500   -1.4920   -0.3114 C.3     1  UNL1        0.0862
     16 C           3.4895   -1.5556   -0.1365 C.3     1  UNL1        0.0545
     17 C           4.0439   -3.0050   -0.0776 C.3     1  UNL1       -0.0066
     18 C           3.6473   -3.7740    1.1739 C.ar    1  UNL1       -0.0421
     19 C           2.4875   -4.5754    1.1811 C.ar    1  UNL1       -0.0583
     20 C           2.1029   -5.2483    2.3563 C.ar    1  UNL1       -0.0580
     21 C           2.8687   -5.1149    3.5307 C.ar    1  UNL1       -0.0199
     22 C           4.0364   -4.3143    3.5319 C.ar    1  UNL1        0.1208
     23 C           4.4293   -3.6729    2.3424 C.ar    1  UNL1       -0.0167
     24 O           4.8232   -4.1125    4.6409 O.3     1  UNL1       -0.4920
     25 C           4.1980   -4.2268    5.9113 C.3     1  UNL1        0.0896
     26 C           5.0242   -3.4363    6.9357 C.3     1  UNL1       -0.0172
     27 C           5.2394   -1.9579    6.5609 C.3     1  UNL1       -0.0344
     28 C           3.9350   -1.1519    6.4166 C.3     1  UNL1        0.0092
     29 N           4.1816    0.2654    6.1863 N.pl3   1  UNL1       -0.3438
     30 C           4.7485    0.7115    4.9824 C.ar    1  UNL1        0.0285
     31 C           4.6036    0.0188    3.7578 C.ar    1  UNL1       -0.0287
     32 C           5.1974    0.5198    2.5759 C.ar    1  UNL1        0.0391
     33 C           5.9640    1.7037    2.6350 C.ar    1  UNL1       -0.0390
     34 C           6.1088    2.4146    3.8486 C.ar    1  UNL1        0.0196
     35 C           5.4900    1.9091    5.0129 C.ar    1  UNL1       -0.0303
     36 C           6.8908    3.6814    3.9275 C.2     1  UNL1        0.1602
     37 O           7.0395    4.3247    4.9661 O.2     1  UNL1       -0.2924
     38 C           7.5351    4.2033    2.6443 C.3     1  UNL1       -0.0014
     39 C           5.0568   -0.2063    1.2678 C.2     1  UNL1        0.2445
     40 O           5.9619   -0.1865    0.4335 O.2     1  UNL1       -0.2702
     41 N           3.8758   -0.8120    1.0653 N.am    1  UNL1       -0.3057
     42 O           1.5951   -2.1521   -1.5106 O.3     1  UNL1       -0.3887
     43 H           1.4779   -2.0084    0.5255 H       1  UNL1        0.0624
     44 H           3.9322   -1.0633   -1.0048 H       1  UNL1        0.0527
     45 H           4.1776    3.7318    2.0800 H       1  UNL1        0.0235
     46 H           4.4692    5.3374    1.4263 H       1  UNL1        0.0235
     47 H           3.5792    4.1499    0.4787 H       1  UNL1        0.0235
     48 H           2.6829    5.3959    3.1200 H       1  UNL1        0.0343
     49 H           0.9210    6.5647    1.8315 H       1  UNL1        0.0235
     50 H           1.5486    5.8949    0.3275 H       1  UNL1        0.0235
     51 H           2.5237    7.0186    1.2665 H       1  UNL1        0.0235
     52 H           1.3550    4.0549    4.4655 H       1  UNL1        0.0620
     53 H          -0.2839    2.2191    4.7529 H       1  UNL1        0.0618
     54 H          -1.1498    0.9950    2.7776 H       1  UNL1        0.0621
     55 H           1.2845    3.4355    0.1969 H       1  UNL1        0.0624
     56 H          -0.7099    3.1554   -1.2021 H       1  UNL1        0.0287
     57 H          -0.6632    1.5423   -2.0830 H       1  UNL1        0.0287
     58 H          -2.4943    0.6875   -0.6347 H       1  UNL1        0.0287
     59 H          -2.5461    2.2933    0.2617 H       1  UNL1        0.0287
     60 H           1.4494    0.3104   -1.4405 H       1  UNL1        0.0450
     61 H           2.0167    0.6243    0.1702 H       1  UNL1        0.0450
     62 H           3.7384   -3.5707   -0.9583 H       1  UNL1        0.0332
     63 H           5.1333   -2.9744   -0.1233 H       1  UNL1        0.0332
     64 H           1.8842   -4.6663    0.2896 H       1  UNL1        0.0620
     65 H           1.2128   -5.8599    2.3599 H       1  UNL1        0.0619
     66 H           2.5497   -5.6358    4.4209 H       1  UNL1        0.0654
     67 H           5.3202   -3.0618    2.3418 H       1  UNL1        0.0657
     68 H           3.1776   -3.8406    5.8919 H       1  UNL1        0.0696
     69 H           4.1447   -5.2767    6.2012 H       1  UNL1        0.0696
     70 H           4.5411   -3.4984    7.9114 H       1  UNL1        0.0298
     71 H           5.9975   -3.9145    7.0499 H       1  UNL1        0.0298
     72 H           5.8608   -1.4955    7.3288 H       1  UNL1        0.0281
     73 H           5.8158   -1.8994    5.6370 H       1  UNL1        0.0281
     74 H           3.3039   -1.5550    5.6256 H       1  UNL1        0.0461
     75 H           3.3562   -1.2381    7.3363 H       1  UNL1        0.0461
     76 H           4.3543    0.8277    7.0074 H       1  UNL1        0.1461
     77 H           4.0355   -0.8983    3.7168 H       1  UNL1        0.0643
     78 H           6.4231    2.0686    1.7279 H       1  UNL1        0.0632
     79 H           5.5909    2.4366    5.9511 H       1  UNL1        0.0643
     80 H           8.2481    3.4777    2.2526 H       1  UNL1        0.0309
     81 H           8.0682    5.1346    2.8368 H       1  UNL1        0.0309
     82 H           6.7765    4.3959    1.8857 H       1  UNL1        0.0309
     83 H           3.1884   -0.7559    1.8028 H       1  UNL1        0.1494
     84 H           0.6552   -2.1141   -1.6032 H       1  UNL1        0.2099
     85 H           0.0359   -0.3618    1.0417 H       1  UNL1        0.1229
@<TRIPOS>BOND
     1     1     2    1
     2     1    45    1
     3     1    46    1
     4     1    47    1
     5     2     3    1
     6     2     4    1
     7     2    48    1
     8     3    49    1
     9     3    50    1
    10     3    51    1
    11     4     9   ar
    12     4     5   ar
    13     5     6   ar
    14     5    52    1
    15     6     7   ar
    16     6    53    1
    17     7     8   ar
    18     7    54    1
    19     8     9   ar
    20     8    10    1
    21     9    55    1
    22    10    12    1
    23    10    11    1
    24    10    13    1
    25    11    12    1
    26    11    56    1
    27    11    57    1
    28    12    58    1
    29    12    59    1
    30    13    14    1
    31    13    85    1
    32    14    15    1
    33    14    60    1
    34    14    61    1
    35    15    43    1
    36    15    16    1
    37    15    42    1
    38    16    44    1
    39    16    41    1
    40    16    17    1
    41    17    18    1
    42    17    62    1
    43    17    63    1
    44    18    23   ar
    45    18    19   ar
    46    19    20   ar
    47    19    64    1
    48    20    21   ar
    49    20    65    1
    50    21    22   ar
    51    21    66    1
    52    22    23   ar
    53    22    24    1
    54    23    67    1
    55    24    25    1
    56    25    26    1
    57    25    68    1
    58    25    69    1
    59    26    27    1
    60    26    70    1
    61    26    71    1
    62    27    28    1
    63    27    72    1
    64    27    73    1
    65    28    29    1
    66    28    74    1
    67    28    75    1
    68    29    30    1
    69    29    76    1
    70    30    35   ar
    71    30    31   ar
    72    31    32   ar
    73    31    77    1
    74    32    33   ar
    75    32    39    1
    76    33    34   ar
    77    33    78    1
    78    34    35   ar
    79    34    36    1
    80    35    79    1
    81    36    37    2
    82    36    38    1
    83    38    80    1
    84    38    81    1
    85    38    82    1
    86    39    40    2
    87    39    41   am
    88    41    83    1
    89    42    84    1
