10gs_complex ligand
                    3D
 Structure written by MMmdl.
 59 60  0  0  1  0            999 V2000
   15.1571   10.8239   22.7592 N   0  3  0  0  0  0
   15.1163   10.1096   24.0542 C   0  0  2  0  0  0
   16.3498    9.1808   24.1609 C   0  0  0  0  0  0
   17.2275    9.2227   23.2681 O   0  5  0  0  0  0
   13.7746    9.3447   24.2415 C   0  0  0  0  0  0
   13.3966    9.0344   25.7159 C   0  0  0  0  0  0
   12.1780    8.1174   25.8913 C   0  0  0  0  0  0
   11.6270    7.5928   24.9217 O   0  0  0  0  0  0
   16.4281    8.4240   25.1536 O   0  0  0  0  0  0
   11.7892    7.9130   27.1596 N   0  0  0  0  0  0
   10.7254    7.0218   27.6167 C   0  0  1  0  0  0
   11.2885    5.5849   27.7177 C   0  0  0  0  0  0
   10.0483    4.4120   28.3592 S   0  0  0  0  0  0
    9.0023    4.1335   26.9073 C   0  0  0  0  0  0
    9.7745    3.3374   25.8770 C   0  0  0  0  0  0
   10.1343    2.0006   26.1494 C   0  0  0  0  0  0
   10.1386    3.9233   24.6481 C   0  0  0  0  0  0
   10.8282    1.2424   25.1871 C   0  0  0  0  0  0
   10.8447    3.1681   23.6945 C   0  0  0  0  0  0
   11.1844    1.8269   23.9576 C   0  0  0  0  0  0
   10.1227    7.5232   28.9412 C   0  0  0  0  0  0
   10.8292    7.6276   29.9438 O   0  0  0  0  0  0
    8.8039    7.7580   28.9578 N   0  0  0  0  0  0
    7.9859    7.9228   30.1595 C   0  0  2  0  0  0
    6.8972    6.8980   30.1018 C   0  0  0  0  0  0
    6.6922    6.0073   31.1797 C   0  0  0  0  0  0
    6.0589    6.7427   28.9674 C   0  0  0  0  0  0
    5.6983    5.0107   31.1411 C   0  0  0  0  0  0
    5.0640    5.7486   28.9170 C   0  0  0  0  0  0
    4.8808    4.8791   30.0051 C   0  0  0  0  0  0
    7.2827    9.2915   30.2445 C   0  0  0  0  0  0
    7.2292    9.9991   29.2098 O   0  5  0  0  0  0
    6.8284    9.6236   31.3646 O   0  0  0  0  0  0
   16.0502   11.2952   22.7057 H   0  0  0  0  0  0
   15.0912   10.1697   21.9960 H   0  0  0  0  0  0
   14.4278   11.5211   22.6958 H   0  0  0  0  0  0
   15.2093   10.8733   24.8260 H   0  0  0  0  0  0
   13.8075    8.4240   23.6595 H   0  0  0  0  0  0
   12.9653    9.9341   23.8077 H   0  0  0  0  0  0
   13.2282    9.9704   26.2466 H   0  0  0  0  0  0
   14.2130    8.5438   26.2411 H   0  0  0  0  0  0
   12.3429    8.3345   27.8930 H   0  0  0  0  0  0
    9.9324    7.0337   26.8683 H   0  0  0  0  0  0
   11.6633    5.2386   26.7553 H   0  0  0  0  0  0
   12.1345    5.5753   28.4048 H   0  0  0  0  0  0
    8.1149    3.5740   27.2060 H   0  0  0  0  0  0
    8.6587    5.0838   26.4994 H   0  0  0  0  0  0
    9.8665    1.5502   27.0952 H   0  0  0  0  0  0
    9.8781    4.9501   24.4331 H   0  0  0  0  0  0
   11.0867    0.2131   25.3954 H   0  0  0  0  0  0
   11.1274    3.6224   22.7596 H   0  0  0  0  0  0
   11.7192    1.2479   23.2192 H   0  0  0  0  0  0
    8.2951    7.7005   28.0896 H   0  0  0  0  0  0
    8.5846    7.7986   31.0626 H   0  0  0  0  0  0
    7.3128    6.0846   32.0618 H   0  0  0  0  0  0
    6.1788    7.4015   28.1193 H   0  0  0  0  0  0
    5.5640    4.3490   31.9828 H   0  0  0  0  0  0
    4.4384    5.6588   28.0406 H   0  0  0  0  0  0
    4.1156    4.1178   29.9696 H   0  0  0  0  0  0
  1  2  1  0  0  0
  1 34  1  0  0  0
  1 35  1  0  0  0
  1 36  1  0  0  0
  2  3  1  0  0  0
  2  5  1  0  0  0
  2 37  1  0  0  0
  3  4  1  0  0  0
  3  9  2  0  0  0
  5  6  1  0  0  0
  5 38  1  0  0  0
  5 39  1  0  0  0
  6  7  1  0  0  0
  6 40  1  0  0  0
  6 41  1  0  0  0
  7  8  2  0  0  0
  7 10  1  0  0  0
 10 11  1  0  0  0
 10 42  1  0  0  0
 11 12  1  0  0  0
 11 21  1  0  0  0
 11 43  1  0  0  0
 12 13  1  0  0  0
 12 44  1  0  0  0
 12 45  1  0  0  0
 13 14  1  0  0  0
 14 15  1  0  0  0
 14 46  1  0  0  0
 14 47  1  0  0  0
 15 16  2  0  0  0
 15 17  1  0  0  0
 16 18  1  0  0  0
 16 48  1  0  0  0
 17 19  2  0  0  0
 17 49  1  0  0  0
 18 20  2  0  0  0
 18 50  1  0  0  0
 19 20  1  0  0  0
 19 51  1  0  0  0
 20 52  1  0  0  0
 21 22  2  0  0  0
 21 23  1  0  0  0
 23 24  1  0  0  0
 23 53  1  0  0  0
 24 25  1  0  0  0
 24 31  1  0  0  0
 24 54  1  0  0  0
 25 26  2  0  0  0
 25 27  1  0  0  0
 26 28  1  0  0  0
 26 55  1  0  0  0
 27 29  2  0  0  0
 27 56  1  0  0  0
 28 30  2  0  0  0
 28 57  1  0  0  0
 29 30  1  0  0  0
 29 58  1  0  0  0
 30 59  1  0  0  0
 31 32  1  0  0  0
 31 33  2  0  0  0
M  CHG  3   1   1   4  -1  32  -1
M  END
> <s_i_glide_gridfile>
glide2__10gs_complex__grid

> <i_i_glide_lignum>
1

> <i_i_glide_rotatable_bonds>
15

> <r_i_docking_score>
-8.96354180461667

> <r_i_glide_ligand_efficiency>
-0.271622478927778

> <r_i_glide_ligand_efficiency_sa>
-0.871238424943985

> <r_i_glide_ligand_efficiency_ln>
-1.99344528661113

> <r_i_glide_gscore>
-8.96354180461667

> <r_i_glide_lipo>
-1.73063407209865

> <r_i_glide_hbond>
-1.10429095870557

> <r_i_glide_metal>
-0

> <r_i_glide_rewards>
-0.85950270225978

> <r_i_glide_evdw>
-40.526008605957

> <r_i_glide_ecoul>
-28.0695037841797

> <r_i_glide_erotb>
0.996145276216653

> <r_i_glide_esite>
-0.238958917471481

> <r_i_glide_emodel>
-124.404486607141

> <r_i_glide_energy>
-68.5955123901367

> <r_i_glide_einternal>
7.80040740966797

> <i_i_glide_confnum>
413

> <i_i_glide_posenum>
303

> <r_i_glide_eff_state_penalty>
0

$$$$
10gs_complex ligand
                    3D
 Structure written by MMmdl.
 59 60  0  0  1  0            999 V2000
   15.0856   10.8237   22.7683 N   0  3  0  0  0  0
   15.0300   10.0576   24.0359 C   0  0  2  0  0  0
   16.1863    9.0367   24.0804 C   0  0  0  0  0  0
   16.8404    8.8239   23.0363 O   0  5  0  0  0  0
   13.6567    9.3588   24.2298 C   0  0  0  0  0  0
   13.3192    9.0559   25.7107 C   0  0  0  0  0  0
   12.0430    8.2405   25.9305 C   0  0  0  0  0  0
   11.2985    7.9460   24.9919 O   0  0  0  0  0  0
   16.4251    8.4521   25.1598 O   0  0  0  0  0  0
   11.8284    7.8526   27.1961 N   0  0  0  0  0  0
   10.7439    7.0146   27.7047 C   0  0  1  0  0  0
   11.2774    5.6012   28.0262 C   0  0  0  0  0  0
   12.0279    4.8237   26.5735 S   0  0  0  0  0  0
   10.5398    4.5387   25.5853 C   0  0  0  0  0  0
   10.6166    3.1460   25.0158 C   0  0  0  0  0  0
   10.9063    2.9564   23.6513 C   0  0  0  0  0  0
   10.4250    2.0328   25.8601 C   0  0  0  0  0  0
   10.9906    1.6555   23.1275 C   0  0  0  0  0  0
   10.5017    0.7329   25.3306 C   0  0  0  0  0  0
   10.7764    0.5512   23.9646 C   0  0  0  0  0  0
   10.1208    7.6004   28.9802 C   0  0  0  0  0  0
   10.8281    7.8383   29.9592 O   0  0  0  0  0  0
    8.7907    7.7442   28.9953 N   0  0  0  0  0  0
    7.9764    7.9175   30.1999 C   0  0  2  0  0  0
    6.8747    6.9008   30.1572 C   0  0  0  0  0  0
    6.6675    6.0207   31.2452 C   0  0  0  0  0  0
    6.0223    6.7529   29.0338 C   0  0  0  0  0  0
    5.6560    5.0417   31.2246 C   0  0  0  0  0  0
    5.0082    5.7755   29.0001 C   0  0  0  0  0  0
    4.8244    4.9154   30.0973 C   0  0  0  0  0  0
    7.2813    9.2885   30.2804 C   0  0  0  0  0  0
    7.2374    9.9974   29.2470 O   0  5  0  0  0  0
    6.8287    9.6243   31.3991 O   0  0  0  0  0  0
   15.9894   11.2797   22.7251 H   0  0  0  0  0  0
   14.9996   10.1941   21.9848 H   0  0  0  0  0  0
   14.3720   11.5357   22.7363 H   0  0  0  0  0  0
   15.1865   10.7867   24.8339 H   0  0  0  0  0  0
   13.6255    8.4317   23.6510 H   0  0  0  0  0  0
   12.8689    9.9969   23.8259 H   0  0  0  0  0  0
   13.2287    9.9932   26.2630 H   0  0  0  0  0  0
   14.1260    8.5013   26.1840 H   0  0  0  0  0  0
   12.5328    8.0986   27.8835 H   0  0  0  0  0  0
    9.9583    6.9430   26.9499 H   0  0  0  0  0  0
   12.0282    5.6328   28.8161 H   0  0  0  0  0  0
   10.4778    4.9577   28.3968 H   0  0  0  0  0  0
    9.6400    4.6242   26.1962 H   0  0  0  0  0  0
   10.4678    5.2888   24.7959 H   0  0  0  0  0  0
   11.0635    3.8059   23.0050 H   0  0  0  0  0  0
   10.2186    2.1726   26.9106 H   0  0  0  0  0  0
   11.2135    1.5017   22.0811 H   0  0  0  0  0  0
   10.3566   -0.1306   25.9596 H   0  0  0  0  0  0
   10.8303   -0.4498   23.5619 H   0  0  0  0  0  0
    8.2777    7.5977   28.1399 H   0  0  0  0  0  0
    8.5771    7.7921   31.1027 H   0  0  0  0  0  0
    7.2958    6.0914   32.1206 H   0  0  0  0  0  0
    6.1391    7.4062   28.1825 H   0  0  0  0  0  0
    5.5209    4.3834   32.0717 H   0  0  0  0  0  0
    4.3723    5.6848   28.1302 H   0  0  0  0  0  0
    4.0469    4.1653   30.0766 H   0  0  0  0  0  0
  1  2  1  0  0  0
  1 34  1  0  0  0
  1 35  1  0  0  0
  1 36  1  0  0  0
  2  3  1  0  0  0
  2  5  1  0  0  0
  2 37  1  0  0  0
  3  4  1  0  0  0
  3  9  2  0  0  0
  5  6  1  0  0  0
  5 38  1  0  0  0
  5 39  1  0  0  0
  6  7  1  0  0  0
  6 40  1  0  0  0
  6 41  1  0  0  0
  7  8  2  0  0  0
  7 10  1  0  0  0
 10 11  1  0  0  0
 10 42  1  0  0  0
 11 12  1  0  0  0
 11 21  1  0  0  0
 11 43  1  0  0  0
 12 13  1  0  0  0
 12 44  1  0  0  0
 12 45  1  0  0  0
 13 14  1  0  0  0
 14 15  1  0  0  0
 14 46  1  0  0  0
 14 47  1  0  0  0
 15 16  2  0  0  0
 15 17  1  0  0  0
 16 18  1  0  0  0
 16 48  1  0  0  0
 17 19  2  0  0  0
 17 49  1  0  0  0
 18 20  2  0  0  0
 18 50  1  0  0  0
 19 20  1  0  0  0
 19 51  1  0  0  0
 20 52  1  0  0  0
 21 22  2  0  0  0
 21 23  1  0  0  0
 23 24  1  0  0  0
 23 53  1  0  0  0
 24 25  1  0  0  0
 24 31  1  0  0  0
 24 54  1  0  0  0
 25 26  2  0  0  0
 25 27  1  0  0  0
 26 28  1  0  0  0
 26 55  1  0  0  0
 27 29  2  0  0  0
 27 56  1  0  0  0
 28 30  2  0  0  0
 28 57  1  0  0  0
 29 30  1  0  0  0
 29 58  1  0  0  0
 30 59  1  0  0  0
 31 32  1  0  0  0
 31 33  2  0  0  0
M  CHG  3   1   1   4  -1  32  -1
M  END
> <s_i_glide_gridfile>
glide2__10gs_complex__grid

> <i_i_glide_lignum>
1

> <i_i_glide_rotatable_bonds>
15

> <r_i_docking_score>
-8.5739827907637

> <r_i_glide_ligand_efficiency>
-0.259817660326173

> <r_i_glide_ligand_efficiency_sa>
-0.833374064064094

> <r_i_glide_ligand_efficiency_ln>
-1.90680937895886

> <r_i_glide_gscore>
-8.5739827907637

> <r_i_glide_lipo>
-1.36276316149107

> <r_i_glide_hbond>
-1.21484986581335

> <r_i_glide_metal>
-0

> <r_i_glide_rewards>
-0.843061006604769

> <r_i_glide_evdw>
-38.1095542907715

> <r_i_glide_ecoul>
-31.4314022064209

> <r_i_glide_erotb>
0.996145276216653

> <r_i_glide_esite>
-0.243976318532586

> <r_i_glide_emodel>
-118.932223224796

> <r_i_glide_energy>
-69.5409564971924

> <r_i_glide_einternal>
15.4458541870117

> <i_i_glide_confnum>
257

> <i_i_glide_posenum>
324

> <r_i_glide_eff_state_penalty>
0

$$$$
10gs_complex ligand
                    3D
 Structure written by MMmdl.
 59 60  0  0  1  0            999 V2000
   14.8283   10.8236   23.2152 N   0  3  0  0  0  0
   14.8325   10.0251   24.4596 C   0  0  2  0  0  0
   16.0518    9.0780   24.4612 C   0  0  0  0  0  0
   16.4267    8.6129   25.5587 O   0  5  0  0  0  0
   13.4966    9.2556   24.6446 C   0  0  0  0  0  0
   13.2636    8.7115   26.0752 C   0  0  0  0  0  0
   11.9111    8.0238   26.2903 C   0  0  0  0  0  0
   11.1632    7.7765   25.3437 O   0  0  0  0  0  0
   16.6290    8.8238   23.3797 O   0  0  0  0  0  0
   11.6281    7.6989   27.5611 N   0  0  0  0  0  0
   10.4635    6.9632   28.0507 C   0  0  1  0  0  0
   10.9327    5.5761   28.5268 C   0  0  0  0  0  0
   11.6283    4.6150   27.1594 S   0  0  0  0  0  0
   10.1314    4.1722   26.2584 C   0  0  0  0  0  0
   10.4800    3.0364   25.3300 C   0  0  0  0  0  0
   10.4279    1.7087   25.7985 C   0  0  0  0  0  0
   10.8979    3.3004   24.0122 C   0  0  0  0  0  0
   10.7008    0.6437   24.9238 C   0  0  0  0  0  0
   11.2261    2.2316   23.1598 C   0  0  0  0  0  0
   11.0803    0.9050   23.5951 C   0  0  0  0  0  0
    9.7847    7.7068   29.2131 C   0  0  0  0  0  0
   10.4336    8.0226   30.2109 O   0  0  0  0  0  0
    8.4735    7.9613   29.0973 N   0  0  0  0  0  0
    7.6130    8.5792   30.1137 C   0  0  2  0  0  0
    6.4518    7.6748   30.4687 C   0  0  0  0  0  0
    6.3628    6.3258   30.0265 C   0  0  0  0  0  0
    5.4099    8.1223   31.3255 C   0  0  0  0  0  0
    5.3028    5.4822   30.4097 C   0  0  0  0  0  0
    4.3453    7.2876   31.7151 C   0  0  0  0  0  0
    4.2909    5.9610   31.2583 C   0  0  0  0  0  0
    7.0225    9.8890   29.5568 C   0  0  0  0  0  0
    6.8274    9.9602   28.3237 O   0  5  0  0  0  0
    6.8285   10.8286   30.3596 O   0  0  0  0  0  0
   15.6978   11.3425   23.1717 H   0  0  0  0  0  0
   14.7830   10.2068   22.4179 H   0  0  0  0  0  0
   14.0634   11.4843   23.2014 H   0  0  0  0  0  0
   14.9522   10.7371   25.2777 H   0  0  0  0  0  0
   13.4437    8.4332   23.9294 H   0  0  0  0  0  0
   12.6707    9.9252   24.3974 H   0  0  0  0  0  0
   13.3457    9.5313   26.7893 H   0  0  0  0  0  0
   14.0320    7.9868   26.3406 H   0  0  0  0  0  0
   12.3469    7.8814   28.2532 H   0  0  0  0  0  0
    9.7299    6.8457   27.2517 H   0  0  0  0  0  0
   11.7199    5.6842   29.2729 H   0  0  0  0  0  0
   10.1203    5.0130   28.9887 H   0  0  0  0  0  0
    9.3508    3.8565   26.9521 H   0  0  0  0  0  0
    9.7552    5.0302   25.7004 H   0  0  0  0  0  0
   10.1383    1.5033   26.8193 H   0  0  0  0  0  0
   10.9791    4.3180   23.6587 H   0  0  0  0  0  0
   10.6306   -0.3760   25.2722 H   0  0  0  0  0  0
   11.5752    2.4223   22.1571 H   0  0  0  0  0  0
   11.2877    0.0862   22.9213 H   0  0  0  0  0  0
    8.0138    7.7557   28.2219 H   0  0  0  0  0  0
    8.1817    8.8144   31.0142 H   0  0  0  0  0  0
    7.1203    5.9004   29.3861 H   0  0  0  0  0  0
    5.4237    9.1336   31.7067 H   0  0  0  0  0  0
    5.2708    4.4623   30.0541 H   0  0  0  0  0  0
    3.5737    7.6646   32.3710 H   0  0  0  0  0  0
    3.4777    5.3150   31.5568 H   0  0  0  0  0  0
  1  2  1  0  0  0
  1 34  1  0  0  0
  1 35  1  0  0  0
  1 36  1  0  0  0
  2  3  1  0  0  0
  2  5  1  0  0  0
  2 37  1  0  0  0
  3  4  1  0  0  0
  3  9  2  0  0  0
  5  6  1  0  0  0
  5 38  1  0  0  0
  5 39  1  0  0  0
  6  7  1  0  0  0
  6 40  1  0  0  0
  6 41  1  0  0  0
  7  8  2  0  0  0
  7 10  1  0  0  0
 10 11  1  0  0  0
 10 42  1  0  0  0
 11 12  1  0  0  0
 11 21  1  0  0  0
 11 43  1  0  0  0
 12 13  1  0  0  0
 12 44  1  0  0  0
 12 45  1  0  0  0
 13 14  1  0  0  0
 14 15  1  0  0  0
 14 46  1  0  0  0
 14 47  1  0  0  0
 15 16  2  0  0  0
 15 17  1  0  0  0
 16 18  1  0  0  0
 16 48  1  0  0  0
 17 19  2  0  0  0
 17 49  1  0  0  0
 18 20  2  0  0  0
 18 50  1  0  0  0
 19 20  1  0  0  0
 19 51  1  0  0  0
 20 52  1  0  0  0
 21 22  2  0  0  0
 21 23  1  0  0  0
 23 24  1  0  0  0
 23 53  1  0  0  0
 24 25  1  0  0  0
 24 31  1  0  0  0
 24 54  1  0  0  0
 25 26  2  0  0  0
 25 27  1  0  0  0
 26 28  1  0  0  0
 26 55  1  0  0  0
 27 29  2  0  0  0
 27 56  1  0  0  0
 28 30  2  0  0  0
 28 57  1  0  0  0
 29 30  1  0  0  0
 29 58  1  0  0  0
 30 59  1  0  0  0
 31 32  1  0  0  0
 31 33  2  0  0  0
M  CHG  3   1   1   4  -1  32  -1
M  END
> <s_i_glide_gridfile>
glide2__10gs_complex__grid

> <i_i_glide_lignum>
1

> <i_i_glide_rotatable_bonds>
15

> <r_i_docking_score>
-8.57326176040299

> <r_i_glide_ligand_efficiency>
-0.259795810921303

> <r_i_glide_ligand_efficiency_sa>
-0.833303981347966

> <r_i_glide_ligand_efficiency_ln>
-1.90664902553993

> <r_i_glide_gscore>
-8.57326176040299

> <r_i_glide_lipo>
-1.34895639741334

> <r_i_glide_hbond>
-1.19158677393809

> <r_i_glide_metal>
-0

> <r_i_glide_rewards>
-0.911234485411783

> <r_i_glide_evdw>
-37.2641372680664

> <r_i_glide_ecoul>
-28.2989349365234

> <r_i_glide_erotb>
0.996145276216653

> <r_i_glide_esite>
-0.254422516453116

> <r_i_glide_emodel>
-116.287711679172

> <r_i_glide_energy>
-65.5630722045898

> <r_i_glide_einternal>
12.7695026397705

> <i_i_glide_confnum>
257

> <i_i_glide_posenum>
171

> <r_i_glide_eff_state_penalty>
0

$$$$
10gs_complex ligand
                    3D
 Structure written by MMmdl.
 59 60  0  0  1  0            999 V2000
   15.1357   10.8237   22.7596 N   0  3  0  0  0  0
   15.1012   10.1040   24.0509 C   0  0  2  0  0  0
   16.3368    9.1762   24.1453 C   0  0  0  0  0  0
   17.2069    9.2159   23.2436 O   0  5  0  0  0  0
   13.7588    9.3379   24.2466 C   0  0  0  0  0  0
   13.3912    9.0006   25.7200 C   0  0  0  0  0  0
   12.1631    8.0941   25.8924 C   0  0  0  0  0  0
   11.5268    7.6939   24.9167 O   0  0  0  0  0  0
   16.4282    8.4240   25.1385 O   0  0  0  0  0  0
   11.8560    7.7714   27.1595 N   0  0  0  0  0  0
   10.7897    6.8816   27.6192 C   0  0  1  0  0  0
   11.3630    5.4579   27.8334 C   0  0  0  0  0  0
   11.2233    4.4244   26.3401 S   0  0  0  0  0  0
    9.4381    4.0719   26.2514 C   0  0  0  0  0  0
    8.9417    3.3759   27.5073 C   0  0  0  0  0  0
    9.3110    2.0430   27.7848 C   0  0  0  0  0  0
    8.0963    4.0605   28.4051 C   0  0  0  0  0  0
    8.8310    1.4033   28.9457 C   0  0  0  0  0  0
    7.6250    3.4197   29.5672 C   0  0  0  0  0  0
    7.9901    2.0897   29.8391 C   0  0  0  0  0  0
   10.1364    7.4231   28.9052 C   0  0  0  0  0  0
   10.8284    7.6238   29.9040 O   0  0  0  0  0  0
    8.8104    7.6268   28.9024 N   0  0  0  0  0  0
    7.9980    7.8819   30.1004 C   0  0  2  0  0  0
    6.7384    7.0770   30.0206 C   0  0  0  0  0  0
    6.2692    6.3823   31.1595 C   0  0  0  0  0  0
    5.9566    6.9892   28.8404 C   0  0  0  0  0  0
    5.0733    5.6398   31.1343 C   0  0  0  0  0  0
    4.7672    6.2370   28.8004 C   0  0  0  0  0  0
    4.3228    5.5607   29.9489 C   0  0  0  0  0  0
    7.4904    9.3289   30.1995 C   0  0  0  0  0  0
    7.1118    9.7255   31.3264 O   0  5  0  0  0  0
    7.4914   10.0242   29.1589 O   0  0  0  0  0  0
   16.0426   11.2709   22.6930 H   0  0  0  0  0  0
   15.0357   10.1738   21.9951 H   0  0  0  0  0  0
   14.4275   11.5445   22.7103 H   0  0  0  0  0  0
   15.1965   10.8662   24.8265 H   0  0  0  0  0  0
   13.7820    8.4236   23.6528 H   0  0  0  0  0  0
   12.9460    9.9354   23.8317 H   0  0  0  0  0  0
   13.2283    9.9273   26.2724 H   0  0  0  0  0  0
   14.2089    8.4963   26.2286 H   0  0  0  0  0  0
   12.4871    8.0912   27.8854 H   0  0  0  0  0  0
   10.0059    6.8528   26.8606 H   0  0  0  0  0  0
   12.4142    5.5192   28.1191 H   0  0  0  0  0  0
   10.8636    4.9434   28.6551 H   0  0  0  0  0  0
    8.8861    4.9960   26.0814 H   0  0  0  0  0  0
    9.2476    3.4319   25.3898 H   0  0  0  0  0  0
    9.9597    1.5101   27.1047 H   0  0  0  0  0  0
    7.8053    5.0792   28.2054 H   0  0  0  0  0  0
    9.1178    0.3862   29.1609 H   0  0  0  0  0  0
    6.9824    3.9426   30.2556 H   0  0  0  0  0  0
    7.6319    1.5983   30.7320 H   0  0  0  0  0  0
    8.3047    7.5263   28.0363 H   0  0  0  0  0  0
    8.5520    7.6418   31.0105 H   0  0  0  0  0  0
    6.8371    6.4221   32.0762 H   0  0  0  0  0  0
    6.2626    7.5171   27.9490 H   0  0  0  0  0  0
    4.7381    5.1245   32.0219 H   0  0  0  0  0  0
    4.1908    6.1872   27.8888 H   0  0  0  0  0  0
    3.4083    4.9870   29.9212 H   0  0  0  0  0  0
  1  2  1  0  0  0
  1 34  1  0  0  0
  1 35  1  0  0  0
  1 36  1  0  0  0
  2  3  1  0  0  0
  2  5  1  0  0  0
  2 37  1  0  0  0
  3  4  1  0  0  0
  3  9  2  0  0  0
  5  6  1  0  0  0
  5 38  1  0  0  0
  5 39  1  0  0  0
  6  7  1  0  0  0
  6 40  1  0  0  0
  6 41  1  0  0  0
  7  8  2  0  0  0
  7 10  1  0  0  0
 10 11  1  0  0  0
 10 42  1  0  0  0
 11 12  1  0  0  0
 11 21  1  0  0  0
 11 43  1  0  0  0
 12 13  1  0  0  0
 12 44  1  0  0  0
 12 45  1  0  0  0
 13 14  1  0  0  0
 14 15  1  0  0  0
 14 46  1  0  0  0
 14 47  1  0  0  0
 15 16  2  0  0  0
 15 17  1  0  0  0
 16 18  1  0  0  0
 16 48  1  0  0  0
 17 19  2  0  0  0
 17 49  1  0  0  0
 18 20  2  0  0  0
 18 50  1  0  0  0
 19 20  1  0  0  0
 19 51  1  0  0  0
 20 52  1  0  0  0
 21 22  2  0  0  0
 21 23  1  0  0  0
 23 24  1  0  0  0
 23 53  1  0  0  0
 24 25  1  0  0  0
 24 31  1  0  0  0
 24 54  1  0  0  0
 25 26  2  0  0  0
 25 27  1  0  0  0
 26 28  1  0  0  0
 26 55  1  0  0  0
 27 29  2  0  0  0
 27 56  1  0  0  0
 28 30  2  0  0  0
 28 57  1  0  0  0
 29 30  1  0  0  0
 29 58  1  0  0  0
 30 59  1  0  0  0
 31 32  1  0  0  0
 31 33  2  0  0  0
M  CHG  3   1   1   4  -1  32  -1
M  END
> <s_i_glide_gridfile>
glide2__10gs_complex__grid

> <i_i_glide_lignum>
1

> <i_i_glide_rotatable_bonds>
15

> <r_i_docking_score>
-8.49443247849039

> <r_i_glide_ligand_efficiency>
-0.257407044802739

> <r_i_glide_ligand_efficiency_sa>
-0.825641932025272

> <r_i_glide_ligand_efficiency_ln>
-1.88911780139875

> <r_i_glide_gscore>
-8.49443247849039

> <r_i_glide_lipo>
-1.30109622587009

> <r_i_glide_hbond>
-1.21377201095915

> <r_i_glide_metal>
-0

> <r_i_glide_rewards>
-0.81335481489934

> <r_i_glide_evdw>
-38.6622772216797

> <r_i_glide_ecoul>
-28.7048473358154

> <r_i_glide_erotb>
0.996145276216653

> <r_i_glide_esite>
-0.229240841894479

> <r_i_glide_emodel>
-117.775133070739

> <r_i_glide_energy>
-67.3671245574951

> <r_i_glide_einternal>
12.3525476455688

> <i_i_glide_confnum>
257

> <i_i_glide_posenum>
291

> <r_i_glide_eff_state_penalty>
0

$$$$
10gs_complex ligand
                    3D
 Structure written by MMmdl.
 59 60  0  0  1  0            999 V2000
   15.2280   10.8238   22.7674 N   0  3  0  0  0  0
   15.1100   10.0539   24.0240 C   0  0  2  0  0  0
   16.2566    9.0245   24.1052 C   0  0  0  0  0  0
   16.4283    8.4250   25.1855 O   0  5  0  0  0  0
   13.7178    9.3793   24.1579 C   0  0  0  0  0  0
   13.3932    8.8007   25.5625 C   0  0  0  0  0  0
   12.0067    8.1738   25.6775 C   0  0  0  0  0  0
   11.2898    8.0518   24.6851 O   0  0  0  0  0  0
   16.9690    8.8237   23.0986 O   0  0  0  0  0  0
   11.6363    7.7696   26.9047 N   0  0  0  0  0  0
   10.2940    7.3090   27.2496 C   0  0  1  0  0  0
   10.0674    5.8407   26.8237 C   0  0  0  0  0  0
    8.3014    5.6012   26.4556 S   0  0  0  0  0  0
    8.2437    3.8176   26.1579 C   0  0  0  0  0  0
    8.1831    3.0630   27.4745 C   0  0  0  0  0  0
    6.9892    3.0664   28.2264 C   0  0  0  0  0  0
    9.3028    2.3445   27.9477 C   0  0  0  0  0  0
    6.9120    2.3571   29.4412 C   0  0  0  0  0  0
    9.2221    1.6294   29.1594 C   0  0  0  0  0  0
    8.0283    1.6388   29.9072 C   0  0  0  0  0  0
    9.9491    7.5853   28.7200 C   0  0  0  0  0  0
   10.8269    7.6234   29.5859 O   0  0  0  0  0  0
    8.6442    7.7605   28.9685 N   0  0  0  0  0  0
    7.9920    7.9310   30.2621 C   0  0  2  0  0  0
    6.8961    6.9116   30.3520 C   0  0  0  0  0  0
    6.8280    6.0247   31.4533 C   0  0  0  0  0  0
    5.8981    6.7733   29.3534 C   0  0  0  0  0  0
    5.8004    5.0694   31.5758 C   0  0  0  0  0  0
    4.8655    5.8226   29.4646 C   0  0  0  0  0  0
    4.8114    4.9716   30.5826 C   0  0  0  0  0  0
    7.2890    9.3031   30.3726 C   0  0  0  0  0  0
    6.8321    9.6239   31.4943 O   0  5  0  0  0  0
    7.2362   10.0256   29.3486 O   0  0  0  0  0  0
   16.1145   11.3131   22.7976 H   0  0  0  0  0  0
   15.2288   10.1966   21.9787 H   0  0  0  0  0  0
   14.4919   11.5147   22.6771 H   0  0  0  0  0  0
   15.2366   10.7681   24.8383 H   0  0  0  0  0  0
   13.6288    8.5938   23.4077 H   0  0  0  0  0  0
   12.9542   10.1154   23.9080 H   0  0  0  0  0  0
   13.4829    9.5910   26.3107 H   0  0  0  0  0  0
   14.0900    8.0155   25.8446 H   0  0  0  0  0  0
   12.2881    7.8668   27.6742 H   0  0  0  0  0  0
    9.6170    7.9381   26.6666 H   0  0  0  0  0  0
   10.6275    5.5939   25.9220 H   0  0  0  0  0  0
   10.3896    5.1509   27.6035 H   0  0  0  0  0  0
    7.3493    3.6184   25.5665 H   0  0  0  0  0  0
    9.1007    3.5052   25.5601 H   0  0  0  0  0  0
    6.1287    3.6152   27.8745 H   0  0  0  0  0  0
   10.2232    2.3345   27.3831 H   0  0  0  0  0  0
    5.9968    2.3621   30.0142 H   0  0  0  0  0  0
   10.0754    1.0887   29.5400 H   0  0  0  0  0  0
    7.9719    1.1002   30.8413 H   0  0  0  0  0  0
    8.0168    7.7332   28.1780 H   0  0  0  0  0  0
    8.7045    7.8291   31.0836 H   0  0  0  0  0  0
    7.5750    6.0818   32.2287 H   0  0  0  0  0  0
    5.9105    7.4229   28.4907 H   0  0  0  0  0  0
    5.7724    4.4135   32.4337 H   0  0  0  0  0  0
    4.1164    5.7480   28.6921 H   0  0  0  0  0  0
    4.0199    4.2429   30.6721 H   0  0  0  0  0  0
  1  2  1  0  0  0
  1 34  1  0  0  0
  1 35  1  0  0  0
  1 36  1  0  0  0
  2  3  1  0  0  0
  2  5  1  0  0  0
  2 37  1  0  0  0
  3  4  1  0  0  0
  3  9  2  0  0  0
  5  6  1  0  0  0
  5 38  1  0  0  0
  5 39  1  0  0  0
  6  7  1  0  0  0
  6 40  1  0  0  0
  6 41  1  0  0  0
  7  8  2  0  0  0
  7 10  1  0  0  0
 10 11  1  0  0  0
 10 42  1  0  0  0
 11 12  1  0  0  0
 11 21  1  0  0  0
 11 43  1  0  0  0
 12 13  1  0  0  0
 12 44  1  0  0  0
 12 45  1  0  0  0
 13 14  1  0  0  0
 14 15  1  0  0  0
 14 46  1  0  0  0
 14 47  1  0  0  0
 15 16  2  0  0  0
 15 17  1  0  0  0
 16 18  1  0  0  0
 16 48  1  0  0  0
 17 19  2  0  0  0
 17 49  1  0  0  0
 18 20  2  0  0  0
 18 50  1  0  0  0
 19 20  1  0  0  0
 19 51  1  0  0  0
 20 52  1  0  0  0
 21 22  2  0  0  0
 21 23  1  0  0  0
 23 24  1  0  0  0
 23 53  1  0  0  0
 24 25  1  0  0  0
 24 31  1  0  0  0
 24 54  1  0  0  0
 25 26  2  0  0  0
 25 27  1  0  0  0
 26 28  1  0  0  0
 26 55  1  0  0  0
 27 29  2  0  0  0
 27 56  1  0  0  0
 28 30  2  0  0  0
 28 57  1  0  0  0
 29 30  1  0  0  0
 29 58  1  0  0  0
 30 59  1  0  0  0
 31 32  1  0  0  0
 31 33  2  0  0  0
M  CHG  3   1   1   4  -1  32  -1
M  END
> <s_i_glide_gridfile>
glide2__10gs_complex__grid

> <i_i_glide_lignum>
1

> <i_i_glide_rotatable_bonds>
15

> <r_i_docking_score>
-8.47996483407258

> <r_i_glide_ligand_efficiency>
-0.256968631335533

> <r_i_glide_ligand_efficiency_sa>
-0.824235705780113

> <r_i_glide_ligand_efficiency_ln>
-1.88590027218968

> <r_i_glide_gscore>
-8.47996483407258

> <r_i_glide_lipo>
-1.57907050751126

> <r_i_glide_hbond>
-1.01955168644686

> <r_i_glide_metal>
-0

> <r_i_glide_rewards>
-0.821854011346192

> <r_i_glide_evdw>
-37.6197547912598

> <r_i_glide_ecoul>
-26.2332019805908

> <r_i_glide_erotb>
0.996145276216653

> <r_i_glide_esite>
-0.239665868333311

> <r_i_glide_emodel>
-116.331304182487

> <r_i_glide_energy>
-63.8529567718506

> <r_i_glide_einternal>
8.01912212371826

> <i_i_glide_confnum>
315

> <i_i_glide_posenum>
300

> <r_i_glide_eff_state_penalty>
0

$$$$
10gs_complex ligand
                    3D
 Structure written by MMmdl.
 59 60  0  0  1  0            999 V2000
   15.0426   10.8237   22.8435 N   0  3  0  0  0  0
   15.0026   10.0224   24.0879 C   0  0  2  0  0  0
   16.1761    9.0180   24.0946 C   0  0  0  0  0  0
   16.8273    8.8240   23.0446 O   0  5  0  0  0  0
   13.6345    9.3053   24.2704 C   0  0  0  0  0  0
   13.3191    8.8831   25.7296 C   0  0  0  0  0  0
   12.0604    8.0237   25.8946 C   0  0  0  0  0  0
   11.4510    7.5911   24.9144 O   0  0  0  0  0  0
   16.4280    8.4245   25.1619 O   0  0  0  0  0  0
   11.7023    7.7568   27.1596 N   0  0  0  0  0  0
   10.6015    6.9049   27.5986 C   0  0  1  0  0  0
   11.1143    5.4346   27.6764 C   0  0  0  0  0  0
    9.8340    4.1762   27.3166 S   0  0  0  0  0  0
    8.6186    4.5231   28.6081 C   0  0  0  0  0  0
    7.5082    3.5052   28.7033 C   0  0  0  0  0  0
    7.4356    2.6420   29.8156 C   0  0  0  0  0  0
    6.4601    3.5254   27.7600 C   0  0  0  0  0  0
    6.2941    1.8415   30.0105 C   0  0  0  0  0  0
    5.3176    2.7302   27.9602 C   0  0  0  0  0  0
    5.2276    1.8992   29.0926 C   0  0  0  0  0  0
   10.0630    7.4659   28.9339 C   0  0  0  0  0  0
   10.8282    7.6239   29.8868 O   0  0  0  0  0  0
    8.7477    7.7303   29.0130 N   0  0  0  0  0  0
    7.9949    7.9389   30.2540 C   0  0  2  0  0  0
    6.8387    6.9827   30.2861 C   0  0  0  0  0  0
    5.8559    6.9437   29.2624 C   0  0  0  0  0  0
    6.6829    6.0763   31.3627 C   0  0  0  0  0  0
    4.7573    6.0665   29.3266 C   0  0  0  0  0  0
    5.5894    5.1940   31.4360 C   0  0  0  0  0  0
    4.6197    5.1918   30.4185 C   0  0  0  0  0  0
    7.3463    9.3292   30.3593 C   0  0  0  0  0  0
    6.8396    9.6253   31.4663 O   0  5  0  0  0  0
    7.3595   10.0690   29.3468 O   0  0  0  0  0  0
   15.9324   11.3074   22.8164 H   0  0  0  0  0  0
   14.9790   10.2152   22.0417 H   0  0  0  0  0  0
   14.3075   11.5177   22.8249 H   0  0  0  0  0  0
   15.1508   10.7294   24.9068 H   0  0  0  0  0  0
   13.5950    8.4332   23.6145 H   0  0  0  0  0  0
   12.8329    9.9651   23.9328 H   0  0  0  0  0  0
   13.2297    9.7732   26.3546 H   0  0  0  0  0  0
   14.1320    8.2980   26.1554 H   0  0  0  0  0  0
   12.2934    8.1111   27.9005 H   0  0  0  0  0  0
    9.8083    6.9652   26.8507 H   0  0  0  0  0  0
   11.9038    5.2732   26.9421 H   0  0  0  0  0  0
   11.5613    5.2289   28.6512 H   0  0  0  0  0  0
    9.1123    4.6539   29.5687 H   0  0  0  0  0  0
    8.1308    5.4507   28.3438 H   0  0  0  0  0  0
    8.2264    2.6342   30.5518 H   0  0  0  0  0  0
    6.5037    4.1936   26.9125 H   0  0  0  0  0  0
    6.2257    1.2016   30.8776 H   0  0  0  0  0  0
    4.5007    2.7756   27.2546 H   0  0  0  0  0  0
    4.3464    1.2925   29.2493 H   0  0  0  0  0  0
    8.1934    7.6622   28.1738 H   0  0  0  0  0  0
    8.6353    7.7997   31.1283 H   0  0  0  0  0  0
    5.9313    7.6170   28.4187 H   0  0  0  0  0  0
    7.4092    6.0641   32.1611 H   0  0  0  0  0  0
    4.0179    6.0660   28.5398 H   0  0  0  0  0  0
    5.4953    4.5191   32.2731 H   0  0  0  0  0  0
    3.7812    4.5147   30.4715 H   0  0  0  0  0  0
  1  2  1  0  0  0
  1 34  1  0  0  0
  1 35  1  0  0  0
  1 36  1  0  0  0
  2  3  1  0  0  0
  2  5  1  0  0  0
  2 37  1  0  0  0
  3  4  1  0  0  0
  3  9  2  0  0  0
  5  6  1  0  0  0
  5 38  1  0  0  0
  5 39  1  0  0  0
  6  7  1  0  0  0
  6 40  1  0  0  0
  6 41  1  0  0  0
  7  8  2  0  0  0
  7 10  1  0  0  0
 10 11  1  0  0  0
 10 42  1  0  0  0
 11 12  1  0  0  0
 11 21  1  0  0  0
 11 43  1  0  0  0
 12 13  1  0  0  0
 12 44  1  0  0  0
 12 45  1  0  0  0
 13 14  1  0  0  0
 14 15  1  0  0  0
 14 46  1  0  0  0
 14 47  1  0  0  0
 15 16  2  0  0  0
 15 17  1  0  0  0
 16 18  1  0  0  0
 16 48  1  0  0  0
 17 19  2  0  0  0
 17 49  1  0  0  0
 18 20  2  0  0  0
 18 50  1  0  0  0
 19 20  1  0  0  0
 19 51  1  0  0  0
 20 52  1  0  0  0
 21 22  2  0  0  0
 21 23  1  0  0  0
 23 24  1  0  0  0
 23 53  1  0  0  0
 24 25  1  0  0  0
 24 31  1  0  0  0
 24 54  1  0  0  0
 25 26  2  0  0  0
 25 27  1  0  0  0
 26 28  1  0  0  0
 26 55  1  0  0  0
 27 29  2  0  0  0
 27 56  1  0  0  0
 28 30  2  0  0  0
 28 57  1  0  0  0
 29 30  1  0  0  0
 29 58  1  0  0  0
 30 59  1  0  0  0
 31 32  1  0  0  0
 31 33  2  0  0  0
M  CHG  3   1   1   4  -1  32  -1
M  END
> <s_i_glide_gridfile>
glide2__10gs_complex__grid

> <i_i_glide_lignum>
1

> <i_i_glide_rotatable_bonds>
15

> <r_i_docking_score>
-8.181934929725

> <r_i_glide_ligand_efficiency>
-0.247937422112879

> <r_i_glide_ligand_efficiency_sa>
-0.795267792190839

> <r_i_glide_ligand_efficiency_ln>
-1.81961996457904

> <r_i_glide_gscore>
-8.181934929725

> <r_i_glide_lipo>
-1.17269505277605

> <r_i_glide_hbond>
-1.13321662294157

> <r_i_glide_metal>
-0

> <r_i_glide_rewards>
-0.811768468128532

> <r_i_glide_evdw>
-36.6832847595215

> <r_i_glide_ecoul>
-27.3511524200439

> <r_i_glide_erotb>
0.996145276216653

> <r_i_glide_esite>
-0.226235824119432

> <r_i_glide_emodel>
-114.576373774012

> <r_i_glide_energy>
-64.0344371795654

> <r_i_glide_einternal>
7.92138814926147

> <i_i_glide_confnum>
158

> <i_i_glide_posenum>
302

> <r_i_glide_eff_state_penalty>
0

$$$$
10gs_complex ligand
                    3D
 Structure written by MMmdl.
 59 60  0  0  1  0            999 V2000
   15.0369   10.8236   22.9635 N   0  3  0  0  0  0
   14.9824   10.0024   24.1932 C   0  0  2  0  0  0
   16.1686    9.0129   24.2090 C   0  0  0  0  0  0
   16.4283    8.4375   25.2860 O   0  5  0  0  0  0
   13.6182    9.2709   24.3391 C   0  0  0  0  0  0
   13.2979    8.7767   25.7750 C   0  0  0  0  0  0
   12.0095    7.9591   25.9044 C   0  0  0  0  0  0
   11.3884    7.5831   24.9093 O   0  0  0  0  0  0
   16.8275    8.8240   23.1608 O   0  0  0  0  0  0
   11.6361    7.6676   27.1594 N   0  0  0  0  0  0
   10.4622    6.9062   27.5716 C   0  0  1  0  0  0
   10.8074    5.3970   27.5810 C   0  0  0  0  0  0
    9.4222    4.3866   28.1967 S   0  0  0  0  0  0
    8.3171    4.3420   26.7531 C   0  0  0  0  0  0
    6.9124    3.9223   27.1587 C   0  0  0  0  0  0
    5.8007    4.6558   26.6928 C   0  0  0  0  0  0
    6.6999    2.7967   27.9863 C   0  0  0  0  0  0
    4.4934    4.2713   27.0495 C   0  0  0  0  0  0
    5.3941    2.4244   28.3598 C   0  0  0  0  0  0
    4.2897    3.1601   27.8901 C   0  0  0  0  0  0
    9.9492    7.4516   28.9135 C   0  0  0  0  0  0
   10.7313    7.6261   29.8512 O   0  0  0  0  0  0
    8.6325    7.6954   28.9910 N   0  0  0  0  0  0
    7.8950    8.0724   30.1930 C   0  0  2  0  0  0
    6.7421    7.1210   30.3418 C   0  0  0  0  0  0
    5.6011    7.1398   29.4980 C   0  0  0  0  0  0
    6.7742    6.1252   31.3451 C   0  0  0  0  0  0
    4.5241    6.2542   29.6907 C   0  0  0  0  0  0
    5.7140    5.2191   31.5338 C   0  0  0  0  0  0
    4.5795    5.2878   30.7087 C   0  0  0  0  0  0
    7.2906    9.4883   30.0923 C   0  0  0  0  0  0
    7.2282   10.0238   28.9598 O   0  5  0  0  0  0
    6.9153   10.0237   31.1594 O   0  0  0  0  0  0
   15.9176   11.3235   22.9675 H   0  0  0  0  0  0
   15.0015   10.2273   22.1508 H   0  0  0  0  0  0
   14.2916   11.5057   22.9380 H   0  0  0  0  0  0
   15.1060   10.6985   25.0245 H   0  0  0  0  0  0
   13.5863    8.4313   23.6421 H   0  0  0  0  0  0
   12.8176    9.9450   24.0319 H   0  0  0  0  0  0
   13.2327    9.6350   26.4456 H   0  0  0  0  0  0
   14.0933    8.1433   26.1632 H   0  0  0  0  0  0
   12.2401    7.9736   27.9133 H   0  0  0  0  0  0
    9.6798    7.0791   26.8311 H   0  0  0  0  0  0
   11.0895    5.0532   26.5861 H   0  0  0  0  0  0
   11.6629    5.2225   28.2347 H   0  0  0  0  0  0
    8.2862    5.3263   26.2867 H   0  0  0  0  0  0
    8.7109    3.6465   26.0106 H   0  0  0  0  0  0
    5.9440    5.5142   26.0538 H   0  0  0  0  0  0
    7.5387    2.2188   28.3440 H   0  0  0  0  0  0
    3.6455    4.8338   26.6867 H   0  0  0  0  0  0
    5.2358    1.5684   28.9996 H   0  0  0  0  0  0
    3.2877    2.8731   28.1706 H   0  0  0  0  0  0
    8.0708    7.5778   28.1616 H   0  0  0  0  0  0
    8.5386    8.0404   31.0748 H   0  0  0  0  0  0
    5.5338    7.8603   28.6963 H   0  0  0  0  0  0
    7.6282    6.0581   31.9993 H   0  0  0  0  0  0
    3.6602    6.3090   29.0442 H   0  0  0  0  0  0
    5.7720    4.4752   32.3139 H   0  0  0  0  0  0
    3.7610    4.5971   30.8490 H   0  0  0  0  0  0
  1  2  1  0  0  0
  1 34  1  0  0  0
  1 35  1  0  0  0
  1 36  1  0  0  0
  2  3  1  0  0  0
  2  5  1  0  0  0
  2 37  1  0  0  0
  3  4  1  0  0  0
  3  9  2  0  0  0
  5  6  1  0  0  0
  5 38  1  0  0  0
  5 39  1  0  0  0
  6  7  1  0  0  0
  6 40  1  0  0  0
  6 41  1  0  0  0
  7  8  2  0  0  0
  7 10  1  0  0  0
 10 11  1  0  0  0
 10 42  1  0  0  0
 11 12  1  0  0  0
 11 21  1  0  0  0
 11 43  1  0  0  0
 12 13  1  0  0  0
 12 44  1  0  0  0
 12 45  1  0  0  0
 13 14  1  0  0  0
 14 15  1  0  0  0
 14 46  1  0  0  0
 14 47  1  0  0  0
 15 16  2  0  0  0
 15 17  1  0  0  0
 16 18  1  0  0  0
 16 48  1  0  0  0
 17 19  2  0  0  0
 17 49  1  0  0  0
 18 20  2  0  0  0
 18 50  1  0  0  0
 19 20  1  0  0  0
 19 51  1  0  0  0
 20 52  1  0  0  0
 21 22  2  0  0  0
 21 23  1  0  0  0
 23 24  1  0  0  0
 23 53  1  0  0  0
 24 25  1  0  0  0
 24 31  1  0  0  0
 24 54  1  0  0  0
 25 26  2  0  0  0
 25 27  1  0  0  0
 26 28  1  0  0  0
 26 55  1  0  0  0
 27 29  2  0  0  0
 27 56  1  0  0  0
 28 30  2  0  0  0
 28 57  1  0  0  0
 29 30  1  0  0  0
 29 58  1  0  0  0
 30 59  1  0  0  0
 31 32  1  0  0  0
 31 33  2  0  0  0
M  CHG  3   1   1   4  -1  32  -1
M  END
> <s_i_glide_gridfile>
glide2__10gs_complex__grid

> <i_i_glide_lignum>
1

> <i_i_glide_rotatable_bonds>
15

> <r_i_docking_score>
-7.89638406773398

> <r_i_glide_ligand_efficiency>
-0.239284365688908

> <r_i_glide_ligand_efficiency_sa>
-0.767512816683911

> <r_i_glide_ligand_efficiency_ln>
-1.75611493137547

> <r_i_glide_gscore>
-7.89638406773398

> <r_i_glide_lipo>
-1.17152639996774

> <r_i_glide_hbond>
-1.07228595990349

> <r_i_glide_metal>
-0

> <r_i_glide_rewards>
-0.728029345535844

> <r_i_glide_evdw>
-36.2124519348145

> <r_i_glide_ecoul>
-25.896411895752

> <r_i_glide_erotb>
0.996145276216653

> <r_i_glide_esite>
-0.225603257440035

> <r_i_glide_emodel>
-110.410552401566

> <r_i_glide_energy>
-62.1088638305664

> <r_i_glide_einternal>
8.59758281707764

> <i_i_glide_confnum>
413

> <i_i_glide_posenum>
107

> <r_i_glide_eff_state_penalty>
0

$$$$
10gs_complex ligand
                    3D
 Structure written by MMmdl.
 59 60  0  0  1  0            999 V2000
   15.2148   10.8247   22.6251 N   0  3  0  0  0  0
   15.0288   10.1431   23.9205 C   0  0  2  0  0  0
   16.2123    9.1899   24.1542 C   0  0  0  0  0  0
   16.8982    8.8238   23.1735 O   0  5  0  0  0  0
   13.6722    9.3975   23.9809 C   0  0  0  0  0  0
   13.3234    8.7932   25.3652 C   0  0  0  0  0  0
   11.9588    8.1118   25.4255 C   0  0  0  0  0  0
   11.2628    8.0011   24.4148 O   0  0  0  0  0  0
   16.4283    8.8188   25.3264 O   0  0  0  0  0  0
   11.5847    7.6431   26.6264 N   0  0  0  0  0  0
   10.2553    7.1221   26.9291 C   0  0  1  0  0  0
   10.0892    5.6740   26.4049 C   0  0  0  0  0  0
    8.3305    5.2858   26.1375 S   0  0  0  0  0  0
    8.0251    6.1709   24.5705 C   0  0  0  0  0  0
    6.5461    6.3487   24.2465 C   0  0  0  0  0  0
    5.5448    6.3523   25.2462 C   0  0  0  0  0  0
    6.1738    6.5833   22.9051 C   0  0  0  0  0  0
    4.1978    6.5823   24.9047 C   0  0  0  0  0  0
    4.8290    6.8239   22.5646 C   0  0  0  0  0  0
    3.8396    6.8240   23.5651 C   0  0  0  0  0  0
    9.9219    7.3138   28.4153 C   0  0  0  0  0  0
   10.8007    7.2239   29.2736 O   0  0  0  0  0  0
    8.6432    7.5967   28.6927 N   0  0  0  0  0  0
    8.0574    7.8261   30.0113 C   0  0  2  0  0  0
    6.9002    6.8871   30.1576 C   0  0  0  0  0  0
    6.8282    6.0114   31.2641 C   0  0  0  0  0  0
    5.8570    6.8073   29.1998 C   0  0  0  0  0  0
    5.7668    5.0999   31.4205 C   0  0  0  0  0  0
    4.7911    5.8986   29.3442 C   0  0  0  0  0  0
    4.7442    5.0420   30.4578 C   0  0  0  0  0  0
    7.4776    9.2520   30.1349 C   0  0  0  0  0  0
    7.6230   10.0240   29.1596 O   0  5  0  0  0  0
    6.9238    9.5780   31.2091 O   0  0  0  0  0  0
   16.0955   11.3219   22.6679 H   0  0  0  0  0  0
   15.2581   10.1417   21.8840 H   0  0  0  0  0  0
   14.4812   11.5001   22.4505 H   0  0  0  0  0  0
   15.0505   10.9174   24.6892 H   0  0  0  0  0  0
   13.6587    8.6120   23.2246 H   0  0  0  0  0  0
   12.8823   10.0964   23.7007 H   0  0  0  0  0  0
   13.3524    9.5765   26.1241 H   0  0  0  0  0  0
   14.0514    8.0403   25.6601 H   0  0  0  0  0  0
   12.2149    7.7441   27.4130 H   0  0  0  0  0  0
    9.5627    7.7733   26.3952 H   0  0  0  0  0  0
   10.6129    5.5215   25.4609 H   0  0  0  0  0  0
   10.5104    4.9626   27.1163 H   0  0  0  0  0  0
    8.4760    7.1611   24.5983 H   0  0  0  0  0  0
    8.5165    5.6240   23.7650 H   0  0  0  0  0  0
    5.7907    6.1905   26.2842 H   0  0  0  0  0  0
    6.9246    6.5978   22.1292 H   0  0  0  0  0  0
    3.4400    6.5830   25.6744 H   0  0  0  0  0  0
    4.5564    7.0085   21.5358 H   0  0  0  0  0  0
    2.8071    7.0068   23.3052 H   0  0  0  0  0  0
    8.0035    7.6876   27.9180 H   0  0  0  0  0  0
    8.7919    7.6815   30.8056 H   0  0  0  0  0  0
    7.6068    6.0360   32.0111 H   0  0  0  0  0  0
    5.8698    7.4604   28.3396 H   0  0  0  0  0  0
    5.7411    4.4443   32.2783 H   0  0  0  0  0  0
    4.0091    5.8607   28.6000 H   0  0  0  0  0  0
    3.9284    4.3437   30.5733 H   0  0  0  0  0  0
  1  2  1  0  0  0
  1 34  1  0  0  0
  1 35  1  0  0  0
  1 36  1  0  0  0
  2  3  1  0  0  0
  2  5  1  0  0  0
  2 37  1  0  0  0
  3  4  1  0  0  0
  3  9  2  0  0  0
  5  6  1  0  0  0
  5 38  1  0  0  0
  5 39  1  0  0  0
  6  7  1  0  0  0
  6 40  1  0  0  0
  6 41  1  0  0  0
  7  8  2  0  0  0
  7 10  1  0  0  0
 10 11  1  0  0  0
 10 42  1  0  0  0
 11 12  1  0  0  0
 11 21  1  0  0  0
 11 43  1  0  0  0
 12 13  1  0  0  0
 12 44  1  0  0  0
 12 45  1  0  0  0
 13 14  1  0  0  0
 14 15  1  0  0  0
 14 46  1  0  0  0
 14 47  1  0  0  0
 15 16  2  0  0  0
 15 17  1  0  0  0
 16 18  1  0  0  0
 16 48  1  0  0  0
 17 19  2  0  0  0
 17 49  1  0  0  0
 18 20  2  0  0  0
 18 50  1  0  0  0
 19 20  1  0  0  0
 19 51  1  0  0  0
 20 52  1  0  0  0
 21 22  2  0  0  0
 21 23  1  0  0  0
 23 24  1  0  0  0
 23 53  1  0  0  0
 24 25  1  0  0  0
 24 31  1  0  0  0
 24 54  1  0  0  0
 25 26  2  0  0  0
 25 27  1  0  0  0
 26 28  1  0  0  0
 26 55  1  0  0  0
 27 29  2  0  0  0
 27 56  1  0  0  0
 28 30  2  0  0  0
 28 57  1  0  0  0
 29 30  1  0  0  0
 29 58  1  0  0  0
 30 59  1  0  0  0
 31 32  1  0  0  0
 31 33  2  0  0  0
M  CHG  3   1   1   4  -1  32  -1
M  END
> <s_i_glide_gridfile>
glide2__10gs_complex__grid

> <i_i_glide_lignum>
1

> <i_i_glide_rotatable_bonds>
15

> <r_i_docking_score>
-7.13208622205325

> <r_i_glide_ligand_efficiency>
-0.216123824910705

> <r_i_glide_ligand_efficiency_sa>
-0.693224587123137

> <r_i_glide_ligand_efficiency_ln>
-1.58613904781853

> <r_i_glide_gscore>
-7.13208622205325

> <r_i_glide_lipo>
-0.95290418892198

> <r_i_glide_hbond>
-0.756859103320401

> <r_i_glide_metal>
-0

> <r_i_glide_rewards>
-0.676111988889206

> <r_i_glide_evdw>
-33.3013725280762

> <r_i_glide_ecoul>
-25.5963287353516

> <r_i_glide_erotb>
0.996145276216653

> <r_i_glide_esite>
-0.237838280431774

> <r_i_glide_emodel>
-103.147349896501

> <r_i_glide_energy>
-58.8977012634277

> <r_i_glide_einternal>
6.5191707611084

> <i_i_glide_confnum>
407

> <i_i_glide_posenum>
207

> <r_i_glide_eff_state_penalty>
0

$$$$
10gs_complex ligand
                    3D
 Structure written by MMmdl.
 59 60  0  0  1  0            999 V2000
   15.6266   11.1534   22.3589 N   0  3  0  0  0  0
   15.2301   10.3211   23.5123 C   0  0  2  0  0  0
   16.2914    9.2240   23.7476 C   0  0  0  0  0  0
   16.4277    8.7917   24.9130 O   0  5  0  0  0  0
   13.8130    9.7297   23.3298 C   0  0  0  0  0  0
   13.2964    8.9869   24.5846 C   0  0  0  0  0  0
   11.7962    8.6955   24.5833 C   0  0  0  0  0  0
   11.0209    9.3329   23.8697 O   0  0  0  0  0  0
   16.9716    8.8245   22.7773 O   0  0  0  0  0  0
   11.3885    7.7275   25.4164 N   0  0  0  0  0  0
    9.9970    7.4526   25.7574 C   0  0  1  0  0  0
    9.2618    6.6994   24.6320 C   0  0  0  0  0  0
    7.4761    7.0046   24.7867 S   0  0  0  0  0  0
    6.8861    6.1496   23.2999 C   0  0  0  0  0  0
    5.4542    6.5408   22.9783 C   0  0  0  0  0  0
    4.4416    6.4612   23.9616 C   0  0  0  0  0  0
    5.1244    6.9766   21.6760 C   0  0  0  0  0  0
    3.1171    6.8236   23.6451 C   0  0  0  0  0  0
    3.7977    7.3274   21.3591 C   0  0  0  0  0  0
    2.7940    7.2529   22.3438 C   0  0  0  0  0  0
    9.9422    6.7562   27.1201 C   0  0  0  0  0  0
   10.6595    5.7778   27.3390 O   0  0  0  0  0  0
    9.0898    7.2732   28.0163 N   0  0  0  0  0  0
    8.9069    6.8177   29.3888 C   0  0  2  0  0  0
    7.4808    6.4076   29.6275 C   0  0  0  0  0  0
    6.3809    6.9550   28.9169 C   0  0  0  0  0  0
    7.1929    5.4228   30.6019 C   0  0  0  0  0  0
    5.0579    6.5443   29.1763 C   0  0  0  0  0  0
    5.8753    5.0106   30.8729 C   0  0  0  0  0  0
    4.8028    5.5709   30.1592 C   0  0  0  0  0  0
    9.2367    7.9734   30.3576 C   0  0  0  0  0  0
    8.3530    8.8230   30.6250 O   0  5  0  0  0  0
   10.4205    8.0237   30.7591 O   0  0  0  0  0  0
   16.4900   11.6143   22.6114 H   0  0  0  0  0  0
   15.7766   10.5649   21.5533 H   0  0  0  0  0  0
   14.9368   11.8731   22.1489 H   0  0  0  0  0  0
   15.2266   10.9849   24.3782 H   0  0  0  0  0  0
   13.7953    9.0568   22.4713 H   0  0  0  0  0  0
   13.1369   10.5509   23.0870 H   0  0  0  0  0  0
   13.5000    9.5891   25.4734 H   0  0  0  0  0  0
   13.8344    8.0482   24.7138 H   0  0  0  0  0  0
   12.0804    7.2553   25.9842 H   0  0  0  0  0  0
    9.5162    8.4239   25.8753 H   0  0  0  0  0  0
    9.5753    7.0600   23.6514 H   0  0  0  0  0  0
    9.4671    5.6282   24.6647 H   0  0  0  0  0  0
    7.5321    6.4236   22.4650 H   0  0  0  0  0  0
    6.9615    5.0718   23.4395 H   0  0  0  0  0  0
    4.6793    6.1249   24.9603 H   0  0  0  0  0  0
    5.8854    7.0373   20.9119 H   0  0  0  0  0  0
    2.3480    6.7670   24.4011 H   0  0  0  0  0  0
    3.5483    7.6543   20.3604 H   0  0  0  0  0  0
    1.7769    7.5229   22.0994 H   0  0  0  0  0  0
    8.5532    8.0834   27.7514 H   0  0  0  0  0  0
    9.5748    5.9807   29.5913 H   0  0  0  0  0  0
    6.5399    7.7084   28.1630 H   0  0  0  0  0  0
    8.0051    4.9773   31.1589 H   0  0  0  0  0  0
    4.2392    6.9792   28.6238 H   0  0  0  0  0  0
    5.6879    4.2598   31.6276 H   0  0  0  0  0  0
    3.7875    5.2566   30.3626 H   0  0  0  0  0  0
  1  2  1  0  0  0
  1 34  1  0  0  0
  1 35  1  0  0  0
  1 36  1  0  0  0
  2  3  1  0  0  0
  2  5  1  0  0  0
  2 37  1  0  0  0
  3  4  1  0  0  0
  3  9  2  0  0  0
  5  6  1  0  0  0
  5 38  1  0  0  0
  5 39  1  0  0  0
  6  7  1  0  0  0
  6 40  1  0  0  0
  6 41  1  0  0  0
  7  8  2  0  0  0
  7 10  1  0  0  0
 10 11  1  0  0  0
 10 42  1  0  0  0
 11 12  1  0  0  0
 11 21  1  0  0  0
 11 43  1  0  0  0
 12 13  1  0  0  0
 12 44  1  0  0  0
 12 45  1  0  0  0
 13 14  1  0  0  0
 14 15  1  0  0  0
 14 46  1  0  0  0
 14 47  1  0  0  0
 15 16  2  0  0  0
 15 17  1  0  0  0
 16 18  1  0  0  0
 16 48  1  0  0  0
 17 19  2  0  0  0
 17 49  1  0  0  0
 18 20  2  0  0  0
 18 50  1  0  0  0
 19 20  1  0  0  0
 19 51  1  0  0  0
 20 52  1  0  0  0
 21 22  2  0  0  0
 21 23  1  0  0  0
 23 24  1  0  0  0
 23 53  1  0  0  0
 24 25  1  0  0  0
 24 31  1  0  0  0
 24 54  1  0  0  0
 25 26  2  0  0  0
 25 27  1  0  0  0
 26 28  1  0  0  0
 26 55  1  0  0  0
 27 29  2  0  0  0
 27 56  1  0  0  0
 28 30  2  0  0  0
 28 57  1  0  0  0
 29 30  1  0  0  0
 29 58  1  0  0  0
 30 59  1  0  0  0
 31 32  1  0  0  0
 31 33  2  0  0  0
M  CHG  3   1   1   4  -1  32  -1
M  END
> <s_i_glide_gridfile>
glide2__10gs_complex__grid

> <i_i_glide_lignum>
1

> <i_i_glide_rotatable_bonds>
15

> <r_i_docking_score>
-6.71127749084917

> <r_i_glide_ligand_efficiency>
-0.203372045177247

> <r_i_glide_ligand_efficiency_sa>
-0.6523228159072

> <r_i_glide_ligand_efficiency_ln>
-1.49255336482974

> <r_i_glide_gscore>
-6.71127749084917

> <r_i_glide_lipo>
-1.00432105394853

> <r_i_glide_hbond>
-0.683229790654661

> <r_i_glide_metal>
-0

> <r_i_glide_rewards>
-0.837550873963644

> <r_i_glide_evdw>
-31.3392429351807

> <r_i_glide_ecoul>
-22.5583076477051

> <r_i_glide_erotb>
0.996145276216653

> <r_i_glide_esite>
-0.231612754584189

> <r_i_glide_emodel>
-94.381764203021

> <r_i_glide_energy>
-53.8975505828857

> <r_i_glide_einternal>
8.4437427520752

> <i_i_glide_confnum>
414

> <i_i_glide_posenum>
351

> <r_i_glide_eff_state_penalty>
0

$$$$
